data_image0
_chemical_formula_structural       FeHSFeHS2H2S2C2HCHCH5SHFeSCFeS2HCH2CHCHC2H2FeS2FeSFeSFeS3H5CSHCSFeHSFeS2FeHFeS2HCH2CSFeHSFeCSHSH3C7H5FeH2NH2C2HCHSCHC2HCH2C6H3C3H6C2H2C6H3SC6H4C2SH4FeCH8C3HC2HCH5CH2C2H4C2HC6H2SH2CHCH2C3H3CH2C2H2NC2NHCH4SH3CH6CHC4H2C4H2SHCH2CH2C2H5CH3NC8H20CHCHCH2C2H4CH6CNCHC2H3CH7CHCH6SH2CH3CHC2FeHC2SHCHC2H4CH3C3H5CH2CHCH5CH4CNSCHCHC2H3C2HNH2C2H2CH3CH4CH3NHSNHCSHCH2CNFeH4FeC2H3CHCHNH4C2H11C3HCHC2HC3H4SH2CSH2SHCHCH3C2H4SH5SFeS2H2CHSC2H3FeCSFeHSFeH2SCFeS2FeS2FeSFeS3FeS2HC2FeSCHSHFeCFeS2FeS2FeHFeS3C2FeS2FeS2FeSFeHS2CH2FeHSH2CS2CH3C6H4C5H2C4HSHSFeSHCHC7H6C2NC6H4C6H4C6H4FeC4H3CH3SCHCH3CHCHC7H6C6H4C2H2CH2CH2C2HCH2CHNCH2CHCHNC8H22CNC3H5SH3CHCHCH2CSH2CH3CH6CHSH2C2SCH7NHC2HS2CHSH4SFeH3CHCHNH2CHFeHCHC4H2C2H7C2H4CHS2C2HC2HC2HCH4CH5CH7CSH6CFeC2NC8H20NC6H7CSH6CS2HFeHC2H2FeH2C2HCHSH3SH3CNHC2H3SCHCH4CH3CH2NC8H19NC8H21CNH3CHS2C2H2S2HFeH2NCH4FeC2H3C2H4CNHCHC2HCHFeH5CH4FeHSH5SCHFe2HCHC2H3C2H3CH2CHSH6CH2C3FeC2H4C3H2CNH5CH2C4H4C2SC2H2CHNH15FeSFeS2FeCS2FeS2FeH2FeS2CSHFeS2FeS2FeSFeS3NFeS2FeSFeS2CFeS2FeS2H2CFeHFeS3HFeHSFeHS2CFeH2SC3H4FeHSH2CFeCHS3HCH2Fe2SC3FeHFeCH3CH2C2H3FeCHSC8H5CH4CH2CHSHC3HSHSCHC2H3S2CHCHC6H2FeH2FeH2C6H4C6H4SHSHSC5H4C3H3C7H4C2H2C2HNH2C6H4C3H5CSCHCSH3FeHSH3C3NC3HCH2FeC3H2C6H4SHC2HCSHCH11CHCH2CH4SH3FeC2HCNC8H17CH9NC7H17NC3H3CH6C2H2CNH5CHCSNC3HC3H7CH11NCNC8H10SH10C2H5CH3NH2CH3CHSH3S3H2C2HS2HCH2C2HCH2CHCSH4C2H3C2HCNH2CH2C2H3C2HC2HCHC2HCH2C3H3C2H10SFeCH4C2H3C2H5SC3H2CH6C3H3C2HC2H6NH4SCNCHC2HSH2CH2CH5CH4NH4CH7CH3CH6SH2C4HFe2H2FeS2FeSFeSFeS3H2SH2SFeH2CHCHCH2SHNCHCHS2HSHSHC2SH4FeSFeSFeHSH3SHSHFeH5NH2C3H3CFeH2FeCHFeNHS2CHCHSHCH2SHCH2C3HC3HCH4SH2FeSH3CHFeHCHC2S2C2HCHC2HCSCSHFeH2SH2C7H4C2HC2HC3H3SC2HCH5CFeHCH2C6H4C3H2CH4C6H4CH2C2H3CH2S2H5CHC4HCNSCH2C2H3C2HC2H4NSHNH2C2HCH2CH4CH3CH2C2HC2H3CH2C2HNH2CHC4SHCNHC2H4C3HCH2CSH2CHFeH2CNC2HC3H13CHCHCH3CH2C2FeCH2CHFeHCH5SH3CH5CHCH2C2NC3HC3H6CH7CH3CH2NC4H5CHC2HNC4SHC3H8CH6SH10CH3CH3CH9CHCFeS2FeHFeS2FeS2FeSFeS3FeSHFeS2FeSFeS3H3C2H2SH2S2FeSFeSFeSHS2FeS2FeS2FeSFeCS2FeS2FeSCFeSFeHSHC5H3C3H5SCHC2HC3SH2C2H2C6H4SC5H5CHSH4CNFeH6C7H4C6H2NC7H4C3HC2SH3C6H4CSHNHC6H6CHCH4NC8H14CH5NHC3HSHC3H2SH4SNSH8SH4FeC4HC3H6NH3C2H3FeH2SH3CHCSFeH5NC3H6CHFeH2SHCHCH2NHCH2CFeHC2FeCH2CSC2HCHCH3C2HCH12CHCH2NHCHC5SH2CH2CH3CHCHNC8H17CHFeH2CHCSH3C2H5C4HC4H2CHC2H3S2H3CH3C2HCH9Fe2SHCHCSH2C2H2CSHNHC3HC2H7CHC3H2FeCH3SHNC8H21CSH4CHCH3FeHCH4C4H3CHSH2C2HNC5H14CH2CH4CH7C2SHCH4NH6SC2H3SCH2CH2CH2SH3CH5SHCH3C2H2C2HCHFeH3C2SH3FeSH2FeS2FeSCFeHFeS3FeS2HSHC2HC3S2CHCHCHSH3FeS2FeS2FeSFeS3FeS2FeSHFeSFeS3H2FeSCFeS2FeSFeS3CHCH2CH3C4HC2H4CH2CH7C2H2C6H4CHC3H2C6H5C2H3C4NC2HCNHC6H4CHSH2C2HSHCHC6H4C6H4C3HFeH3CH3SCSHSCH2C2HNHC2H2CH7C2H9SHFeHCHC2HCH4SCHC2HCH3CH2C2H2SHFeH3CSNCH4CHNCH10CHC2SFeCH5CHCH2CNC8H20C2HSH9SH3C2H2CH4CHNC7SH11CH8NC4HC3H9CH10FeH3NCH4CHNH2C3SH3CH6C2FeCSFeS2H7C3H2SCHCH2C2H2CH2CFeCH3C2NCH3CH2CSH2C2HC2H5FeH3CHC3HNCH2CHC3H2CH6CHFeS2FeSHFeSFeS2FeS2FeS2FeSFeS3H4FeS2FeS2HFeS3H2SHC2HFeHSFeC2H2FeHS2FeS3Fe2S2HSFeSHFeSFeHSHSHCFeSCH3C2H2C2H2CH5C6H4C6SC3H2CH3CHCHCH7C3H2CH4C3HC2H4C6H4C6H4C2H2CFeHC2HC6H4C2H2C6H9CH4NH3CSHCH2SCSCHC3HCH2NH9CNC8H8C2H4CH3NHC2NFeH3CH2C2H3CH2CH2C2HSCH3C2H3CH2C2SFeCH2CHCHCHCHCH2CH2CHCH2CH4C2H2CHC2H2CSHSCHNC2H3CHFeH2NHSHCH2C2HCHCH2C4H4CSNH5NC2HCH4NCH8NH5C2H5CH2SCH5CSFeH2SH6CNC8H20CH11CHCSH3NC4HC3H2NH2CH3CH3SCSC2H3C5H8CH4CFeCH6CH3CHCHC2HC4HCHC4HFeSCFeS2FeSH2SHFeSHFeS2FeSFeS4H5FeSCHNHC2FeS2FeS2Fe2S3FeS2FeSCFeSFeS3H5SCHC2H3SH2FeHCHSH3CHC4H2C2NHC5H3C2HC3HCH2C6H7CHFeCHSC6HCH2CH2CH4C2H2C7H4C6H3C6H4C2H3NC5HCHC3HCNHSCHC2SHCH3CH4CHSH2C3HCHC2H2SH2CH4CHCHC3H3CH5FeH3SHCHFeH5SCH2FeHFeH6C2HSH3CH5SH2CH2CH2SHC2H2SHSHFeCH5CHCSH3SHCHCH2C3H5CNCH3CHCHSCH2CHCHCHSFeHCH2CHNCHCH2FeCH2CH2C2HCH6C2HCH3CNCH3SNCH2SHCHCHCH2C2H3S2CH3CHSCHCSNC4SHCNC3SC2H6CH9CHSFeH4C2HCHSH3NCH2CH4NC8H20NHC2HCHCH2CH4SC2HCH3CH7CH3C2H2CHCH2CH2CHCHSC2HC2H6NCHC3H2CH4CH12CH10CHSC2H5CH2C2HSFeHFeH3CH4SHC2H2C2FeCH5NH2SCH2FeCHSCH3NHC2HFeH7CHCHC2SHCHFeH7CH2CH4CFeH2CHCH2CHSC2H5NH4CS2Fe2S2FeS2FeHFeS2FeS2FeS2FeSFeS2FeS3FeSCFeS2FeSFeSFeS3FeSHFeS2FeSFeS3H3C2HC2H3SNCH2SHFeS2H8C6H4FeH3C2H6CH3C6H4C6H6SCFeC2HCHC2H2C3HC2H4C6H4NC3HCSC2HCNCHC6H5CSH2C2H2C3H2CS2NH2C3HC6H4C2H2FeNC8H21C2HC2H6CSC4H2C5H2C2H3CHCHFeCFeHCNCH2CH3CH2NCH4C4H2CH3CHNC6H4FeH14S2CHSC2H13NH2CH2CSCH2CH2CH3C2HC3HCHCSHCHCHC3H4C2HFeH4C2H5CS2FeCHSCH3CH2C2H3CHNC7H17CFeH2SCHC2H3C2H5C2H6CH2SFeH2CHC2H2NC8H19SCH6SHSHC2HC2FeH2CH2CSH3FeHSHCHC3H3CHSH2NH2S2H5CH4CH3C2H6CFeS2FeSFeSFeS2HS3HFeSFeS2FeS2FeSFeS3CFeSFeS2FeSFeS3HCSH2CFeSCFeS2HFeS3HCHCHFeCH2CHCH7CH4CHCH4C6H4C6H4C2HC7H4C6H4C6H5C3NC2H2C6H6C2H2CFeH2CHCH6CFeHCHCSH7C2H2NHNC8H23SH4CH3C2H2CHCH3CHC2H2CH2C2HCH3CH3CH3SCH3C3HC2SH2CH2CH3NHSH5NHCH2CH3CHCH3FeH3CH9NHC3HNH3NH6CH3C2H6C2H3CH2CHCH2CH2CHCHSFeHCHCHCH3CH2FeHCH4CHCHCHNC8H20NC5HCH9C2H2CHSH3C2NC6H7CH6C3H2C3H3CS2CH4CH2S3CFeH2CH2CH3SCH7NC2H4C2HCHSH2SC2H2FeSFeS2FeS3FeS2FeS2CHFeS3CFeSFeS2FeS2FeSFeS3C4HFeS2FeS2H2FeC2HC3H5C2HC2SHC3H3C6H4C3H3NC6H6C2H2C7H8C8H4C6H8C2H2SFeC4HSH7CHCHCFeCH2C2HCHNH2SCHC3H2C2SH4C2HNH2CHCH4CH6SH3FeC2H2CHCH3FeH8CH6C2H5CNCH3C3NH2CSCH4SH2CH4CH6CHCH3C2SH2C2NC2HNSCH2C2H2CH5CH2C2H4CH3C2HCHCH4SH2SFeCHCH6CHSCH2C2NHS2C2H3CSCHCHNC8H18CH3N2H6FeH5CH3C2HFeCH4CSH5C2SH4CH3CHCH3CHSCH4CH3CH4NHC4H3CHFeS2FeSHFeSFeHS3CHCFeS2H5S2CH3FeS2FeS2FeSFeS3FeHSCH2FeSH2SCFeS2FeSFeS3CH2CS2FeS3Fe2S2FeS2FeSCFeSFeS3C6H4C6H4C2HFeH6C2H3C2SC2HC4H3NHCH2CH2C7H4C6H6C6H4CHCSH3SC6H7SHC2H2CH3C3HCNHC3H6CHC6H3CH3CH2CNC4SH4C2H2SH6C2SHCH2C2SH2NC8H20C3H3CNH7CHCH6CHSCSHCH7CHCHCHCHCH3NC8H10CHC2H6CHC2HCFe2HFeH2CH2CH3CHCHCNCHC3H2CH20NCHC4HCH5FeH2CSH4NC8H21C2NC4HNC4HC3H8CHCH9SFeHC2SH3C2HCSH2SHCH2CHCHCFeHC2H2C2HC2H4FeH2CSHN2C4H13FeH2SH3FeC2HNHCHFeCHC2H2SH3CH3C2H2CSH2NHCHFeCSNCHC3H3CH2CH2C2HC3SH4C2HSH2CH2CH2CH2SH10CH7C2NCH3CH5CHFeS3Fe2S2FeSH3FeHFeS2CFeS2FeS2HFeHSHC3H3CSHCSC2H3SCHFeHSFeS2FeSHS2FeCSHSCH6SH2FeCFeHSHCHC6HSH2C2HC4H3FeH12C2HCH2C7H4C6H4C2H9C3H5C6H4C6H4CHCFeHCH2C2HCHCH7SCHSHCH6C2H5NCH3CH5SHCH2FeHNHSH2FeCH2CSHC2HC2H2CHCH2CFeC5H2SH4CH3C5SNC8H15CNH3NC7H8C3H2NCH3SH5C2HCHC2HNH3CHCH4NC2H3FeH3CH2C2H4C2H2SCS2H2CHCH4SCH2CHSH2CH2CH2C2HCHSHFeH3CHC2SCH7NH2CHFeHCSHS2HCH9C2H3CH3CHCSH2CHCH6CFeCHCH2SCH3C2H4CSH4CH2CH2CH2CHC2H2SH4CHCH2CSFeS2FeSHFeS4FeHSCHSHCSCFeS2FeC2FeHFeS3FeS2FeSFeSFeSFeS2FeS2FeSFeS3H2FeHCH2SCFeHSCH3SH2SHCH8CSC6H4C3HNC6H5C6H4NC3HCH2C6H8C5H3C7H4CHC5NH4C4H3C7H5C2NC3H3CFeSH5C2SHCH4SH4CHCH2SC2H3CHCH6NC8H21FeHCH2CH9CFeC2HCH5SH3SH2CH3FeH6CH2C2H7C4H2NC4HCNHC2SH3C2FeCH4SCH8CH2CH3C2H2CHC2HCHCHCH3NCH4C2HSH2CHC4HCH2C2HNSHCHCHC2H2FeHCHCH6CH2NC3HCHCH8CH5CH2CH2CNH2CSH7SCH3CSH4SHC2HSCHCHC2H2C2NH2CH2CH2C4SCNCH2NHC3SC3HCH7CH13CH5C2H2S2H2CHCHCH6N2HCHCHSCHCHFeHSH2S2HCS2CH2SH5SH2CH3C2H3CHSH2FeS2FeS2FeSFeS3FeSFeS2FeS2FeS2FeS2FeSFeS3CFe2CSC2HSFeS2Fe2S2CH4SH3SH2C3H3C2SHFeHSHC2SC2HCHC4H4CH2CNHSH2SCH3C6H3CHCHC6H3C6H4C6H4C6H4C6H4CHCH5SHC6H2CH3CH4CH2SH3C4SH3NH2CHFeHFeHC6H4C6H4SH4C2HCH4CHCNH2SH5C2NC4H2C2HCH3NCHCHCHCH5FeH2NH3CNCH7NH3CH5FeH3CH8NC8H20FeHFeHCFeNCHC2HSC2H5CH6NCSHCH2C2HFeSHC2H2C2H2FeH3CHCNC8H20NC8H8CH13FeHCHC3HC2H5C2H3C2H2CHC3H2C2H2C2H2NH2SH2CHNH10CH2CHCH2CH5CHCH3C2H2CHC3H5CH2SCH3CH2SHFeH8SHC2HCH2C2NCHCH2FeSH4C2HFeHCH3FeS2HCHCH2FeS2FeSCHFeS2FeCSC3HFeCSH2C2FeSFeS2FeS2HFeHS2H2CHC2FeCH2CHCH2S2C7H4C6H4CH3CH5CHC2FeC3SCH3C2SHFeH2FeH2CHFeCH2SCH2CHC2HSC2H3SC2S2H3C2H6CH2CHCH5CHCH5CH3CHFeH4CHCFe2C2HCH3SH4CHC2H7SC2H2CH5FeH3C2H2SNCHNH2SHC2H3NC4H12SNC2H2C2HCHSHC3H2SC4H2CHCHC3HC2S2CH2FeC2HCH3CHS2HCHSH4CH4NHCH4NH2CHC2H2C2HCHSH2CH3SHCNHSH2CHNC8H8SH12CHCH2C2H2CHCH2C3H4CH3CH5CHCH2C5HS2C2SCHCFeNFeHC3H2CH2SCH3FeHCH3CH2SCH3SH9CH3CH2CH5CH6SHCSCH5FeHC2H4CNH2SHC2H3C2H2SHSHSHFeSFeSH2C2HCHFeS2FeS2FeSFeS3FeS2FeS2Fe2S3HCH2CHSH2SFeH3FeHFeS2HFeSCSHSHSH2C2SHC2H7C2HCH5CHCHC3H3FeHCH6C6H6CHCH2NHC3H5FeHC6H2NHC6H4C6H4NH2CHSH5C2H4C2HC3H5SHC4H4C7H5CHC3H2CHSH2SH2C3H6CFeCH2C2HC2H3C3HNH2FeSHFeH6SHCHC2HNCH2C4SC2FeHCH5C2HSCHNC5HC3H2CH7CH2CH5NHC3HCHCH2C2FeH3CNHCHSH2CH4CH4SH2CH2C2SH2CH2CH2C2SH4CH2FeH2CH3SCHCFeSHSNHC3HC5HC2H2CHSCHCH8CH2CHC2H2CH4CFeHSH6NC4HC3H11CHCH6NC4HCH6C2H4C2H3SHSH2C2H4FeHSHFeH2CHNHCH2CHCH5SHCH3CH8CH5NHNCFeS2FeS2FeCFeS4HCHSCH2CHSHSCSHSFeSCH2CSHFeH2CHFeSH2SFeSFeS2C2SHCHC6H6C2HCHCFeHCHC6H2C4SH2C2H2CH2C6H4C6HSH4FeC2H4C2HFeH3FeCH4FeHC2HSH2FeC2H5C2HCH5FeH6C2FeH2CHSHSH4CFeHCS2C2H2NHNC4H2C3H2CH7NH2CHCH7CH2FeHCH3C2FeHC2H7FeH3SHSH2CH2SHSC5SNC4HCFeCH11SH2NH5FeH2FeHCHFeH2NC4HCHCH2CHCH4CHSHCH3CH2NC8H10NH5CFeH2NH2C2H2C3H7SH12SHSH2SHC2HFeHC2H2CH3CHC3HC2HSCH2C2HSNC3HC2SCH4CHCH8CSH3NC8H4CHCH3C3FeH5SHCHSHCHSCH2CHCH3CHS2C2HCH2SCHNH4SCSC3H9SH4NH2CH6CH2CHCFeC2SHC3H2CHCH3CH2CH3CH4CH2NH2CH2SH3C2SHC3H4NCH2CHSHCHCHCH5CH5CHSH2CH2FeSHCSH3FeSCS2FeSHSHFeS2FeSFeS3FeS2FeS2FeSFeHS2FeS2HCHSFeS3H3SCFeSNH3SH6CH3CH2CHCSHSHC2H2SC2H3CH2CH3CH3CH3CH2CHSCH2C6H4CH7CHFeH3C6H4C6H3S2HC6H3C8H4C2H2C2HFeH2CFeCHSH2CHNH2SCHSC2HSH2SHCHC2HNH3CHCH2CHSCH8CH4CFeCH2CHCHCHC2HCH2NC7H2CH14C2H4C2H4CH3CFeHFeC2HFeH3NHCHCHNSH2CHCHC3H2SCH5C2HCNC8H13NH10C2H4CH5FeH3FeC2H13CH3CNC4HC3H5CFeCHC2HC2HCN2C8H20CH3C2HC2H4CHC4H4SH4CH6CSHCH2CH3CH2CHNH5CH2CHSC2H2SC3H4CHSCHCH4CHC2HCNSHNC2HC2H2C2H2C2H2FeH4CHC3HSCFeS2FeSFeSHSCHCHC2H3C2FeS2FeS2FeSFeS4FeSH3FeH2NHCH2NSCSFeS2FeS2FeSFe2S2H5C2H3SH3NCH2C5HC6H4CHCHCHCH8C7H4C2FeCH4C8H4C6H7CH2CH3FeCH2CH4NCHSC7HCH4C2HCHCH2C2H3CHCH3CHC2H8C2H2SHCH3CHCHCHCH3CHCHCHSC2FeCH2CH3SH2CH2CSH3CNC3HCHCH3NH3C2H9FeHCH2SHCFeCH2CH4CH3C2HCH3CH2CH5SHCH2C3H2CH5NCHCH2CHC2HC2H2CHCH7CH2C2HCH2SH2C2H3SC2H3CH2SC2HC2HC2H2CSCHCH5CH2C3HCH2NHCH2SHFeHSH3C2H5C2SNHCHCFeCHSFeHNSHC2H3CHSC2H4SHC2HFeCHNHSHCH2FeCH4CH2C2HCH3CH4C4HFeHCH3CH5N2H7SH4CHC2H4CH3CHC2HSH3C2HCH2CSH4CH2S2H6CH
_chemical_formula_sum              "Fe544 H6528 S1088 C3808 N272"
_cell_length_a       76.3121
_cell_length_b       76.6445
_cell_length_c       76.6357
_cell_angle_alpha    75.4424
_cell_angle_beta     75.4246
_cell_angle_gamma    75.6054

_space_group_name_H-M_alt    "P 1"
_space_group_IT_number       1

loop_
  _space_group_symop_operation_xyz
  'x, y, z'

loop_
  _atom_site_type_symbol
  _atom_site_label
  _atom_site_symmetry_multiplicity
  _atom_site_fract_x
  _atom_site_fract_y
  _atom_site_fract_z
  _atom_site_occupancy
  Fe  Fe1       1.0  0.07007  0.42260  0.02200  1.0000
  H   H1        1.0  0.15883  0.97819  0.05756  1.0000
  S   S1        1.0  0.06684  0.40028  0.00917  1.0000
  Fe  Fe2       1.0  0.08723  0.42752  0.05206  1.0000
  H   H2        1.0  0.10524  0.98521  0.17328  1.0000
  S   S2        1.0  0.10116  0.41444  0.07622  1.0000
  S   S3        1.0  0.14712  0.03786  0.97999  1.0000
  H   H3        1.0  0.07353  0.04058  0.44060  1.0000
  H   H4        1.0  0.05273  0.00329  0.01153  1.0000
  S   S4        1.0  0.06003  0.42116  0.05238  1.0000
  S   S5        1.0  0.09840  0.42617  0.02231  1.0000
  C   C1        1.0  0.13864  0.99934  0.04542  1.0000
  C   C2        1.0  0.05189  0.40546  0.99352  1.0000
  H   H5        1.0  0.13596  0.41089  0.31338  1.0000
  C   C3        1.0  0.03175  0.45632  0.35378  1.0000
  H   H6        1.0  0.09983  0.43756  0.34511  1.0000
  C   C4        1.0  0.02321  0.46147  0.46681  1.0000
  H   H7        1.0  0.04253  0.07554  0.37574  1.0000
  H   H8        1.0  0.04358  0.43428  0.99413  1.0000
  H   H9        1.0  0.99855  0.99143  0.01103  1.0000
  H   H10       1.0  0.05747  0.37752  0.98973  1.0000
  H   H11       1.0  0.13237  0.13025  0.40874  1.0000
  S   S6        1.0  0.98671  0.19589  0.36825  1.0000
  H   H12       1.0  0.02452  0.41090  0.34546  1.0000
  Fe  Fe3       1.0  0.00217  0.00515  0.30638  1.0000
  S   S7        1.0  0.01697  0.02444  0.28390  1.0000
  C   C5        1.0  0.00617  0.97835  0.01783  1.0000
  Fe  Fe4       1.0  0.03317  0.02482  0.30452  1.0000
  S   S8        1.0  0.03901  0.05264  0.30389  1.0000
  S   S9        1.0  0.01636  0.00770  0.32777  1.0000
  H   H13       1.0  0.09403  0.07776  0.44032  1.0000
  C   C6        1.0  0.16267  0.15085  0.37254  1.0000
  H   H14       1.0  0.00055  0.44607  0.25263  1.0000
  H   H15       1.0  0.01591  0.33593  0.36025  1.0000
  C   C7        1.0  0.17051  0.07891  0.99913  1.0000
  H   H16       1.0  0.05110  0.41043  0.09578  1.0000
  C   C8        1.0  0.99432  0.33648  0.32087  1.0000
  H   H17       1.0  0.15840  0.99481  0.10036  1.0000
  C   C9        1.0  0.07448  0.38008  0.34661  1.0000
  C   C10       1.0  0.01849  0.41948  0.45004  1.0000
  H   H18       1.0  0.04403  0.11963  0.29795  1.0000
  H   H19       1.0  0.12335  0.99733  0.13618  1.0000
  Fe  Fe5       1.0  0.09057  0.09386  0.35134  1.0000
  S   S10       1.0  0.06809  0.11498  0.36368  1.0000
  S   S11       1.0  0.08528  0.06515  0.35591  1.0000
  Fe  Fe6       1.0  0.11857  0.11934  0.33969  1.0000
  S   S12       1.0  0.09816  0.14245  0.35096  1.0000
  Fe  Fe7       1.0  0.09000  0.12050  0.37518  1.0000
  S   S13       1.0  0.08369  0.12578  0.40402  1.0000
  Fe  Fe8       1.0  0.07827  0.13483  0.33838  1.0000
  S   S14       1.0  0.05935  0.15615  0.32180  1.0000
  S   S15       1.0  0.11178  0.09780  0.36484  1.0000
  S   S16       1.0  0.09934  0.11327  0.32499  1.0000
  H   H20       1.0  0.06707  0.38772  0.35770  1.0000
  H   H21       1.0  0.09739  0.37985  0.32357  1.0000
  H   H22       1.0  0.09216  0.40946  0.35471  1.0000
  H   H23       1.0  0.12357  0.01604  0.10442  1.0000
  H   H24       1.0  0.15160  0.99033  0.17288  1.0000
  C   C11       1.0  0.08322  0.06887  0.41092  1.0000
  S   S17       1.0  0.99132  0.35888  0.32460  1.0000
  H   H25       1.0  0.00437  0.46827  0.21603  1.0000
  C   C12       1.0  0.05039  0.39149  0.98543  1.0000
  S   S18       1.0  0.14045  0.08085  0.45444  1.0000
  Fe  Fe9       1.0  0.02522  0.39867  0.27074  1.0000
  H   H26       1.0  0.10674  0.06321  0.46769  1.0000
  S   S19       1.0  0.02369  0.40555  0.24071  1.0000
  Fe  Fe10      1.0  0.05247  0.38014  0.29584  1.0000
  S   S20       1.0  0.03134  0.38470  0.32148  1.0000
  S   S21       1.0  0.08103  0.36414  0.29870  1.0000
  Fe  Fe11      1.0  0.01235  0.37621  0.30844  1.0000
  H   H27       1.0  0.10726  0.10883  0.46117  1.0000
  Fe  Fe12      1.0  0.02290  0.41293  0.30502  1.0000
  S   S22       1.0  0.03415  0.36925  0.28416  1.0000
  S   S23       1.0  0.04550  0.40901  0.28030  1.0000
  H   H28       1.0  0.17585  0.45163  0.34985  1.0000
  C   C13       1.0  0.05177  0.46442  0.09753  1.0000
  H   H29       1.0  0.10786  0.40699  0.98971  1.0000
  H   H30       1.0  0.03034  0.09471  0.31723  1.0000
  C   C14       1.0  0.05266  0.97736  0.24117  1.0000
  S   S24       1.0  0.15037  0.40159  0.26478  1.0000
  Fe  Fe13      1.0  0.17733  0.38240  0.26872  1.0000
  H   H31       1.0  0.18401  0.15002  0.22936  1.0000
  S   S25       1.0  0.14889  0.11970  0.32821  1.0000
  Fe  Fe14      1.0  0.05075  0.45168  0.04451  1.0000
  C   C15       1.0  0.04268  0.42345  0.98792  1.0000
  S   S26       1.0  0.17940  0.19083  0.32317  1.0000
  H   H32       1.0  0.14348  0.02157  0.43619  1.0000
  S   S27       1.0  0.04388  0.43929  0.38596  1.0000
  H   H33       1.0  0.15645  0.99709  0.13375  1.0000
  H   H34       1.0  0.03869  0.42829  0.42503  1.0000
  H   H35       1.0  0.05940  0.46796  0.10619  1.0000
  C   C16       1.0  0.11320  0.39948  0.97824  1.0000
  C   C17       1.0  0.10038  0.37408  0.28736  1.0000
  C   C18       1.0  0.09864  0.39155  0.27592  1.0000
  C   C19       1.0  0.11417  0.39978  0.26855  1.0000
  C   C20       1.0  0.13146  0.39051  0.27253  1.0000
  C   C21       1.0  0.13333  0.37273  0.28326  1.0000
  C   C22       1.0  0.11782  0.36457  0.29069  1.0000
  H   H36       1.0  0.08532  0.39888  0.27305  1.0000
  H   H37       1.0  0.11270  0.41349  0.26013  1.0000
  H   H38       1.0  0.14665  0.36539  0.28624  1.0000
  H   H39       1.0  0.11929  0.35099  0.29940  1.0000
  H   H40       1.0  0.00938  0.41100  0.09900  1.0000
  Fe  Fe15      1.0  0.03792  0.99917  0.27818  1.0000
  H   H41       1.0  0.03303  0.99420  0.02618  1.0000
  H   H42       1.0  0.03357  0.40573  0.42705  1.0000
  N   N1        1.0  0.15170  0.36511  0.21538  1.0000
  H   H43       1.0  0.01156  0.45506  0.43780  1.0000
  H   H44       1.0  0.07871  0.36545  0.35319  1.0000
  C   C23       1.0  0.00835  0.99398  0.97427  1.0000
  C   C24       1.0  0.11704  0.99004  0.22213  1.0000
  H   H45       1.0  0.02334  0.46889  0.32787  1.0000
  C   C25       1.0  0.05536  0.97735  0.22238  1.0000
  H   H46       1.0  0.15283  0.12319  0.28072  1.0000
  S   S28       1.0  0.05529  0.00084  0.29718  1.0000
  C   C26       1.0  0.12314  0.35919  0.24078  1.0000
  H   H47       1.0  0.07746  0.46375  0.97470  1.0000
  C   C27       1.0  0.02348  0.43982  0.33465  1.0000
  C   C28       1.0  0.03519  0.43997  0.36660  1.0000
  H   H48       1.0  0.99628  0.40400  0.44190  1.0000
  C   C29       1.0  0.09183  0.38744  0.33508  1.0000
  H   H49       1.0  0.06366  0.44288  0.31664  1.0000
  H   H50       1.0  0.13032  0.15769  0.32917  1.0000
  C   C30       1.0  0.09970  0.11377  0.41795  1.0000
  C   C31       1.0  0.09691  0.11655  0.43593  1.0000
  C   C32       1.0  0.10951  0.10673  0.44727  1.0000
  C   C33       1.0  0.12485  0.09406  0.44061  1.0000
  C   C34       1.0  0.12773  0.09148  0.42261  1.0000
  C   C35       1.0  0.11521  0.10134  0.41133  1.0000
  H   H51       1.0  0.08495  0.12624  0.44113  1.0000
  H   H52       1.0  0.14272  0.36051  0.17928  1.0000
  H   H53       1.0  0.11764  0.09926  0.39753  1.0000
  C   C36       1.0  0.06961  0.43338  0.30693  1.0000
  C   C37       1.0  0.01296  0.30974  0.30891  1.0000
  C   C38       1.0  0.01092  0.32787  0.31110  1.0000
  H   H54       1.0  0.08626  0.07281  0.39564  1.0000
  H   H55       1.0  0.01819  0.07971  0.37736  1.0000
  H   H56       1.0  0.04703  0.09757  0.34656  1.0000
  H   H57       1.0  0.02580  0.30315  0.30129  1.0000
  H   H58       1.0  0.02225  0.33504  0.30542  1.0000
  H   H59       1.0  0.01690  0.31599  0.37821  1.0000
  C   C39       1.0  0.16641  0.11385  0.41703  1.0000
  C   C40       1.0  0.15170  0.98426  0.13701  1.0000
  H   H60       1.0  0.13964  0.08176  0.41740  1.0000
  H   H61       1.0  0.12030  0.46395  0.06224  1.0000
  C   C41       1.0  0.00595  0.18393  0.35505  1.0000
  C   C42       1.0  0.01836  0.17005  0.36406  1.0000
  C   C43       1.0  0.03482  0.16148  0.35392  1.0000
  C   C44       1.0  0.03868  0.16642  0.33472  1.0000
  C   C45       1.0  0.02599  0.17988  0.32567  1.0000
  C   C46       1.0  0.00967  0.18870  0.33583  1.0000
  H   H62       1.0  0.01556  0.16640  0.37894  1.0000
  H   H63       1.0  0.04461  0.15128  0.36103  1.0000
  H   H64       1.0  0.02889  0.18364  0.31079  1.0000
  S   S29       1.0  0.00149  0.27730  0.31405  1.0000
  C   C47       1.0  0.05419  0.05433  0.31707  1.0000
  C   C48       1.0  0.06258  0.06972  0.31203  1.0000
  C   C49       1.0  0.07282  0.07278  0.32348  1.0000
  C   C50       1.0  0.07472  0.06042  0.34009  1.0000
  C   C51       1.0  0.06702  0.04462  0.34476  1.0000
  C   C52       1.0  0.05676  0.04156  0.33328  1.0000
  H   H65       1.0  0.06082  0.07951  0.29938  1.0000
  H   H66       1.0  0.07887  0.08488  0.31967  1.0000
  H   H67       1.0  0.06854  0.03496  0.35753  1.0000
  H   H68       1.0  0.05038  0.02964  0.33724  1.0000
  C   C53       1.0  0.04330  0.44309  0.13543  1.0000
  C   C54       1.0  0.13183  0.36303  0.22004  1.0000
  S   S30       1.0  0.00193  0.40500  0.29413  1.0000
  H   H69       1.0  0.98516  0.28261  0.37608  1.0000
  H   H70       1.0  0.02269  0.42680  0.45866  1.0000
  H   H71       1.0  0.16745  0.35762  0.17098  1.0000
  H   H72       1.0  0.10589  0.04599  0.40931  1.0000
  Fe  Fe16      1.0  0.04541  0.46654  0.39116  1.0000
  C   C55       1.0  0.00377  0.44826  0.43192  1.0000
  H   H73       1.0  0.16353  0.18524  0.27188  1.0000
  H   H74       1.0  0.01676  0.40579  0.45879  1.0000
  H   H75       1.0  0.04757  0.40893  0.44079  1.0000
  H   H76       1.0  0.99538  0.09735  0.36303  1.0000
  H   H77       1.0  0.17432  0.06572  0.99434  1.0000
  H   H78       1.0  0.17329  0.99943  0.07867  1.0000
  H   H79       1.0  0.99616  0.45592  0.27235  1.0000
  H   H80       1.0  0.01419  0.43986  0.14336  1.0000
  C   C56       1.0  0.00132  0.09775  0.34813  1.0000
  C   C57       1.0  0.07379  0.41328  0.31719  1.0000
  C   C58       1.0  0.00644  0.42586  0.09661  1.0000
  H   H81       1.0  0.99687  0.37337  0.26599  1.0000
  C   C59       1.0  0.02659  0.42354  0.34768  1.0000
  C   C60       1.0  0.13097  0.98643  0.08817  1.0000
  H   H82       1.0  0.03492  0.41097  0.37360  1.0000
  C   C61       1.0  0.02581  0.45625  0.33787  1.0000
  H   H83       1.0  0.06495  0.38026  0.33773  1.0000
  H   H84       1.0  0.07661  0.40445  0.30688  1.0000
  H   H85       1.0  0.10960  0.40489  0.30305  1.0000
  H   H86       1.0  0.10226  0.38277  0.34400  1.0000
  H   H87       1.0  0.04069  0.39360  0.11307  1.0000
  C   C62       1.0  0.03236  0.42364  0.36365  1.0000
  H   H88       1.0  0.09633  0.98052  0.24670  1.0000
  H   H89       1.0  0.13281  0.03041  0.41674  1.0000
  C   C63       1.0  0.08746  0.43738  0.34006  1.0000
  C   C64       1.0  0.10095  0.05713  0.41736  1.0000
  H   H90       1.0  0.12112  0.00359  0.21607  1.0000
  H   H91       1.0  0.02802  0.97565  0.37873  1.0000
  H   H92       1.0  0.17196  0.09910  0.36437  1.0000
  H   H93       1.0  0.98720  0.00698  0.27413  1.0000
  C   C65       1.0  0.15196  0.17228  0.32659  1.0000
  C   C66       1.0  0.13763  0.14207  0.39891  1.0000
  H   H94       1.0  0.18071  0.40853  0.19153  1.0000
  C   C67       1.0  0.12424  0.41668  0.07245  1.0000
  C   C68       1.0  0.13350  0.42364  0.05484  1.0000
  C   C69       1.0  0.15205  0.42496  0.05189  1.0000
  C   C70       1.0  0.16138  0.41955  0.06655  1.0000
  C   C71       1.0  0.15213  0.41272  0.08423  1.0000
  C   C72       1.0  0.13356  0.41122  0.08715  1.0000
  H   H95       1.0  0.12641  0.42783  0.04344  1.0000
  H   H96       1.0  0.15922  0.43005  0.03815  1.0000
  S   S31       1.0  0.02382  0.46780  0.05752  1.0000
  H   H97       1.0  0.12644  0.40579  0.10080  1.0000
  H   H98       1.0  0.10127  0.01024  0.19549  1.0000
  C   C73       1.0  0.01461  0.43596  0.07994  1.0000
  H   H99       1.0  0.08484  0.99766  0.20928  1.0000
  C   C74       1.0  0.17463  0.03044  0.02028  1.0000
  H   H100      1.0  0.18054  0.10333  0.99644  1.0000
  H   H101      1.0  0.02342  0.42889  0.06944  1.0000
  C   C75       1.0  0.13891  0.99505  0.18275  1.0000
  C   C76       1.0  0.09345  0.99261  0.18200  1.0000
  C   C77       1.0  0.11842  0.04199  0.44145  1.0000
  H   H102      1.0  0.08196  0.98502  0.18593  1.0000
  H   H103      1.0  0.03684  0.44396  0.09866  1.0000
  H   H104      1.0  0.06946  0.41778  0.35070  1.0000
  C   C78       1.0  0.08418  0.41749  0.34394  1.0000
  H   H105      1.0  0.08024  0.44884  0.12630  1.0000
  H   H106      1.0  0.06050  0.41082  0.32644  1.0000
  C   C79       1.0  0.08788  0.03451  0.44262  1.0000
  C   C80       1.0  0.98572  0.41521  0.24843  1.0000
  H   H107      1.0  0.12639  0.05326  0.43723  1.0000
  H   H108      1.0  0.16100  0.18048  0.36656  1.0000
  N   N2        1.0  0.03495  0.98529  0.99225  1.0000
  C   C81       1.0  0.12262  0.15176  0.38753  1.0000
  C   C82       1.0  0.15698  0.13960  0.32715  1.0000
  N   N3        1.0  0.08916  0.40798  0.32781  1.0000
  H   H109      1.0  0.99046  0.10710  0.34094  1.0000
  C   C83       1.0  0.10694  0.41170  0.31490  1.0000
  H   H110      1.0  0.10629  0.42643  0.30858  1.0000
  H   H111      1.0  0.05490  0.99021  0.21248  1.0000
  H   H112      1.0  0.02818  0.12838  0.34630  1.0000
  H   H113      1.0  0.00582  0.33859  0.38327  1.0000
  S   S32       1.0  0.05887  0.45284  0.01404  1.0000
  H   H114      1.0  0.14263  0.18542  0.32711  1.0000
  H   H115      1.0  0.03396  0.13466  0.31378  1.0000
  H   H116      1.0  0.08291  0.42931  0.98217  1.0000
  C   C84       1.0  0.14496  0.15658  0.32789  1.0000
  H   H117      1.0  0.01707  0.99751  0.21484  1.0000
  H   H118      1.0  0.15965  0.13622  0.25819  1.0000
  H   H119      1.0  0.12320  0.01397  0.43619  1.0000
  H   H120      1.0  0.98660  0.41339  0.26261  1.0000
  H   H121      1.0  0.02342  0.34529  0.26485  1.0000
  H   H122      1.0  0.07566  0.44570  0.34819  1.0000
  C   C85       1.0  0.13905  0.01681  0.07565  1.0000
  H   H123      1.0  0.12295  0.37542  0.21329  1.0000
  C   C86       1.0  0.17278  0.35766  0.05733  1.0000
  C   C87       1.0  0.98708  0.43435  0.46167  1.0000
  C   C88       1.0  0.08946  0.06475  0.44797  1.0000
  C   C89       1.0  0.12989  0.02609  0.43194  1.0000
  H   H124      1.0  0.99998  0.19918  0.32882  1.0000
  H   H125      1.0  0.16610  0.16396  0.28831  1.0000
  C   C90       1.0  0.13314  0.02389  0.09385  1.0000
  C   C91       1.0  0.00804  0.32935  0.37355  1.0000
  C   C92       1.0  0.09810  0.99619  0.19910  1.0000
  C   C93       1.0  0.15628  0.35701  0.18351  1.0000
  H   H126      1.0  0.10597  0.99878  0.24838  1.0000
  H   H127      1.0  0.08866  0.44481  0.32561  1.0000
  S   S33       1.0  0.05181  0.46546  0.41845  1.0000
  H   H128      1.0  0.98633  0.13753  0.35060  1.0000
  C   C94       1.0  0.08588  0.02300  0.46240  1.0000
  H   H129      1.0  0.14415  0.99344  0.03281  1.0000
  H   H130      1.0  0.15142  0.14718  0.27779  1.0000
  C   C95       1.0  0.15307  0.99289  0.05781  1.0000
  H   H131      1.0  0.00299  0.00782  0.97759  1.0000
  H   H132      1.0  0.98545  0.38257  0.23808  1.0000
  C   C96       1.0  0.17256  0.03805  0.03573  1.0000
  C   C97       1.0  0.00608  0.97628  0.23642  1.0000
  H   H133      1.0  0.99007  0.31739  0.27609  1.0000
  H   H134      1.0  0.15342  0.38442  0.05459  1.0000
  H   H135      1.0  0.08166  0.43769  0.29673  1.0000
  H   H136      1.0  0.08912  0.00378  0.23455  1.0000
  H   H137      1.0  0.11745  0.99445  0.08492  1.0000
  C   C98       1.0  0.12439  0.40517  0.32331  1.0000
  H   H138      1.0  0.12885  0.38998  0.32554  1.0000
  H   H139      1.0  0.08664  0.44603  0.10238  1.0000
  H   H140      1.0  0.12928  0.00492  0.17449  1.0000
  N   N4        1.0  0.04604  0.22516  0.33746  1.0000
  C   C99       1.0  0.03921  0.24541  0.33731  1.0000
  C   C100      1.0  0.03233  0.21495  0.35142  1.0000
  C   C101      1.0  0.04758  0.22087  0.31891  1.0000
  C   C102      1.0  0.06488  0.21931  0.34228  1.0000
  C   C103      1.0  0.05039  0.25849  0.32255  1.0000
  C   C104      1.0  0.03187  0.21421  0.37181  1.0000
  C   C105      1.0  0.03025  0.22845  0.31035  1.0000
  C   C106      1.0  0.07380  0.19866  0.34353  1.0000
  H   H141      1.0  0.02458  0.24974  0.33565  1.0000
  H   H142      1.0  0.03906  0.24850  0.35076  1.0000
  H   H143      1.0  0.03476  0.20058  0.34973  1.0000
  H   H144      1.0  0.01800  0.22098  0.34925  1.0000
  H   H145      1.0  0.05939  0.22594  0.30873  1.0000
  H   H146      1.0  0.05086  0.20570  0.31975  1.0000
  H   H147      1.0  0.07487  0.22675  0.33169  1.0000
  H   H148      1.0  0.06502  0.22347  0.35515  1.0000
  H   H149      1.0  0.05137  0.25683  0.30837  1.0000
  H   H150      1.0  0.04317  0.27290  0.32318  1.0000
  H   H151      1.0  0.06441  0.25701  0.32510  1.0000
  H   H152      1.0  0.02057  0.20715  0.38043  1.0000
  H   H153      1.0  0.04485  0.20604  0.37604  1.0000
  H   H154      1.0  0.02883  0.22809  0.37503  1.0000
  H   H155      1.0  0.02775  0.24363  0.30600  1.0000
  H   H156      1.0  0.01769  0.22441  0.31975  1.0000
  H   H157      1.0  0.03231  0.22281  0.29782  1.0000
  H   H158      1.0  0.08171  0.19594  0.32985  1.0000
  H   H159      1.0  0.06378  0.18939  0.34886  1.0000
  H   H160      1.0  0.08330  0.19446  0.35337  1.0000
  C   C107      1.0  0.15585  0.12002  0.37976  1.0000
  H   H161      1.0  0.01282  0.41258  0.20617  1.0000
  C   C108      1.0  0.02236  0.45083  0.13708  1.0000
  H   H162      1.0  0.98628  0.25046  0.42525  1.0000
  C   C109      1.0  0.17100  0.17109  0.32445  1.0000
  H   H163      1.0  0.09301  0.02482  0.43295  1.0000
  H   H164      1.0  0.18300  0.46301  0.05985  1.0000
  C   C110      1.0  0.99090  0.45413  0.10701  1.0000
  C   C111      1.0  0.01144  0.45514  0.07698  1.0000
  H   H165      1.0  0.14322  0.00213  0.19144  1.0000
  H   H166      1.0  0.14766  0.12506  0.36869  1.0000
  H   H167      1.0  0.14381  0.36598  0.06989  1.0000
  H   H168      1.0  0.01228  0.98170  0.39877  1.0000
  C   C112      1.0  0.03050  0.08609  0.37177  1.0000
  H   H169      1.0  0.16490  0.99982  0.05061  1.0000
  H   H170      1.0  0.07181  0.06124  0.41475  1.0000
  H   H171      1.0  0.06397  0.39446  0.11220  1.0000
  H   H172      1.0  0.16101  0.04910  0.03868  1.0000
  H   H173      1.0  0.01191  0.06762  0.35270  1.0000
  H   H174      1.0  0.12742  0.40145  0.97151  1.0000
  C   C113      1.0  0.18442  0.34477  0.21451  1.0000
  N   N5        1.0  0.05231  0.43256  0.12020  1.0000
  C   C114      1.0  0.04290  0.41642  0.12393  1.0000
  H   H175      1.0  0.14515  0.40535  0.20478  1.0000
  C   C115      1.0  0.07230  0.42486  0.12128  1.0000
  C   C116      1.0  0.01529  0.12297  0.34891  1.0000
  H   H176      1.0  0.17674  0.14608  0.36476  1.0000
  H   H177      1.0  0.01868  0.45809  0.12368  1.0000
  H   H178      1.0  0.99288  0.45920  0.19352  1.0000
  C   C117      1.0  0.03953  0.12004  0.31282  1.0000
  H   H179      1.0  0.04343  0.40806  0.13804  1.0000
  H   H180      1.0  0.02799  0.42124  0.12358  1.0000
  H   H181      1.0  0.03390  0.46898  0.35597  1.0000
  H   H182      1.0  0.07428  0.06761  0.44868  1.0000
  H   H183      1.0  0.07343  0.41616  0.13515  1.0000
  H   H184      1.0  0.07891  0.41566  0.11138  1.0000
  H   H185      1.0  0.06094  0.43750  0.09045  1.0000
  C   C118      1.0  0.03528  0.41559  0.43456  1.0000
  H   H186      1.0  0.05895  0.46845  0.08306  1.0000
  C   C119      1.0  0.99922  0.46424  0.09036  1.0000
  H   H187      1.0  0.00007  0.98393  0.98339  1.0000
  H   H188      1.0  0.99013  0.45185  0.22667  1.0000
  H   H189      1.0  0.00321  0.15196  0.34070  1.0000
  H   H190      1.0  0.06058  0.97595  0.00235  1.0000
  H   H191      1.0  0.15312  0.17193  0.39016  1.0000
  H   H192      1.0  0.00220  0.27238  0.38977  1.0000
  S   S34       1.0  0.04920  0.99831  0.24805  1.0000
  H   H193      1.0  0.01378  0.41842  0.40948  1.0000
  H   H194      1.0  0.99153  0.36087  0.23178  1.0000
  C   C120      1.0  0.03421  0.09189  0.35060  1.0000
  H   H195      1.0  0.13794  0.15128  0.40790  1.0000
  H   H196      1.0  0.08911  0.00596  0.17287  1.0000
  H   H197      1.0  0.05879  0.43482  0.29902  1.0000
  C   C121      1.0  0.03269  0.42757  0.97379  1.0000
  H   H198      1.0  0.15356  0.11790  0.42698  1.0000
  C   C122      1.0  0.10106  0.99332  0.23873  1.0000
  C   C123      1.0  0.13070  0.97818  0.19404  1.0000
  Fe  Fe17      1.0  0.08629  0.45644  0.01684  1.0000
  H   H199      1.0  0.12194  0.37101  0.24714  1.0000
  C   C124      1.0  0.00700  0.98851  0.21699  1.0000
  C   C125      1.0  0.05565  0.97857  0.98926  1.0000
  S   S35       1.0  0.18439  0.02227  0.11894  1.0000
  H   H200      1.0  0.01076  0.33563  0.25428  1.0000
  C   C126      1.0  0.00179  0.41241  0.23499  1.0000
  H   H201      1.0  0.16864  0.38157  0.22014  1.0000
  C   C127      1.0  0.99283  0.41890  0.43567  1.0000
  C   C128      1.0  0.17599  0.13842  0.32514  1.0000
  H   H202      1.0  0.01278  0.11426  0.31477  1.0000
  H   H203      1.0  0.04987  0.45478  0.13427  1.0000
  H   H204      1.0  0.12247  0.40985  0.33634  1.0000
  H   H205      1.0  0.15402  0.15461  0.36199  1.0000
  C   C129      1.0  0.05033  0.40315  0.11033  1.0000
  H   H206      1.0  0.01267  0.44638  0.41837  1.0000
  H   H207      1.0  0.17140  0.37402  0.19059  1.0000
  H   H208      1.0  0.13092  0.46347  0.03835  1.0000
  C   C130      1.0  0.98608  0.46232  0.42814  1.0000
  C   C131      1.0  0.15413  0.37968  0.22414  1.0000
  C   C132      1.0  0.15733  0.37072  0.19478  1.0000
  H   H209      1.0  0.15870  0.08727  0.99281  1.0000
  H   H210      1.0  0.02936  0.09770  0.37844  1.0000
  H   H211      1.0  0.03778  0.47334  0.09836  1.0000
  H   H212      1.0  0.14527  0.02395  0.09934  1.0000
  H   H213      1.0  0.03788  0.01375  0.98507  1.0000
  C   C133      1.0  0.13298  0.98438  0.13840  1.0000
  H   H214      1.0  0.00825  0.07791  0.32958  1.0000
  H   H215      1.0  0.17764  0.12991  0.29168  1.0000
  C   C134      1.0  0.01252  0.34873  0.25660  1.0000
  H   H216      1.0  0.99347  0.99778  0.21560  1.0000
  C   C135      1.0  0.99461  0.35929  0.26696  1.0000
  H   H217      1.0  0.05204  0.11499  0.31890  1.0000
  H   H218      1.0  0.08424  0.47089  0.46239  1.0000
  H   H219      1.0  0.02877  0.97577  0.43204  1.0000
  H   H220      1.0  0.99820  0.30053  0.40146  1.0000
  H   H221      1.0  0.12575  0.03844  0.09112  1.0000
  C   C136      1.0  0.02474  0.10812  0.32165  1.0000
  H   H222      1.0  0.17786  0.10997  0.42467  1.0000
  H   H223      1.0  0.99335  0.31950  0.35881  1.0000
  H   H224      1.0  0.15927  0.40853  0.09560  1.0000
  H   H225      1.0  0.01079  0.12068  0.36413  1.0000
  C   C137      1.0  0.17017  0.12985  0.40064  1.0000
  N   N6        1.0  0.14631  0.99636  0.07715  1.0000
  S   S36       1.0  0.01707  0.43998  0.31409  1.0000
  C   C138      1.0  0.15990  0.13469  0.27285  1.0000
  H   H226      1.0  0.14850  0.10989  0.39011  1.0000
  C   C139      1.0  0.00043  0.41485  0.21661  1.0000
  H   H227      1.0  0.13608  0.01452  0.04068  1.0000
  C   C140      1.0  0.98972  0.46652  0.21988  1.0000
  C   C141      1.0  0.14199  0.39894  0.21958  1.0000
  H   H228      1.0  0.07856  0.08193  0.41606  1.0000
  H   H229      1.0  0.14501  0.40816  0.22707  1.0000
  H   H230      1.0  0.12704  0.39881  0.22422  1.0000
  C   C142      1.0  0.99481  0.43492  0.11027  1.0000
  C   C143      1.0  0.03750  0.00478  0.01416  1.0000
  H   H231      1.0  0.11851  0.03700  0.45629  1.0000
  N   N7        1.0  0.15660  0.13570  0.38801  1.0000
  H   H232      1.0  0.12086  0.14289  0.37895  1.0000
  H   H233      1.0  0.12963  0.98558  0.10313  1.0000
  C   C144      1.0  0.18299  0.15410  0.32382  1.0000
  C   C145      1.0  0.17358  0.17269  0.27642  1.0000
  H   H234      1.0  0.03144  0.01845  0.01787  1.0000
  H   H235      1.0  0.03795  0.07908  0.34510  1.0000
  C   C146      1.0  0.05049  0.44390  0.10130  1.0000
  H   H236      1.0  0.06289  0.98929  0.97971  1.0000
  H   H237      1.0  0.13091  0.34665  0.24845  1.0000
  H   H238      1.0  0.13035  0.35151  0.21445  1.0000
  C   C147      1.0  0.98719  0.29924  0.39499  1.0000
  H   H239      1.0  0.11158  0.06588  0.41242  1.0000
  H   H240      1.0  0.14839  0.38386  0.18951  1.0000
  H   H241      1.0  0.16570  0.10136  0.41267  1.0000
  H   H242      1.0  0.17040  0.14154  0.40671  1.0000
  C   C148      1.0  0.17459  0.10911  0.37122  1.0000
  H   H243      1.0  0.06463  0.45985  0.46722  1.0000
  H   H244      1.0  0.16357  0.46122  0.03607  1.0000
  H   H245      1.0  0.10915  0.15479  0.39710  1.0000
  N   N8        1.0  0.09912  0.04933  0.43780  1.0000
  H   H246      1.0  0.15893  0.37584  0.07724  1.0000
  S   S37       1.0  0.07720  0.45799  0.04666  1.0000
  N   N9        1.0  0.01886  0.10522  0.34235  1.0000
  H   H247      1.0  0.10888  0.35700  0.24262  1.0000
  C   C149      1.0  0.16254  0.99128  0.08657  1.0000
  S   S38       1.0  0.02174  0.97966  0.29912  1.0000
  H   H248      1.0  0.12672  0.02136  0.06917  1.0000
  C   C150      1.0  0.17960  0.13033  0.27671  1.0000
  H   H249      1.0  0.18306  0.11797  0.36050  1.0000
  H   H250      1.0  0.07571  0.46763  0.44416  1.0000
  C   C151      1.0  0.99858  0.30005  0.31680  1.0000
  N   N10       1.0  0.00063  0.43016  0.44438  1.0000
  Fe  Fe18      1.0  0.17596  0.02127  0.97533  1.0000
  H   H251      1.0  0.02604  0.44162  0.96915  1.0000
  H   H252      1.0  0.12545  0.16508  0.37880  1.0000
  H   H253      1.0  0.14950  0.02466  0.06654  1.0000
  H   H254      1.0  0.04526  0.43417  0.14902  1.0000
  Fe  Fe19      1.0  0.03715  0.98352  0.31887  1.0000
  C   C152      1.0  0.04017  0.39556  0.97147  1.0000
  C   C153      1.0  0.15650  0.37191  0.06523  1.0000
  H   H255      1.0  0.01773  0.35741  0.24323  1.0000
  H   H256      1.0  0.15163  0.37535  0.23940  1.0000
  H   H257      1.0  0.99143  0.44428  0.46731  1.0000
  C   C154      1.0  0.08494  0.43886  0.11704  1.0000
  H   H258      1.0  0.99355  0.35295  0.28174  1.0000
  C   C155      1.0  0.02908  0.98709  0.97438  1.0000
  H   H259      1.0  0.15888  0.33512  0.22084  1.0000
  N   N11       1.0  0.11288  0.98219  0.20772  1.0000
  H   H260      1.0  0.99355  0.41036  0.41037  1.0000
  H   H261      1.0  0.09896  0.43130  0.11908  1.0000
  H   H262      1.0  0.15839  0.34253  0.19097  1.0000
  H   H263      1.0  0.16477  0.03566  0.01134  1.0000
  C   C156      1.0  0.15255  0.47227  0.06605  1.0000
  C   C157      1.0  0.00301  0.07845  0.34436  1.0000
  H   H264      1.0  0.18265  0.10106  0.38180  1.0000
  H   H265      1.0  0.16196  0.34499  0.23792  1.0000
  H   H266      1.0  0.98912  0.07486  0.34824  1.0000
  H   H267      1.0  0.12901  0.98091  0.22783  1.0000
  H   H268      1.0  0.17325  0.43240  0.33318  1.0000
  H   H269      1.0  0.16542  0.07647  0.01421  1.0000
  H   H270      1.0  0.01788  0.46088  0.14634  1.0000
  H   H271      1.0  0.99913  0.13836  0.32730  1.0000
  H   H272      1.0  0.01628  0.01060  0.99858  1.0000
  H   H273      1.0  0.08381  0.00915  0.46237  1.0000
  H   H274      1.0  0.00679  0.29057  0.37054  1.0000
  C   C158      1.0  0.07145  0.47103  0.45807  1.0000
  C   C159      1.0  0.99047  0.45611  0.26027  1.0000
  C   C160      1.0  0.00005  0.13840  0.34145  1.0000
  H   H275      1.0  0.01170  0.98056  0.20591  1.0000
  C   C161      1.0  0.16367  0.16860  0.37801  1.0000
  H   H276      1.0  0.03487  0.46085  0.45550  1.0000
  C   C162      1.0  0.16351  0.34708  0.22272  1.0000
  C   C163      1.0  0.09239  0.06245  0.46771  1.0000
  H   H277      1.0  0.00073  0.98602  0.24603  1.0000
  C   C164      1.0  0.03109  0.00409  0.99682  1.0000
  C   C165      1.0  0.99867  0.42075  0.41454  1.0000
  C   C166      1.0  0.99577  0.28565  0.38186  1.0000
  H   H278      1.0  0.14940  0.45876  0.06640  1.0000
  H   H279      1.0  0.11413  0.38465  0.98464  1.0000
  H   H280      1.0  0.98605  0.43023  0.06438  1.0000
  H   H281      1.0  0.17167  0.16371  0.25270  1.0000
  S   S39       1.0  0.18313  0.36474  0.29550  1.0000
  H   H282      1.0  0.17756  0.16771  0.38066  1.0000
  H   H283      1.0  0.08698  0.40042  0.97201  1.0000
  C   C167      1.0  0.12235  0.47228  0.04804  1.0000
  S   S40       1.0  0.98615  0.42191  0.13159  1.0000
  H   H284      1.0  0.99247  0.43440  0.40714  1.0000
  H   H285      1.0  0.16999  0.35607  0.04427  1.0000
  S   S41       1.0  0.18175  0.04066  0.06713  1.0000
  H   H286      1.0  0.17171  0.34424  0.06673  1.0000
  C   C168      1.0  0.09073  0.43649  0.96916  1.0000
  H   H287      1.0  0.17208  0.45625  0.08323  1.0000
  C   C169      1.0  0.17180  0.46773  0.07103  1.0000
  H   H288      1.0  0.00644  0.97932  0.03198  1.0000
  H   H289      1.0  0.98966  0.47316  0.41596  1.0000
  H   H290      1.0  0.12542  0.99487  0.05232  1.0000
  C   C170      1.0  0.98970  0.32707  0.37022  1.0000
  C   C171      1.0  0.18264  0.16269  0.26024  1.0000
  H   H291      1.0  0.10298  0.43891  0.97297  1.0000
  H   H292      1.0  0.17881  0.35779  0.09846  1.0000
  H   H293      1.0  0.18081  0.46926  0.46345  1.0000
  H   H294      1.0  0.18152  0.39141  0.04580  1.0000
  S   S42       1.0  0.18461  0.42144  0.06208  1.0000
  H   H295      1.0  0.18421  0.12556  0.23867  1.0000
  H   H296      1.0  0.18453  0.12607  0.39286  1.0000
  H   H297      1.0  0.18403  0.17729  0.28108  1.0000
  H   H298      1.0  0.15086  0.47349  0.01056  1.0000
  H   H299      1.0  0.09835  0.02015  0.46823  1.0000
  S   S43       1.0  0.04530  0.03615  0.93371  1.0000
  Fe  Fe20      1.0  0.06300  0.00968  0.87783  1.0000
  S   S44       1.0  0.07846  0.02572  0.85249  1.0000
  S   S45       1.0  0.03716  0.02876  0.88757  1.0000
  H   H300      1.0  0.04589  0.98936  0.58967  1.0000
  H   H301      1.0  0.98940  0.04416  0.92924  1.0000
  C   C172      1.0  0.11440  0.42845  0.94186  1.0000
  H   H302      1.0  0.02238  0.15058  0.70683  1.0000
  S   S46       1.0  0.15346  0.20289  0.94179  1.0000
  C   C173      1.0  0.08181  0.12187  0.54853  1.0000
  C   C174      1.0  0.14057  0.16590  0.57089  1.0000
  H   H303      1.0  0.00995  0.05173  0.67314  1.0000
  H   H304      1.0  0.01059  0.98022  0.79318  1.0000
  H   H305      1.0  0.06723  0.00018  0.94364  1.0000
  Fe  Fe21      1.0  0.00813  0.40074  0.93741  1.0000
  C   C175      1.0  0.18381  0.11035  0.52563  1.0000
  S   S47       1.0  0.02119  0.41997  0.94599  1.0000
  Fe  Fe22      1.0  0.00526  0.36360  0.93186  1.0000
  H   H306      1.0  0.12130  0.04593  0.50467  1.0000
  S   S48       1.0  0.01069  0.33263  0.93577  1.0000
  Fe  Fe23      1.0  0.99674  0.39833  0.90311  1.0000
  H   H307      1.0  0.17313  0.97886  0.55010  1.0000
  H   H308      1.0  0.15384  0.16986  0.57006  1.0000
  S   S49       1.0  0.02205  0.38470  0.91491  1.0000
  C   C176      1.0  0.99868  0.06863  0.85328  1.0000
  Fe  Fe24      1.0  0.05659  0.23962  0.87338  1.0000
  S   S50       1.0  0.07845  0.22921  0.85064  1.0000
  S   S51       1.0  0.03227  0.22552  0.88445  1.0000
  Fe  Fe25      1.0  0.07662  0.26882  0.87478  1.0000
  S   S52       1.0  0.10012  0.26056  0.85223  1.0000
  S   S53       1.0  0.07985  0.29273  0.88512  1.0000
  Fe  Fe26      1.0  0.07818  0.25906  0.83835  1.0000
  S   S54       1.0  0.07738  0.27311  0.80894  1.0000
  Fe  Fe27      1.0  0.09819  0.23163  0.86682  1.0000
  S   S55       1.0  0.12398  0.21004  0.86973  1.0000
  S   S56       1.0  0.05463  0.26944  0.85983  1.0000
  S   S57       1.0  0.07642  0.23986  0.89066  1.0000
  Fe  Fe28      1.0  0.02501  0.12796  0.84095  1.0000
  S   S58       1.0  0.03149  0.14654  0.81344  1.0000
  S   S59       1.0  0.04557  0.10943  0.85755  1.0000
  H   H309      1.0  0.13970  0.97975  0.93829  1.0000
  C   C177      1.0  0.14714  0.99568  0.55937  1.0000
  C   C178      1.0  0.01852  0.28231  0.55696  1.0000
  Fe  Fe29      1.0  0.01196  0.16899  0.82655  1.0000
  S   S60       1.0  0.01913  0.19714  0.81933  1.0000
  C   C179      1.0  0.02338  0.44752  0.48263  1.0000
  H   H310      1.0  0.00427  0.22392  0.51778  1.0000
  S   S61       1.0  0.06288  0.37495  0.65464  1.0000
  H   H311      1.0  0.99443  0.31339  0.50836  1.0000
  Fe  Fe30      1.0  0.04430  0.01772  0.91536  1.0000
  C   C180      1.0  0.08451  0.41505  0.93051  1.0000
  Fe  Fe31      1.0  0.11746  0.24242  0.71938  1.0000
  S   S62       1.0  0.13912  0.25793  0.70231  1.0000
  S   S63       1.0  0.12043  0.22711  0.74804  1.0000
  Fe  Fe32      1.0  0.09723  0.25010  0.68802  1.0000
  S   S64       1.0  0.11742  0.26638  0.66807  1.0000
  S   S65       1.0  0.07143  0.24582  0.68177  1.0000
  Fe  Fe33      1.0  0.13897  0.24399  0.68003  1.0000
  H   H312      1.0  0.09313  0.14631  0.58067  1.0000
  Fe  Fe34      1.0  0.11583  0.27901  0.69209  1.0000
  S   S66       1.0  0.11785  0.30806  0.69127  1.0000
  S   S67       1.0  0.11893  0.22662  0.69794  1.0000
  S   S68       1.0  0.09388  0.26459  0.71116  1.0000
  C   C181      1.0  0.01013  0.98303  0.85857  1.0000
  C   C182      1.0  0.98772  0.19559  0.52501  1.0000
  Fe  Fe35      1.0  0.04405  0.16849  0.59988  1.0000
  S   S69       1.0  0.04316  0.17298  0.62790  1.0000
  S   S70       1.0  0.05187  0.13981  0.59448  1.0000
  Fe  Fe36      1.0  0.03361  0.20912  0.58432  1.0000
  S   S71       1.0  0.03171  0.21739  0.61096  1.0000
  S   S72       1.0  0.03085  0.22903  0.55754  1.0000
  Fe  Fe37      1.0  0.05775  0.19615  0.61306  1.0000
  S   S73       1.0  0.08322  0.19828  0.62167  1.0000
  Fe  Fe38      1.0  0.01727  0.19356  0.62360  1.0000
  H   H313      1.0  0.09963  0.04829  0.89461  1.0000
  S   S74       1.0  0.06095  0.18985  0.58529  1.0000
  S   S75       1.0  0.01681  0.18715  0.59673  1.0000
  C   C183      1.0  0.00814  0.23868  0.55471  1.0000
  H   H314      1.0  0.11198  0.27796  0.93181  1.0000
  H   H315      1.0  0.98936  0.41549  0.64116  1.0000
  Fe  Fe39      1.0  0.14226  0.02403  0.95947  1.0000
  H   H316      1.0  0.14197  0.98613  0.88723  1.0000
  S   S76       1.0  0.00760  0.15101  0.85458  1.0000
  H   H317      1.0  0.18273  0.22938  0.77044  1.0000
  H   H318      1.0  0.04130  0.46614  0.69466  1.0000
  C   C184      1.0  0.16294  0.24891  0.90961  1.0000
  S   S77       1.0  0.11945  0.00828  0.96433  1.0000
  S   S78       1.0  0.99253  0.19519  0.64687  1.0000
  C   C185      1.0  0.04079  0.46600  0.70892  1.0000
  H   H319      1.0  0.00842  0.15903  0.63895  1.0000
  H   H320      1.0  0.18176  0.17999  0.58174  1.0000
  H   H321      1.0  0.07300  0.10993  0.57714  1.0000
  C   C186      1.0  0.07523  0.23351  0.66421  1.0000
  C   C187      1.0  0.06063  0.23436  0.65580  1.0000
  C   C188      1.0  0.06312  0.22401  0.64231  1.0000
  C   C189      1.0  0.08015  0.21255  0.63739  1.0000
  C   C190      1.0  0.09480  0.21184  0.64566  1.0000
  C   C191      1.0  0.09240  0.22238  0.65898  1.0000
  H   H322      1.0  0.04740  0.24311  0.65967  1.0000
  H   H323      1.0  0.05185  0.22482  0.63581  1.0000
  H   H324      1.0  0.10797  0.20293  0.64194  1.0000
  H   H325      1.0  0.10372  0.22166  0.66541  1.0000
  C   C192      1.0  0.08127  0.13805  0.53507  1.0000
  C   C193      1.0  0.11604  0.03382  0.51253  1.0000
  C   C194      1.0  0.06231  0.13911  0.57142  1.0000
  C   C195      1.0  0.06138  0.15520  0.55786  1.0000
  C   C196      1.0  0.07080  0.15465  0.53969  1.0000
  H   H326      1.0  0.05346  0.16809  0.56138  1.0000
  H   H327      1.0  0.07027  0.16717  0.52928  1.0000
  C   C197      1.0  0.10644  0.00560  0.51343  1.0000
  C   C198      1.0  0.11213  0.03054  0.53177  1.0000
  C   C199      1.0  0.10559  0.01468  0.54181  1.0000
  C   C200      1.0  0.03932  0.46594  0.74590  1.0000
  H   H328      1.0  0.10276  0.01200  0.55669  1.0000
  S   S79       1.0  0.99716  0.00653  0.88346  1.0000
  H   H329      1.0  0.08501  0.40037  0.93729  1.0000
  S   S80       1.0  0.16569  0.22985  0.66445  1.0000
  Fe  Fe40      1.0  0.02353  0.00486  0.89248  1.0000
  S   S81       1.0  0.07090  0.99952  0.90544  1.0000
  H   H330      1.0  0.15889  0.98272  0.91974  1.0000
  C   C201      1.0  0.10804  0.14017  0.57980  1.0000
  H   H331      1.0  0.10633  0.39551  0.95434  1.0000
  C   C202      1.0  0.99224  0.42883  0.61254  1.0000
  C   C203      1.0  0.07919  0.35618  0.66301  1.0000
  C   C204      1.0  0.09487  0.35895  0.66736  1.0000
  C   C205      1.0  0.10700  0.34394  0.67543  1.0000
  C   C206      1.0  0.10352  0.32612  0.67920  1.0000
  C   C207      1.0  0.08816  0.32324  0.67432  1.0000
  C   C208      1.0  0.07601  0.33828  0.66618  1.0000
  H   H332      1.0  0.09763  0.37264  0.66455  1.0000
  H   H333      1.0  0.11902  0.34617  0.67898  1.0000
  H   H334      1.0  0.08543  0.30949  0.67717  1.0000
  H   H335      1.0  0.06390  0.33609  0.66278  1.0000
  H   H336      1.0  0.99551  0.28555  0.57916  1.0000
  H   H337      1.0  0.04100  0.01376  0.51780  1.0000
  C   C209      1.0  0.05397  0.18337  0.67118  1.0000
  C   C210      1.0  0.99715  0.98757  0.87420  1.0000
  N   N12       1.0  0.03263  0.35542  0.86134  1.0000
  C   C211      1.0  0.09073  0.26059  0.79222  1.0000
  C   C212      1.0  0.09110  0.26860  0.77361  1.0000
  C   C213      1.0  0.10076  0.25856  0.75996  1.0000
  C   C214      1.0  0.10999  0.24043  0.76487  1.0000
  C   C215      1.0  0.11001  0.23253  0.78347  1.0000
  C   C216      1.0  0.10037  0.24261  0.79716  1.0000
  H   H338      1.0  0.08377  0.28254  0.76975  1.0000
  H   H339      1.0  0.10098  0.26488  0.74567  1.0000
  H   H340      1.0  0.11723  0.21854  0.78731  1.0000
  H   H341      1.0  0.10026  0.23643  0.81150  1.0000
  C   C217      1.0  0.02629  0.21921  0.86656  1.0000
  C   C218      1.0  0.03195  0.22779  0.84830  1.0000
  C   C219      1.0  0.02857  0.22166  0.83394  1.0000
  C   C220      1.0  0.02014  0.20649  0.83770  1.0000
  C   C221      1.0  0.01370  0.19844  0.85598  1.0000
  C   C222      1.0  0.01654  0.20497  0.87043  1.0000
  H   H342      1.0  0.03900  0.23917  0.84521  1.0000
  H   H343      1.0  0.03294  0.22842  0.81990  1.0000
  H   H344      1.0  0.00686  0.18698  0.85899  1.0000
  H   H345      1.0  0.01193  0.19848  0.88458  1.0000
  C   C223      1.0  0.03018  0.32148  0.92203  1.0000
  C   C224      1.0  0.04634  0.32858  0.91571  1.0000
  C   C225      1.0  0.06174  0.31930  0.90483  1.0000
  C   C226      1.0  0.06090  0.30311  0.89996  1.0000
  C   C227      1.0  0.04477  0.29595  0.90634  1.0000
  C   C228      1.0  0.02950  0.30505  0.91752  1.0000
  H   H346      1.0  0.04702  0.34110  0.91940  1.0000
  H   H347      1.0  0.07426  0.32479  0.90000  1.0000
  H   H348      1.0  0.04407  0.28345  0.90265  1.0000
  H   H349      1.0  0.01708  0.29943  0.92252  1.0000
  Fe  Fe41      1.0  0.15801  0.05800  0.95504  1.0000
  C   C229      1.0  0.13893  0.16561  0.55138  1.0000
  C   C230      1.0  0.01079  0.43196  0.84273  1.0000
  C   C231      1.0  0.00901  0.42558  0.86178  1.0000
  C   C232      1.0  0.01641  0.43378  0.87187  1.0000
  H   H350      1.0  0.13087  0.31238  0.88268  1.0000
  H   H351      1.0  0.03078  0.06838  0.67705  1.0000
  H   H352      1.0  0.01517  0.42886  0.88657  1.0000
  C   C233      1.0  0.07230  0.12240  0.56668  1.0000
  H   H353      1.0  0.01434  0.00809  0.57928  1.0000
  H   H354      1.0  0.10292  0.17547  0.57100  1.0000
  H   H355      1.0  0.14723  0.46253  0.59000  1.0000
  S   S82       1.0  0.09449  0.13803  0.51273  1.0000
  C   C234      1.0  0.02518  0.44866  0.86295  1.0000
  H   H356      1.0  0.13085  0.03912  0.90199  1.0000
  C   C235      1.0  0.98845  0.02904  0.67892  1.0000
  H   H357      1.0  0.07525  0.17361  0.81757  1.0000
  H   H358      1.0  0.06838  0.42487  0.95460  1.0000
  H   H359      1.0  0.11661  0.02376  0.48855  1.0000
  C   C236      1.0  0.07395  0.01017  0.94565  1.0000
  H   H360      1.0  0.10333  0.19839  0.53170  1.0000
  C   C237      1.0  0.05463  0.01273  0.52105  1.0000
  H   H361      1.0  0.99776  0.03692  0.90784  1.0000
  C   C238      1.0  0.09028  0.00419  0.95251  1.0000
  C   C239      1.0  0.14554  0.20544  0.92149  1.0000
  C   C240      1.0  0.12651  0.20838  0.92228  1.0000
  C   C241      1.0  0.11978  0.21003  0.90638  1.0000
  C   C242      1.0  0.13208  0.20885  0.88958  1.0000
  C   C243      1.0  0.15111  0.20599  0.88875  1.0000
  C   C244      1.0  0.15782  0.20447  0.90464  1.0000
  H   H362      1.0  0.11695  0.20912  0.93530  1.0000
  H   H363      1.0  0.10511  0.21189  0.90721  1.0000
  H   H364      1.0  0.16069  0.20508  0.87578  1.0000
  H   H365      1.0  0.03741  0.30976  0.86045  1.0000
  H   H366      1.0  0.11132  0.45837  0.93796  1.0000
  H   H367      1.0  0.03945  0.38479  0.96501  1.0000
  C   C245      1.0  0.05441  0.08632  0.85548  1.0000
  C   C246      1.0  0.05554  0.08023  0.83939  1.0000
  C   C247      1.0  0.06348  0.06175  0.83817  1.0000
  C   C248      1.0  0.06975  0.04923  0.85322  1.0000
  C   C249      1.0  0.06824  0.05537  0.86935  1.0000
  C   C250      1.0  0.06090  0.07385  0.87037  1.0000
  H   H368      1.0  0.05060  0.08977  0.82780  1.0000
  H   H369      1.0  0.06441  0.05706  0.82571  1.0000
  H   H370      1.0  0.07260  0.04578  0.88118  1.0000
  H   H371      1.0  0.05997  0.07839  0.88291  1.0000
  C   C251      1.0  0.06607  0.02888  0.94197  1.0000
  C   C252      1.0  0.07486  0.04166  0.94492  1.0000
  H   H372      1.0  0.01679  0.25187  0.52655  1.0000
  H   H373      1.0  0.06883  0.05617  0.94209  1.0000
  C   C253      1.0  0.13656  0.14809  0.52025  1.0000
  H   H374      1.0  0.14110  0.15205  0.57985  1.0000
  H   H375      1.0  0.00898  0.18038  0.69069  1.0000
  C   C254      1.0  0.11330  0.02130  0.50340  1.0000
  H   H376      1.0  0.06104  0.15713  0.66190  1.0000
  H   H377      1.0  0.03939  0.39016  0.82194  1.0000
  C   C255      1.0  0.00042  0.22179  0.50548  1.0000
  C   C256      1.0  0.03308  0.38520  0.83654  1.0000
  H   H378      1.0  0.03067  0.45517  0.87083  1.0000
  C   C257      1.0  0.08128  0.42737  0.94458  1.0000
  H   H379      1.0  0.10077  0.28101  0.91329  1.0000
  H   H380      1.0  0.10893  0.12527  0.58581  1.0000
  C   C258      1.0  0.13861  0.15819  0.89444  1.0000
  H   H381      1.0  0.11344  0.14610  0.58860  1.0000
  N   N13       1.0  0.12967  0.26755  0.90807  1.0000
  C   C259      1.0  0.99465  0.04603  0.71979  1.0000
  H   H382      1.0  0.15590  0.17987  0.63556  1.0000
  H   H383      1.0  0.06653  0.35201  0.87398  1.0000
  C   C260      1.0  0.14395  0.22356  0.63163  1.0000
  H   H384      1.0  0.03273  0.35675  0.88920  1.0000
  C   C261      1.0  0.00812  0.44767  0.49728  1.0000
  H   H385      1.0  0.13602  0.10239  0.91663  1.0000
  N   N14       1.0  0.05730  0.22122  0.76783  1.0000
  C   C262      1.0  0.06059  0.23015  0.78188  1.0000
  C   C263      1.0  0.06574  0.20102  0.77240  1.0000
  C   C264      1.0  0.03665  0.22383  0.76967  1.0000
  C   C265      1.0  0.06613  0.23058  0.74904  1.0000
  C   C266      1.0  0.05056  0.25033  0.78179  1.0000
  C   C267      1.0  0.08685  0.19633  0.77096  1.0000
  C   C268      1.0  0.02959  0.20999  0.76292  1.0000
  C   C269      1.0  0.06633  0.22249  0.73248  1.0000
  H   H386      1.0  0.05664  0.22216  0.79604  1.0000
  H   H387      1.0  0.07547  0.23016  0.78002  1.0000
  H   H388      1.0  0.06295  0.19309  0.76350  1.0000
  H   H389      1.0  0.05921  0.19485  0.78663  1.0000
  H   H390      1.0  0.02952  0.22294  0.78440  1.0000
  H   H391      1.0  0.03096  0.23784  0.76240  1.0000
  H   H392      1.0  0.05904  0.24521  0.74585  1.0000
  H   H393      1.0  0.08054  0.23168  0.74856  1.0000
  H   H394      1.0  0.05536  0.25967  0.76878  1.0000
  H   H395      1.0  0.03532  0.25203  0.78462  1.0000
  H   H396      1.0  0.05386  0.25497  0.79301  1.0000
  H   H397      1.0  0.09145  0.18115  0.77406  1.0000
  H   H398      1.0  0.09431  0.20134  0.75685  1.0000
  H   H399      1.0  0.09115  0.20170  0.78105  1.0000
  H   H400      1.0  0.03633  0.20855  0.74867  1.0000
  H   H401      1.0  0.01455  0.21483  0.76326  1.0000
  H   H402      1.0  0.03118  0.19630  0.77233  1.0000
  H   H403      1.0  0.05354  0.22859  0.72693  1.0000
  H   H404      1.0  0.06848  0.20735  0.73539  1.0000
  H   H405      1.0  0.07829  0.22577  0.72138  1.0000
  H   H406      1.0  0.00642  0.03437  0.72229  1.0000
  H   H407      1.0  0.02848  0.37844  0.87467  1.0000
  C   C270      1.0  0.99923  0.32061  0.55470  1.0000
  N   N15       1.0  0.98784  0.30664  0.55596  1.0000
  C   C271      1.0  0.04172  0.33538  0.86457  1.0000
  C   C272      1.0  0.05720  0.36566  0.87246  1.0000
  C   C273      1.0  0.02569  0.15368  0.69154  1.0000
  H   H408      1.0  0.05004  0.20068  0.71019  1.0000
  H   H409      1.0  0.07383  0.02959  0.47174  1.0000
  H   H410      1.0  0.00365  0.12813  0.65636  1.0000
  H   H411      1.0  0.01789  0.38886  0.83771  1.0000
  H   H412      1.0  0.02619  0.29017  0.56172  1.0000
  S   S83       1.0  0.02988  0.46020  0.62516  1.0000
  H   H413      1.0  0.00436  0.20986  0.67237  1.0000
  H   H414      1.0  0.03611  0.35805  0.83196  1.0000
  H   H415      1.0  0.05696  0.33367  0.86239  1.0000
  C   C274      1.0  0.18229  0.12529  0.95205  1.0000
  H   H416      1.0  0.05829  0.37216  0.88348  1.0000
  C   C275      1.0  0.18141  0.25777  0.66602  1.0000
  H   H417      1.0  0.06218  0.37451  0.85918  1.0000
  C   C276      1.0  0.13436  0.00763  0.86506  1.0000
  H   H418      1.0  0.17088  0.23960  0.91988  1.0000
  H   H419      1.0  0.02594  0.21099  0.65616  1.0000
  C   C277      1.0  0.03685  0.36429  0.87490  1.0000
  S   S84       1.0  0.14052  0.11227  0.48802  1.0000
  H   H420      1.0  0.05969  0.99852  0.52806  1.0000
  H   H421      1.0  0.14567  0.24750  0.87014  1.0000
  C   C278      1.0  0.04542  0.44935  0.72095  1.0000
  H   H422      1.0  0.09794  0.99002  0.54042  1.0000
  H   H423      1.0  0.13220  0.13287  0.55918  1.0000
  H   H424      1.0  0.10946  0.24502  0.94103  1.0000
  C   C279      1.0  0.13605  0.28562  0.90090  1.0000
  H   H425      1.0  0.11353  0.45274  0.69141  1.0000
  H   H426      1.0  0.03522  0.43633  0.48338  1.0000
  H   H427      1.0  0.05833  0.17900  0.72369  1.0000
  H   H428      1.0  0.99646  0.99867  0.78003  1.0000
  H   H429      1.0  0.10083  0.24670  0.92047  1.0000
  H   H430      1.0  0.10335  0.45122  0.92083  1.0000
  C   C280      1.0  0.01791  0.06785  0.68773  1.0000
  H   H431      1.0  0.14494  0.21399  0.64502  1.0000
  S   S85       1.0  0.15142  0.06766  0.50287  1.0000
  H   H432      1.0  0.99534  0.22748  0.58235  1.0000
  H   H433      1.0  0.16083  0.19597  0.58710  1.0000
  C   C281      1.0  0.17926  0.15463  0.89410  1.0000
  C   C282      1.0  0.14280  0.25448  0.91951  1.0000
  S   S86       1.0  0.98677  0.16474  0.81946  1.0000
  C   C283      1.0  0.10274  0.00227  0.53263  1.0000
  H   H434      1.0  0.17862  0.23008  0.62487  1.0000
  H   H435      1.0  0.06914  0.18445  0.70002  1.0000
  H   H436      1.0  0.09607  0.98963  0.95562  1.0000
  H   H437      1.0  0.07785  0.44175  0.93705  1.0000
  H   H438      1.0  0.08046  0.16610  0.66264  1.0000
  H   H439      1.0  0.15005  0.28406  0.89212  1.0000
  H   H440      1.0  0.13293  0.99501  0.56725  1.0000
  N   N16       1.0  0.09664  0.42465  0.95474  1.0000
  H   H441      1.0  0.15388  0.14942  0.93461  1.0000
  C   C284      1.0  0.16985  0.09958  0.95009  1.0000
  C   C285      1.0  0.03995  0.36422  0.84181  1.0000
  H   H442      1.0  0.06183  0.00329  0.58826  1.0000
  S   S87       1.0  0.99702  0.40769  0.87271  1.0000
  S   S88       1.0  0.08395  0.40966  0.67196  1.0000
  C   C286      1.0  0.14222  0.26074  0.87490  1.0000
  H   H443      1.0  0.08966  0.10897  0.54500  1.0000
  S   S89       1.0  0.05365  0.42859  0.71288  1.0000
  H   H444      1.0  0.16742  0.24771  0.72595  1.0000
  H   H445      1.0  0.03858  0.21278  0.68462  1.0000
  H   H446      1.0  0.17988  0.23471  0.60071  1.0000
  H   H447      1.0  0.01572  0.14826  0.68704  1.0000
  S   S90       1.0  0.00507  0.13622  0.78091  1.0000
  Fe  Fe42      1.0  0.11475  0.11152  0.50993  1.0000
  H   H448      1.0  0.98710  0.34256  0.53354  1.0000
  H   H449      1.0  0.11818  0.00229  0.92090  1.0000
  H   H450      1.0  0.15331  0.00273  0.56665  1.0000
  C   C287      1.0  0.00696  0.43529  0.63434  1.0000
  H   H451      1.0  0.99601  0.41268  0.48452  1.0000
  C   C288      1.0  0.03156  0.41369  0.96538  1.0000
  H   H452      1.0  0.99129  0.27695  0.56154  1.0000
  N   N17       1.0  0.99185  0.04919  0.70031  1.0000
  H   H453      1.0  0.08225  0.46347  0.95080  1.0000
  H   H454      1.0  0.02063  0.99117  0.85202  1.0000
  C   C289      1.0  0.16807  0.13936  0.90343  1.0000
  H   H455      1.0  0.16652  0.99800  0.88827  1.0000
  Fe  Fe43      1.0  0.06565  0.40284  0.65699  1.0000
  H   H456      1.0  0.99832  0.05826  0.72227  1.0000
  C   C290      1.0  0.15635  0.47195  0.58119  1.0000
  H   H457      1.0  0.03771  0.32861  0.87918  1.0000
  C   C291      1.0  0.16548  0.02680  0.87618  1.0000
  C   C292      1.0  0.00851  0.07960  0.88444  1.0000
  C   C293      1.0  0.03847  0.32379  0.85227  1.0000
  C   C294      1.0  0.02816  0.20446  0.68566  1.0000
  H   H458      1.0  0.15540  0.26364  0.87573  1.0000
  H   H459      1.0  0.15094  0.14900  0.51984  1.0000
  C   C295      1.0  0.14374  0.98368  0.92306  1.0000
  C   C296      1.0  0.01027  0.05100  0.68768  1.0000
  H   H460      1.0  0.17430  0.13082  0.91527  1.0000
  H   H461      1.0  0.02911  0.17800  0.71612  1.0000
  H   H462      1.0  0.18082  0.02340  0.87266  1.0000
  H   H463      1.0  0.99669  0.02199  0.56781  1.0000
  H   H464      1.0  0.12943  0.17610  0.57730  1.0000
  H   H465      1.0  0.09252  0.44616  0.70639  1.0000
  H   H466      1.0  0.14151  0.17896  0.54243  1.0000
  C   C297      1.0  0.18444  0.23987  0.66315  1.0000
  C   C298      1.0  0.14046  0.15035  0.87729  1.0000
  H   H467      1.0  0.15923  0.10526  0.91213  1.0000
  H   H468      1.0  0.06298  0.19267  0.67140  1.0000
  H   H469      1.0  0.08896  0.04965  0.47696  1.0000
  H   H470      1.0  0.15941  0.10412  0.54529  1.0000
  C   C299      1.0  0.10208  0.25440  0.93042  1.0000
  H   H471      1.0  0.14519  0.11542  0.89488  1.0000
  S   S91       1.0  0.11532  0.04609  0.54342  1.0000
  S   S92       1.0  0.11828  0.43535  0.63401  1.0000
  C   C300      1.0  0.17255  0.12122  0.55434  1.0000
  C   C301      1.0  0.13298  0.00007  0.88585  1.0000
  H   H472      1.0  0.01508  0.22904  0.66849  1.0000
  C   C302      1.0  0.99944  0.24014  0.49137  1.0000
  C   C303      1.0  0.15244  0.46870  0.63257  1.0000
  H   H473      1.0  0.11072  0.13698  0.55257  1.0000
  C   C304      1.0  0.11864  0.14255  0.55956  1.0000
  C   C305      1.0  0.05564  0.18595  0.70977  1.0000
  H   H474      1.0  0.00513  0.37233  0.86494  1.0000
  C   C306      1.0  0.09923  0.01687  0.95525  1.0000
  H   H475      1.0  0.12568  0.17029  0.94521  1.0000
  H   H476      1.0  0.11972  0.29611  0.87890  1.0000
  H   H477      1.0  0.11585  0.17095  0.92625  1.0000
  H   H478      1.0  0.02363  0.09375  0.89506  1.0000
  C   C307      1.0  0.99095  0.34078  0.54699  1.0000
  H   H479      1.0  0.12943  0.14253  0.87923  1.0000
  H   H480      1.0  0.00454  0.17807  0.50522  1.0000
  H   H481      1.0  0.01733  0.46232  0.59211  1.0000
  H   H482      1.0  0.01286  0.08774  0.87042  1.0000
  H   H483      1.0  0.98703  0.28968  0.93790  1.0000
  C   C308      1.0  0.12711  0.03114  0.89360  1.0000
  H   H484      1.0  0.15489  0.44235  0.62590  1.0000
  H   H485      1.0  0.00816  0.08098  0.68425  1.0000
  H   H486      1.0  0.16693  0.46394  0.57175  1.0000
  H   H487      1.0  0.07253  0.41914  0.92355  1.0000
  H   H488      1.0  0.02288  0.17690  0.66900  1.0000
  H   H489      1.0  0.12308  0.13371  0.91913  1.0000
  H   H490      1.0  0.14828  0.23643  0.63130  1.0000
  C   C309      1.0  0.01793  0.21389  0.66966  1.0000
  S   S93       1.0  0.12948  0.09447  0.53237  1.0000
  H   H491      1.0  0.12964  0.99817  0.85916  1.0000
  H   H492      1.0  0.14657  0.00453  0.54554  1.0000
  H   H493      1.0  0.00137  0.34939  0.54477  1.0000
  H   H494      1.0  0.10087  0.02622  0.89020  1.0000
  H   H495      1.0  0.03912  0.46587  0.76008  1.0000
  H   H496      1.0  0.04788  0.16189  0.70724  1.0000
  C   C310      1.0  0.18138  0.24768  0.71693  1.0000
  Fe  Fe44      1.0  0.00582  0.14079  0.80852  1.0000
  C   C311      1.0  0.10018  0.40470  0.96440  1.0000
  C   C312      1.0  0.12348  0.30092  0.88968  1.0000
  N   N18       1.0  0.04473  0.38603  0.60280  1.0000
  C   C313      1.0  0.03770  0.37187  0.61891  1.0000
  C   C314      1.0  0.06395  0.37782  0.59378  1.0000
  C   C315      1.0  0.03253  0.39165  0.58877  1.0000
  C   C316      1.0  0.04473  0.40281  0.60964  1.0000
  C   C317      1.0  0.01791  0.37780  0.62958  1.0000
  C   C318      1.0  0.07892  0.37313  0.60549  1.0000
  C   C319      1.0  0.02774  0.37580  0.58295  1.0000
  C   C320      1.0  0.05355  0.41793  0.59525  1.0000
  H   H497      1.0  0.03852  0.35882  0.61461  1.0000
  H   H498      1.0  0.04657  0.36795  0.62926  1.0000
  H   H499      1.0  0.06885  0.38704  0.58062  1.0000
  H   H500      1.0  0.06405  0.36476  0.58988  1.0000
  H   H501      1.0  0.01925  0.40072  0.59367  1.0000
  H   H502      1.0  0.03907  0.40011  0.57587  1.0000
  H   H503      1.0  0.03042  0.40954  0.61491  1.0000
  H   H504      1.0  0.05157  0.39903  0.62165  1.0000
  H   H505      1.0  0.00761  0.38289  0.62061  1.0000
  H   H506      1.0  0.01369  0.36576  0.63990  1.0000
  H   H507      1.0  0.01733  0.38838  0.63739  1.0000
  H   H508      1.0  0.07643  0.36189  0.61760  1.0000
  H   H509      1.0  0.09251  0.36814  0.59701  1.0000
  H   H510      1.0  0.08036  0.38519  0.61014  1.0000
  H   H511      1.0  0.08331  0.07411  0.47380  1.0000
  H   H512      1.0  0.02032  0.38167  0.57140  1.0000
  H   H513      1.0  0.01831  0.36843  0.59425  1.0000
  H   H514      1.0  0.06861  0.41332  0.59061  1.0000
  H   H515      1.0  0.05172  0.42992  0.60165  1.0000
  H   H516      1.0  0.04679  0.42303  0.58323  1.0000
  N   N19       1.0  0.04374  0.02416  0.55193  1.0000
  C   C321      1.0  0.05418  0.02713  0.53217  1.0000
  C   C322      1.0  0.04379  0.04059  0.55940  1.0000
  C   C323      1.0  0.02418  0.02362  0.55166  1.0000
  C   C324      1.0  0.05299  0.00619  0.56234  1.0000
  C   C325      1.0  0.06301  0.04345  0.55979  1.0000
  C   C326      1.0  0.01052  0.02163  0.57030  1.0000
  H   H517      1.0  0.00767  0.35528  0.85246  1.0000
  H   H518      1.0  0.04849  0.04085  0.52431  1.0000
  H   H519      1.0  0.06888  0.02722  0.53144  1.0000
  H   H520      1.0  0.03558  0.04023  0.57355  1.0000
  H   H521      1.0  0.03689  0.05346  0.55118  1.0000
  H   H522      1.0  0.01809  0.03621  0.54247  1.0000
  H   H523      1.0  0.02385  0.01177  0.54591  1.0000
  C   C327      1.0  0.99236  0.06136  0.87407  1.0000
  S   S94       1.0  0.99351  0.37839  0.95546  1.0000
  H   H524      1.0  0.14342  0.17147  0.88977  1.0000
  H   H525      1.0  0.06130  0.05435  0.56763  1.0000
  H   H526      1.0  0.07143  0.03088  0.56666  1.0000
  H   H527      1.0  0.07079  0.04832  0.54578  1.0000
  H   H528      1.0  0.16756  0.26594  0.66793  1.0000
  H   H529      1.0  0.00475  0.29102  0.51971  1.0000
  C   C328      1.0  0.00007  0.44212  0.59873  1.0000
  S   S95       1.0  0.06528  0.45343  0.65858  1.0000
  S   S96       1.0  0.15102  0.08848  0.95502  1.0000
  H   H530      1.0  0.16172  0.04007  0.88089  1.0000
  Fe  Fe45      1.0  0.18400  0.19202  0.94092  1.0000
  H   H531      1.0  0.13943  0.98656  0.52991  1.0000
  C   C329      1.0  0.12656  0.45375  0.63670  1.0000
  C   C330      1.0  0.14553  0.45383  0.63122  1.0000
  H   H532      1.0  0.15414  0.14170  0.87329  1.0000
  H   H533      1.0  0.15258  0.22476  0.60238  1.0000
  Fe  Fe46      1.0  0.17908  0.02833  0.93362  1.0000
  H   H534      1.0  0.98744  0.35049  0.88358  1.0000
  H   H535      1.0  0.01291  0.07131  0.84997  1.0000
  C   C331      1.0  0.01192  0.35782  0.86431  1.0000
  C   C332      1.0  0.15478  0.21450  0.61521  1.0000
  H   H536      1.0  0.00281  0.04883  0.87769  1.0000
  C   C333      1.0  0.99617  0.14015  0.66194  1.0000
  H   H537      1.0  0.16837  0.17253  0.65331  1.0000
  S   S97       1.0  0.04891  0.98613  0.88107  1.0000
  H   H538      1.0  0.06824  0.00433  0.55770  1.0000
  H   H539      1.0  0.01226  0.24533  0.48959  1.0000
  H   H540      1.0  0.16991  0.26075  0.90358  1.0000
  S   S98       1.0  0.17045  0.00574  0.95671  1.0000
  H   H541      1.0  0.12721  0.24439  0.89827  1.0000
  H   H542      1.0  0.13744  0.29113  0.91253  1.0000
  H   H543      1.0  0.08781  0.25929  0.93771  1.0000
  C   C334      1.0  0.11448  0.46869  0.64334  1.0000
  N   N20       1.0  0.03707  0.18437  0.68645  1.0000
  H   H544      1.0  0.00327  0.02441  0.67306  1.0000
  C   C335      1.0  0.04190  0.17681  0.70520  1.0000
  C   C336      1.0  0.02633  0.45550  0.84401  1.0000
  H   H545      1.0  0.09838  0.04555  0.95350  1.0000
  H   H546      1.0  0.99300  0.01971  0.70633  1.0000
  H   H547      1.0  0.17433  0.22157  0.74672  1.0000
  S   S99       1.0  0.00099  0.12020  0.83500  1.0000
  C   C337      1.0  0.13825  0.12956  0.91851  1.0000
  H   H548      1.0  0.03957  0.14597  0.68653  1.0000
  C   C338      1.0  0.11372  0.44777  0.92964  1.0000
  H   H549      1.0  0.14879  0.00809  0.85784  1.0000
  H   H550      1.0  0.12525  0.02127  0.86198  1.0000
  H   H551      1.0  0.16043  0.02867  0.86341  1.0000
  H   H552      1.0  0.03670  0.99644  0.96307  1.0000
  C   C339      1.0  0.99748  0.28760  0.56390  1.0000
  H   H553      1.0  0.99904  0.05788  0.84573  1.0000
  H   H554      1.0  0.01251  0.21245  0.49893  1.0000
  H   H555      1.0  0.09981  0.46894  0.64704  1.0000
  C   C340      1.0  0.99582  0.04868  0.91458  1.0000
  H   H556      1.0  0.00605  0.33119  0.88121  1.0000
  H   H557      1.0  0.02088  0.03845  0.69113  1.0000
  N   N21       1.0  0.07071  0.15637  0.85690  1.0000
  C   C341      1.0  0.07824  0.14197  0.84513  1.0000
  C   C342      1.0  0.05922  0.17240  0.84614  1.0000
  C   C343      1.0  0.05880  0.14800  0.87446  1.0000
  C   C344      1.0  0.08685  0.16160  0.86097  1.0000
  C   C345      1.0  0.08855  0.12323  0.85437  1.0000
  C   C346      1.0  0.06977  0.18242  0.82797  1.0000
  C   C347      1.0  0.04368  0.16126  0.88499  1.0000
  C   C348      1.0  0.08257  0.17768  0.87110  1.0000
  H   H558      1.0  0.06688  0.13910  0.84017  1.0000
  H   H559      1.0  0.08815  0.14687  0.83253  1.0000
  H   H560      1.0  0.05208  0.18313  0.85427  1.0000
  H   H561      1.0  0.04784  0.16785  0.84284  1.0000
  H   H562      1.0  0.05124  0.13864  0.87161  1.0000
  H   H563      1.0  0.06748  0.13921  0.88435  1.0000
  H   H564      1.0  0.09438  0.14973  0.86973  1.0000
  H   H565      1.0  0.09753  0.16450  0.84829  1.0000
  H   H566      1.0  0.10133  0.12441  0.85797  1.0000
  H   H567      1.0  0.07965  0.11639  0.86667  1.0000
  H   H568      1.0  0.09275  0.11381  0.84447  1.0000
  H   H569      1.0  0.06002  0.19438  0.82191  1.0000
  H   H570      1.0  0.08096  0.18797  0.83020  1.0000
  H   H571      1.0  0.03193  0.16667  0.87780  1.0000
  H   H572      1.0  0.04862  0.17282  0.88707  1.0000
  H   H573      1.0  0.03815  0.15354  0.89881  1.0000
  H   H574      1.0  0.07936  0.17278  0.88626  1.0000
  H   H575      1.0  0.07129  0.18899  0.86695  1.0000
  H   H576      1.0  0.09483  0.18423  0.86754  1.0000
  N   N22       1.0  0.07279  0.35899  0.72432  1.0000
  C   C349      1.0  0.08853  0.34255  0.72599  1.0000
  C   C350      1.0  0.08121  0.37555  0.71437  1.0000
  C   C351      1.0  0.06067  0.35563  0.71314  1.0000
  C   C352      1.0  0.06222  0.36069  0.74349  1.0000
  C   C353      1.0  0.08313  0.32344  0.73249  1.0000
  C   C354      1.0  0.09380  0.38077  0.72431  1.0000
  C   C355      1.0  0.04826  0.37257  0.70355  1.0000
  C   C356      1.0  0.04678  0.37785  0.74550  1.0000
  H   H577      1.0  0.09840  0.34225  0.71257  1.0000
  H   H578      1.0  0.09679  0.34333  0.73574  1.0000
  H   H579      1.0  0.07063  0.38811  0.71140  1.0000
  H   H580      1.0  0.08944  0.37340  0.70056  1.0000
  H   H581      1.0  0.06929  0.34862  0.70188  1.0000
  H   H582      1.0  0.05150  0.34607  0.72174  1.0000
  H   H583      1.0  0.05542  0.34872  0.74998  1.0000
  H   H584      1.0  0.07165  0.35973  0.75283  1.0000
  H   H585      1.0  0.09588  0.31275  0.73369  1.0000
  H   H586      1.0  0.07383  0.32192  0.74621  1.0000
  H   H587      1.0  0.07693  0.32022  0.72233  1.0000
  H   H588      1.0  0.08631  0.38391  0.73791  1.0000
  H   H589      1.0  0.10642  0.37006  0.72573  1.0000
  H   H590      1.0  0.09845  0.39352  0.71590  1.0000
  H   H591      1.0  0.05661  0.38112  0.69224  1.0000
  H   H592      1.0  0.03905  0.38124  0.71303  1.0000
  H   H593      1.0  0.03935  0.36782  0.69698  1.0000
  H   H594      1.0  0.03334  0.37527  0.74472  1.0000
  H   H595      1.0  0.04962  0.39044  0.73542  1.0000
  H   H596      1.0  0.04537  0.38131  0.75909  1.0000
  H   H597      1.0  0.03761  0.01310  0.58987  1.0000
  C   C357      1.0  0.00514  0.24968  0.53774  1.0000
  N   N23       1.0  0.13793  0.01162  0.89650  1.0000
  H   H598      1.0  0.14751  0.20357  0.61549  1.0000
  H   H599      1.0  0.17844  0.20152  0.70494  1.0000
  H   H600      1.0  0.01786  0.20638  0.69858  1.0000
  C   C358      1.0  0.15850  0.01140  0.89173  1.0000
  H   H601      1.0  0.05533  0.36134  0.83868  1.0000
  S   S100      1.0  0.10777  0.08776  0.50272  1.0000
  S   S101      1.0  0.15048  0.04565  0.93484  1.0000
  C   C359      1.0  0.09161  0.03569  0.95127  1.0000
  C   C360      1.0  0.10446  0.19600  0.54629  1.0000
  H   H602      1.0  0.09703  0.41668  0.91966  1.0000
  H   H603      1.0  0.00956  0.43258  0.64810  1.0000
  S   S102      1.0  0.02702  0.99637  0.92185  1.0000
  S   S103      1.0  0.04014  0.42125  0.66906  1.0000
  H   H604      1.0  0.16335  0.01264  0.90386  1.0000
  Fe  Fe47      1.0  0.15482  0.09318  0.50986  1.0000
  H   H605      1.0  0.13982  0.12445  0.93309  1.0000
  H   H606      1.0  0.06231  0.47263  0.49227  1.0000
  N   N24       1.0  0.12113  0.16177  0.54948  1.0000
  C   C361      1.0  0.00265  0.34596  0.88198  1.0000
  H   H607      1.0  0.11396  0.26555  0.88902  1.0000
  H   H608      1.0  0.02248  0.28373  0.54186  1.0000
  H   H609      1.0  0.15090  0.15522  0.54641  1.0000
  H   H610      1.0  0.01320  0.31757  0.54611  1.0000
  Fe  Fe48      1.0  0.05898  0.42995  0.68215  1.0000
  C   C362      1.0  0.04429  0.44931  0.73954  1.0000
  C   C363      1.0  0.14521  0.11239  0.90973  1.0000
  H   H611      1.0  0.16328  0.97980  0.52263  1.0000
  H   H612      1.0  0.12909  0.22752  0.63088  1.0000
  H   H613      1.0  0.17116  0.13014  0.89354  1.0000
  C   C364      1.0  0.10588  0.03346  0.89823  1.0000
  C   C365      1.0  0.10461  0.17577  0.55612  1.0000
  H   H614      1.0  0.11965  0.41839  0.93260  1.0000
  H   H615      1.0  0.13638  0.27117  0.86378  1.0000
  H   H616      1.0  0.10844  0.16261  0.52689  1.0000
  H   H617      1.0  0.05003  0.18882  0.65754  1.0000
  C   C366      1.0  0.02323  0.17460  0.68386  1.0000
  N   N25       1.0  0.17520  0.20736  0.61460  1.0000
  H   H618      1.0  0.02167  0.06699  0.70103  1.0000
  C   C367      1.0  0.01937  0.44696  0.83386  1.0000
  H   H619      1.0  0.10051  0.02900  0.91310  1.0000
  C   C368      1.0  0.11109  0.27124  0.92082  1.0000
  C   C369      1.0  0.00204  0.98372  0.78253  1.0000
  H   H620      1.0  0.13802  0.24133  0.92564  1.0000
  C   C370      1.0  0.12212  0.16307  0.52926  1.0000
  H   H621      1.0  0.09172  0.17234  0.55476  1.0000
  Fe  Fe49      1.0  0.12468  0.07059  0.52336  1.0000
  H   H622      1.0  0.16591  0.22303  0.71020  1.0000
  H   H623      1.0  0.04772  0.43645  0.74894  1.0000
  H   H624      1.0  0.15006  0.16992  0.91819  1.0000
  H   H625      1.0  0.04018  0.36594  0.57795  1.0000
  H   H626      1.0  0.12544  0.17642  0.52096  1.0000
  C   C371      1.0  0.12533  0.16213  0.93523  1.0000
  H   H627      1.0  0.02552  0.32922  0.84705  1.0000
  H   H628      1.0  0.00630  0.34757  0.89451  1.0000
  H   H629      1.0  0.13518  0.15009  0.50575  1.0000
  H   H630      1.0  0.13504  0.01221  0.92520  1.0000
  Fe  Fe50      1.0  0.13497  0.08689  0.48281  1.0000
  H   H631      1.0  0.11863  0.99774  0.89164  1.0000
  S   S104      1.0  0.10256  0.99044  0.50168  1.0000
  H   H632      1.0  0.01105  0.31173  0.52118  1.0000
  H   H633      1.0  0.11958  0.14994  0.94343  1.0000
  H   H634      1.0  0.13436  0.13400  0.52696  1.0000
  H   H635      1.0  0.17472  0.16307  0.88139  1.0000
  H   H636      1.0  0.00941  0.05150  0.91447  1.0000
  S   S105      1.0  0.07277  0.42374  0.63158  1.0000
  C   C372      1.0  0.99287  0.46219  0.49631  1.0000
  H   H637      1.0  0.02051  0.45201  0.81919  1.0000
  Fe  Fe51      1.0  0.08894  0.43240  0.64747  1.0000
  Fe  Fe52      1.0  0.04849  0.44282  0.64452  1.0000
  H   H638      1.0  0.16812  0.17631  0.60435  1.0000
  C   C373      1.0  0.09839  0.45439  0.69302  1.0000
  H   H639      1.0  0.11658  0.20087  0.54737  1.0000
  C   C374      1.0  0.01121  0.45209  0.60281  1.0000
  C   C375      1.0  0.00941  0.09108  0.89797  1.0000
  H   H640      1.0  0.09613  0.44840  0.68216  1.0000
  H   H641      1.0  0.00526  0.42551  0.83484  1.0000
  H   H642      1.0  0.98989  0.19847  0.53782  1.0000
  C   C376      1.0  0.01498  0.44844  0.62054  1.0000
  C   C377      1.0  0.98567  0.03257  0.69847  1.0000
  H   H643      1.0  0.16710  0.46861  0.62845  1.0000
  H   H644      1.0  0.13059  0.03845  0.87911  1.0000
  H   H645      1.0  0.15386  0.12246  0.96244  1.0000
  C   C378      1.0  0.12755  0.25920  0.89303  1.0000
  H   H646      1.0  0.11069  0.30681  0.89870  1.0000
  H   H647      1.0  0.14314  0.26023  0.93139  1.0000
  C   C379      1.0  0.99947  0.30558  0.52108  1.0000
  H   H648      1.0  0.05017  0.32258  0.84030  1.0000
  S   S106      1.0  0.00853  0.42916  0.51619  1.0000
  H   H649      1.0  0.09201  0.20478  0.55309  1.0000
  H   H650      1.0  0.12352  0.16251  0.89946  1.0000
  H   H651      1.0  0.12541  0.42653  0.94970  1.0000
  H   H652      1.0  0.99762  0.44467  0.58493  1.0000
  H   H653      1.0  0.02327  0.26761  0.56298  1.0000
  H   H654      1.0  0.13920  0.16196  0.86529  1.0000
  C   C380      1.0  0.06624  0.16429  0.66989  1.0000
  H   H655      1.0  0.06439  0.01528  0.50765  1.0000
  H   H656      1.0  0.16277  0.12146  0.56727  1.0000
  C   C381      1.0  0.13299  0.00328  0.91672  1.0000
  C   C382      1.0  0.04917  0.00326  0.58360  1.0000
  C   C383      1.0  0.99897  0.15764  0.65213  1.0000
  Fe  Fe53      1.0  0.05320  0.97850  0.91029  1.0000
  C   C384      1.0  0.16733  0.11642  0.95540  1.0000
  C   C385      1.0  0.99548  0.42567  0.63039  1.0000
  H   H657      1.0  0.17247  0.20264  0.90379  1.0000
  H   H658      1.0  0.01963  0.06711  0.88566  1.0000
  H   H659      1.0  0.06791  0.15538  0.68337  1.0000
  H   H660      1.0  0.00176  0.32005  0.56856  1.0000
  C   C386      1.0  0.17003  0.17711  0.63814  1.0000
  C   C387      1.0  0.17064  0.11142  0.54193  1.0000
  C   C388      1.0  0.99308  0.23588  0.56916  1.0000
  H   H661      1.0  0.18030  0.13813  0.95642  1.0000
  H   H662      1.0  0.99411  0.98440  0.58255  1.0000
  C   C389      1.0  0.14519  0.15683  0.92432  1.0000
  N   N26       1.0  0.14758  0.14580  0.90978  1.0000
  H   H663      1.0  0.03713  0.39287  0.84488  1.0000
  H   H664      1.0  0.99165  0.20267  0.48616  1.0000
  H   H665      1.0  0.00881  0.03297  0.57750  1.0000
  H   H666      1.0  0.04923  0.99447  0.55899  1.0000
  H   H667      1.0  0.16397  0.24084  0.89914  1.0000
  C   C390      1.0  0.17663  0.21104  0.71435  1.0000
  H   H668      1.0  0.17431  0.27756  0.71110  1.0000
  H   H669      1.0  0.17879  0.16563  0.63158  1.0000
  C   C391      1.0  0.18379  0.22374  0.61251  1.0000
  C   C392      1.0  0.15929  0.97647  0.55812  1.0000
  C   C393      1.0  0.98929  0.17324  0.65919  1.0000
  C   C394      1.0  0.17915  0.19407  0.63200  1.0000
  H   H670      1.0  0.99226  0.13027  0.75116  1.0000
  H   H671      1.0  0.99996  0.10467  0.89619  1.0000
  H   H672      1.0  0.17590  0.20112  0.64381  1.0000
  H   H673      1.0  0.17876  0.16361  0.90356  1.0000
  C   C395      1.0  0.98714  0.25772  0.53512  1.0000
  C   C396      1.0  0.00473  0.18120  0.51851  1.0000
  S   S107      1.0  0.18309  0.09651  0.51086  1.0000
  C   C397      1.0  0.18396  0.19868  0.59796  1.0000
  C   C398      1.0  0.07786  0.45537  0.96464  1.0000
  H   H674      1.0  0.00666  0.08372  0.91251  1.0000
  H   H675      1.0  0.98785  0.25111  0.49568  1.0000
  C   C399      1.0  0.17283  0.18711  0.59278  1.0000
  H   H676      1.0  0.00617  0.99514  0.96021  1.0000
  N   N27       1.0  0.99006  0.07467  0.88639  1.0000
  H   H677      1.0  0.11724  0.47003  0.58295  1.0000
  H   H678      1.0  0.98914  0.08113  0.84784  1.0000
  H   H679      1.0  0.17933  0.24804  0.70298  1.0000
  H   H680      1.0  0.00479  0.16812  0.52888  1.0000
  H   H681      1.0  0.99902  0.23822  0.47763  1.0000
  H   H682      1.0  0.98694  0.07269  0.66662  1.0000
  H   H683      1.0  0.06350  0.45364  0.96606  1.0000
  H   H684      1.0  0.17144  0.20376  0.72847  1.0000
  H   H685      1.0  0.09752  0.46266  0.72485  1.0000
  H   H686      1.0  0.01786  0.18544  0.51769  1.0000
  H   H687      1.0  0.12738  0.44831  0.92024  1.0000
  H   H688      1.0  0.01155  0.98055  0.76963  1.0000
  H   H689      1.0  0.10023  0.47321  0.60320  1.0000
  H   H690      1.0  0.07381  0.47230  0.72516  1.0000
  H   H691      1.0  0.12114  0.47420  0.70296  1.0000
  Fe  Fe54      1.0  0.06258  0.92221  0.15565  1.0000
  S   S108      1.0  0.03795  0.92037  0.14522  1.0000
  Fe  Fe55      1.0  0.07183  0.92402  0.19172  1.0000
  S   S109      1.0  0.10195  0.92246  0.17932  1.0000
  S   S110      1.0  0.06115  0.92344  0.22211  1.0000
  Fe  Fe56      1.0  0.09901  0.90084  0.16580  1.0000
  C   C400      1.0  0.00839  0.59783  0.28828  1.0000
  S   S111      1.0  0.06215  0.94565  0.16856  1.0000
  S   S112      1.0  0.06960  0.90073  0.18021  1.0000
  Fe  Fe57      1.0  0.01878  0.91139  0.05478  1.0000
  S   S113      1.0  0.02242  0.90358  0.02752  1.0000
  S   S114      1.0  0.04388  0.91579  0.06244  1.0000
  Fe  Fe58      1.0  0.99691  0.92489  0.02428  1.0000
  H   H692      1.0  0.15067  0.64480  0.40239  1.0000
  H   H693      1.0  0.02745  0.74751  0.32788  1.0000
  Fe  Fe59      1.0  0.00298  0.88449  0.04238  1.0000
  S   S115      1.0  0.00845  0.85683  0.03444  1.0000
  S   S116      1.0  0.15904  0.59708  0.45351  1.0000
  C   C401      1.0  0.99069  0.70269  0.37009  1.0000
  S   S117      1.0  0.00195  0.88999  0.07008  1.0000
  H   H694      1.0  0.00429  0.66540  0.07546  1.0000
  Fe  Fe60      1.0  0.07804  0.75206  0.32915  1.0000
  S   S118      1.0  0.09734  0.72597  0.33825  1.0000
  S   S119      1.0  0.06997  0.76072  0.30136  1.0000
  Fe  Fe61      1.0  0.06618  0.76114  0.36755  1.0000
  S   S120      1.0  0.08441  0.73551  0.38011  1.0000
  S   S121      1.0  0.04264  0.78012  0.38231  1.0000
  Fe  Fe62      1.0  0.10555  0.74232  0.35436  1.0000
  S   S122      1.0  0.13644  0.73643  0.35223  1.0000
  Fe  Fe63      1.0  0.07497  0.72107  0.36306  1.0000
  S   S123      1.0  0.06619  0.69369  0.37389  1.0000
  S   S124      1.0  0.08808  0.76925  0.34294  1.0000
  S   S125      1.0  0.05497  0.74587  0.35282  1.0000
  N   N28       1.0  0.99862  0.72468  0.33885  1.0000
  Fe  Fe64      1.0  0.10586  0.73671  0.18434  1.0000
  S   S126      1.0  0.13328  0.72658  0.19273  1.0000
  S   S127      1.0  0.08541  0.71855  0.18880  1.0000
  Fe  Fe65      1.0  0.11087  0.77629  0.17234  1.0000
  S   S128      1.0  0.09441  0.80435  0.16261  1.0000
  Fe  Fe66      1.0  0.12616  0.75163  0.20511  1.0000
  S   S129      1.0  0.13416  0.74994  0.23200  1.0000
  S   S130      1.0  0.09769  0.76025  0.19905  1.0000
  C   C402      1.0  0.09018  0.58596  0.37998  1.0000
  Fe  Fe67      1.0  0.11944  0.60895  0.00033  1.0000
  S   S131      1.0  0.10695  0.63720  0.00630  1.0000
  S   S132      1.0  0.12868  0.58499  0.02190  1.0000
  Fe  Fe68      1.0  0.06172  0.68569  0.11371  1.0000
  S   S133      1.0  0.04887  0.66075  0.12483  1.0000
  S   S134      1.0  0.08917  0.68712  0.11866  1.0000
  H   H695      1.0  0.16403  0.51547  0.01894  1.0000
  H   H696      1.0  0.01837  0.53417  0.45696  1.0000
  C   C403      1.0  0.99154  0.74152  0.34736  1.0000
  Fe  Fe69      1.0  0.02195  0.68108  0.12699  1.0000
  H   H697      1.0  0.06032  0.96092  0.20189  1.0000
  Fe  Fe70      1.0  0.04629  0.66337  0.09569  1.0000
  S   S135      1.0  0.05193  0.63834  0.08321  1.0000
  S   S136      1.0  0.03501  0.70607  0.11819  1.0000
  S   S137      1.0  0.06124  0.68669  0.08437  1.0000
  H   H698      1.0  0.16858  0.71035  0.36022  1.0000
  Fe  Fe71      1.0  0.02477  0.85917  0.43239  1.0000
  H   H699      1.0  0.99103  0.81264  0.42965  1.0000
  S   S138      1.0  0.05096  0.84002  0.42196  1.0000
  Fe  Fe72      1.0  0.00778  0.88925  0.45507  1.0000
  H   H700      1.0  0.02717  0.65853  0.99669  1.0000
  S   S139      1.0  0.01001  0.85862  0.46188  1.0000
  S   S140      1.0  0.99767  0.67923  0.15076  1.0000
  C   C404      1.0  0.00338  0.67158  0.06088  1.0000
  Fe  Fe73      1.0  0.99869  0.89304  0.41767  1.0000
  H   H701      1.0  0.10094  0.69249  0.42925  1.0000
  H   H702      1.0  0.99755  0.69094  0.37951  1.0000
  S   S141      1.0  0.02528  0.88932  0.42671  1.0000
  C   C405      1.0  0.04538  0.89580  0.34169  1.0000
  C   C406      1.0  0.98548  0.81754  0.08229  1.0000
  C   C407      1.0  0.13046  0.48920  0.04678  1.0000
  H   H703      1.0  0.05586  0.57955  0.99642  1.0000
  H   H704      1.0  0.06240  0.55525  0.99816  1.0000
  H   H705      1.0  0.00406  0.79088  0.03725  1.0000
  H   H706      1.0  0.04610  0.69346  0.00800  1.0000
  Fe  Fe74      1.0  0.04194  0.50797  0.38000  1.0000
  H   H707      1.0  0.18245  0.73822  0.10844  1.0000
  S   S142      1.0  0.04048  0.53202  0.35599  1.0000
  H   H708      1.0  0.12160  0.94402  0.20049  1.0000
  H   H709      1.0  0.98841  0.94205  0.44012  1.0000
  C   C408      1.0  0.04710  0.70330  0.03130  1.0000
  Fe  Fe75      1.0  0.06990  0.48571  0.40309  1.0000
  C   C409      1.0  0.00438  0.95278  0.27326  1.0000
  H   H710      1.0  0.17225  0.76959  0.15198  1.0000
  S   S143      1.0  0.99145  0.91277  0.39211  1.0000
  S   S144      1.0  0.04737  0.51043  0.40660  1.0000
  S   S145      1.0  0.10319  0.47569  0.99603  1.0000
  H   H711      1.0  0.04294  0.66834  0.37630  1.0000
  C   C410      1.0  0.98724  0.56134  0.32703  1.0000
  H   H712      1.0  0.03666  0.72384  0.33748  1.0000
  H   H713      1.0  0.05855  0.89995  0.34087  1.0000
  Fe  Fe76      1.0  0.03336  0.70482  0.08973  1.0000
  Fe  Fe77      1.0  0.14336  0.53949  0.44878  1.0000
  S   S146      1.0  0.16173  0.55754  0.42872  1.0000
  C   C411      1.0  0.15775  0.70544  0.12253  1.0000
  C   C412      1.0  0.00013  0.62423  0.16109  1.0000
  C   C413      1.0  0.00431  0.64176  0.15347  1.0000
  Fe  Fe78      1.0  0.16373  0.56680  0.45352  1.0000
  H   H714      1.0  0.00690  0.75786  0.35549  1.0000
  Fe  Fe79      1.0  0.15496  0.58095  0.00095  1.0000
  C   C414      1.0  0.04590  0.67790  0.32985  1.0000
  H   H715      1.0  0.04574  0.48782  0.45307  1.0000
  H   H716      1.0  0.12751  0.50157  0.98437  1.0000
  H   H717      1.0  0.04650  0.66738  0.99731  1.0000
  C   C415      1.0  0.04735  0.67424  0.36192  1.0000
  H   H718      1.0  0.15952  0.62283  0.04538  1.0000
  H   H719      1.0  0.04876  0.69812  0.04579  1.0000
  C   C416      1.0  0.16713  0.64396  0.99214  1.0000
  C   C417      1.0  0.99040  0.83647  0.02281  1.0000
  H   H720      1.0  0.99860  0.78449  0.42423  1.0000
  H   H721      1.0  0.06779  0.58251  0.40265  1.0000
  H   H722      1.0  0.17186  0.67626  0.14650  1.0000
  Fe  Fe80      1.0  0.11876  0.56825  0.00749  1.0000
  C   C418      1.0  0.05802  0.48983  0.45707  1.0000
  H   H723      1.0  0.04362  0.87229  0.14928  1.0000
  S   S147      1.0  0.10686  0.59280  0.98779  1.0000
  C   C419      1.0  0.98696  0.77723  0.43039  1.0000
  C   C420      1.0  0.04616  0.94063  0.43189  1.0000
  C   C421      1.0  0.10362  0.49878  0.41730  1.0000
  C   C422      1.0  0.12070  0.49588  0.42239  1.0000
  C   C423      1.0  0.12464  0.50886  0.43023  1.0000
  C   C424      1.0  0.11139  0.52468  0.43313  1.0000
  C   C425      1.0  0.09445  0.52769  0.42779  1.0000
  C   C426      1.0  0.09067  0.51487  0.41974  1.0000
  H   H724      1.0  0.03256  0.97363  0.97010  1.0000
  H   H725      1.0  0.13774  0.50646  0.43432  1.0000
  H   H726      1.0  0.08417  0.53988  0.43009  1.0000
  H   H727      1.0  0.07764  0.51729  0.41571  1.0000
  H   H728      1.0  0.00063  0.81521  0.07711  1.0000
  C   C427      1.0  0.04826  0.72651  0.27451  1.0000
  H   H729      1.0  0.98743  0.77056  0.44491  1.0000
  H   H730      1.0  0.04526  0.84858  0.14774  1.0000
  H   H731      1.0  0.03612  0.71585  0.03033  1.0000
  H   H732      1.0  0.17140  0.67064  0.11555  1.0000
  C   C428      1.0  0.12655  0.83864  0.16428  1.0000
  H   H733      1.0  0.03108  0.66053  0.35238  1.0000
  H   H734      1.0  0.09440  0.49638  0.46300  1.0000
  C   C429      1.0  0.16951  0.60162  0.02937  1.0000
  H   H735      1.0  0.02013  0.88422  0.99906  1.0000
  S   S148      1.0  0.01819  0.68151  0.09881  1.0000
  H   H736      1.0  0.11317  0.65684  0.42836  1.0000
  C   C430      1.0  0.99211  0.69668  0.02155  1.0000
  C   C431      1.0  0.01148  0.94298  0.97736  1.0000
  C   C432      1.0  0.00467  0.74399  0.04270  1.0000
  H   H737      1.0  0.07814  0.95599  0.98259  1.0000
  S   S149      1.0  0.02109  0.48995  0.39352  1.0000
  H   H738      1.0  0.14626  0.95930  0.08044  1.0000
  S   S150      1.0  0.17401  0.71471  0.42143  1.0000
  C   C433      1.0  0.17206  0.97087  0.08994  1.0000
  H   H739      1.0  0.12302  0.96701  0.07621  1.0000
  C   C434      1.0  0.17102  0.71176  0.38725  1.0000
  C   C435      1.0  0.16321  0.47631  0.03254  1.0000
  H   H740      1.0  0.05467  0.95050  0.43199  1.0000
  H   H741      1.0  0.01548  0.75129  0.03471  1.0000
  H   H742      1.0  0.01948  0.93985  0.24101  1.0000
  S   S151      1.0  0.10157  0.54729  0.02394  1.0000
  S   S152      1.0  0.99446  0.93441  0.05050  1.0000
  C   C436      1.0  0.00693  0.73210  0.05950  1.0000
  H   H743      1.0  0.11508  0.64999  0.38962  1.0000
  C   C437      1.0  0.13911  0.95112  0.14567  1.0000
  H   H744      1.0  0.02292  0.92907  0.41437  1.0000
  C   C438      1.0  0.00757  0.92588  0.37786  1.0000
  C   C439      1.0  0.02595  0.92180  0.37989  1.0000
  C   C440      1.0  0.03861  0.93221  0.36804  1.0000
  C   C441      1.0  0.03291  0.94690  0.35423  1.0000
  C   C442      1.0  0.01453  0.95105  0.35225  1.0000
  C   C443      1.0  0.00193  0.94049  0.36397  1.0000
  H   H745      1.0  0.03052  0.91042  0.39032  1.0000
  H   H746      1.0  0.05286  0.92891  0.36954  1.0000
  Fe  Fe81      1.0  0.02888  0.49005  0.41993  1.0000
  H   H747      1.0  0.00904  0.80749  0.04761  1.0000
  H   H748      1.0  0.10530  0.70502  0.40570  1.0000
  Fe  Fe82      1.0  0.98886  0.63339  0.34481  1.0000
  H   H749      1.0  0.01513  0.64366  0.14138  1.0000
  H   H750      1.0  0.99375  0.53149  0.33173  1.0000
  C   C444      1.0  0.09175  0.63730  0.02769  1.0000
  C   C445      1.0  0.08489  0.62160  0.03768  1.0000
  C   C446      1.0  0.07250  0.62212  0.05464  1.0000
  C   C447      1.0  0.06708  0.63825  0.06173  1.0000
  C   C448      1.0  0.07404  0.65388  0.05175  1.0000
  C   C449      1.0  0.08633  0.65341  0.03476  1.0000
  H   H751      1.0  0.08898  0.60912  0.03227  1.0000
  H   H752      1.0  0.06718  0.60996  0.06231  1.0000
  H   H753      1.0  0.06990  0.66638  0.05699  1.0000
  H   H754      1.0  0.09165  0.66557  0.02708  1.0000
  C   C450      1.0  0.08640  0.71000  0.16920  1.0000
  C   C451      1.0  0.10234  0.70909  0.15534  1.0000
  C   C452      1.0  0.10305  0.70199  0.13992  1.0000
  C   C453      1.0  0.08776  0.69605  0.13812  1.0000
  C   C454      1.0  0.07178  0.69706  0.15192  1.0000
  C   C455      1.0  0.07118  0.70385  0.16753  1.0000
  H   H755      1.0  0.11419  0.71363  0.15667  1.0000
  H   H756      1.0  0.11537  0.70120  0.12926  1.0000
  H   H757      1.0  0.05995  0.69242  0.15067  1.0000
  H   H758      1.0  0.05883  0.70449  0.17822  1.0000
  S   S153      1.0  0.00963  0.63468  0.31820  1.0000
  H   H759      1.0  0.98981  0.88540  0.00624  1.0000
  S   S154      1.0  0.12117  0.87511  0.16533  1.0000
  H   H760      1.0  0.00253  0.95235  0.20649  1.0000
  S   S155      1.0  0.98785  0.67703  0.30676  1.0000
  C   C456      1.0  0.10262  0.49579  0.00348  1.0000
  C   C457      1.0  0.08844  0.50166  0.01756  1.0000
  C   C458      1.0  0.08832  0.51748  0.02368  1.0000
  C   C459      1.0  0.10222  0.52770  0.01560  1.0000
  C   C460      1.0  0.11635  0.52196  0.00137  1.0000
  H   H761      1.0  0.00783  0.61266  0.15487  1.0000
  H   H762      1.0  0.07733  0.52186  0.03467  1.0000
  H   H763      1.0  0.07743  0.49412  0.02368  1.0000
  H   H764      1.0  0.02520  0.86575  0.14384  1.0000
  C   C461      1.0  0.02771  0.56880  0.34586  1.0000
  C   C462      1.0  0.02562  0.55292  0.35942  1.0000
  C   C463      1.0  0.01203  0.55408  0.37540  1.0000
  H   H765      1.0  0.01117  0.90828  0.97167  1.0000
  H   H766      1.0  0.03836  0.56796  0.33357  1.0000
  H   H767      1.0  0.01036  0.54187  0.38593  1.0000
  C   C464      1.0  0.13248  0.80201  0.21179  1.0000
  C   C465      1.0  0.04572  0.79587  0.39394  1.0000
  C   C466      1.0  0.02993  0.80647  0.40293  1.0000
  C   C467      1.0  0.03147  0.81956  0.41208  1.0000
  C   C468      1.0  0.04886  0.82243  0.41202  1.0000
  C   C469      1.0  0.06474  0.81175  0.40312  1.0000
  C   C470      1.0  0.06319  0.79845  0.39410  1.0000
  H   H768      1.0  0.01647  0.80460  0.40262  1.0000
  H   H769      1.0  0.01923  0.82743  0.41914  1.0000
  H   H770      1.0  0.07825  0.81384  0.40311  1.0000
  H   H771      1.0  0.07545  0.79029  0.38721  1.0000
  C   C471      1.0  0.14534  0.72885  0.37249  1.0000
  C   C472      1.0  0.16221  0.71634  0.37222  1.0000
  H   H772      1.0  0.03532  0.51988  0.44338  1.0000
  H   H773      1.0  0.05042  0.54647  0.97207  1.0000
  C   C473      1.0  0.14561  0.73157  0.40330  1.0000
  C   C474      1.0  0.13680  0.73614  0.38822  1.0000
  H   H774      1.0  0.05867  0.52325  0.98101  1.0000
  N   N29       1.0  0.06894  0.70452  0.25304  1.0000
  H   H775      1.0  0.13919  0.73759  0.41529  1.0000
  H   H776      1.0  0.12376  0.74584  0.38851  1.0000
  C   C475      1.0  0.08797  0.75715  0.28241  1.0000
  C   C476      1.0  0.08365  0.75943  0.26516  1.0000
  C   C477      1.0  0.09773  0.75685  0.24972  1.0000
  C   C478      1.0  0.11623  0.75232  0.25136  1.0000
  C   C479      1.0  0.12056  0.75013  0.26862  1.0000
  C   C480      1.0  0.10644  0.75241  0.28416  1.0000
  H   H777      1.0  0.06937  0.76322  0.26376  1.0000
  H   H778      1.0  0.09423  0.75851  0.23657  1.0000
  H   H779      1.0  0.13485  0.74662  0.26999  1.0000
  H   H780      1.0  0.10986  0.75069  0.29745  1.0000
  C   C481      1.0  0.05924  0.68678  0.35689  1.0000
  C   C482      1.0  0.05847  0.68970  0.32480  1.0000
  C   C483      1.0  0.06499  0.69424  0.33828  1.0000
  H   H781      1.0  0.06281  0.69580  0.31048  1.0000
  H   H782      1.0  0.07424  0.70381  0.33424  1.0000
  H   H783      1.0  0.15638  0.60296  0.02577  1.0000
  H   H784      1.0  0.06818  0.51944  0.46128  1.0000
  H   H785      1.0  0.13360  0.68079  0.42877  1.0000
  C   C484      1.0  0.16289  0.71961  0.40273  1.0000
  S   S156      1.0  0.99170  0.66026  0.34977  1.0000
  C   C485      1.0  0.15397  0.51873  0.03147  1.0000
  H   H786      1.0  0.17479  0.47950  0.07496  1.0000
  C   C486      1.0  0.98864  0.84995  0.03293  1.0000
  S   S157      1.0  0.99904  0.86296  0.42162  1.0000
  H   H787      1.0  0.09170  0.96751  0.22494  1.0000
  H   H788      1.0  0.00999  0.96241  0.34167  1.0000
  H   H789      1.0  0.18121  0.75833  0.19510  1.0000
  Fe  Fe83      1.0  0.13485  0.58764  0.96945  1.0000
  H   H790      1.0  0.00394  0.83030  0.01605  1.0000
  S   S158      1.0  0.11680  0.75336  0.15701  1.0000
  H   H791      1.0  0.02595  0.95004  0.20922  1.0000
  H   H792      1.0  0.17768  0.74819  0.35975  1.0000
  H   H793      1.0  0.06653  0.70086  0.22646  1.0000
  C   C487      1.0  0.06171  0.71127  0.23541  1.0000
  C   C488      1.0  0.05827  0.94423  0.22920  1.0000
  C   C489      1.0  0.14793  0.65601  0.41013  1.0000
  N   N30       1.0  0.17512  0.69892  0.10931  1.0000
  C   C490      1.0  0.99521  0.54328  0.31992  1.0000
  C   C491      1.0  0.01019  0.79266  0.04819  1.0000
  C   C492      1.0  0.05536  0.94425  0.24801  1.0000
  H   H794      1.0  0.07932  0.56882  0.99632  1.0000
  C   C493      1.0  0.00573  0.57972  0.30209  1.0000
  H   H795      1.0  0.99448  0.71370  0.08283  1.0000
  H   H796      1.0  0.05528  0.93143  0.25797  1.0000
  Fe  Fe84      1.0  0.09232  0.94249  0.15516  1.0000
  C   C494      1.0  0.10213  0.82344  0.16441  1.0000
  C   C495      1.0  0.08929  0.83980  0.16611  1.0000
  C   C496      1.0  0.09507  0.85560  0.16662  1.0000
  H   H797      1.0  0.07481  0.84029  0.16703  1.0000
  H   H798      1.0  0.08510  0.86819  0.16762  1.0000
  C   C497      1.0  0.03929  0.92097  0.12176  1.0000
  C   C498      1.0  0.02404  0.91833  0.11634  1.0000
  C   C499      1.0  0.02514  0.91717  0.09805  1.0000
  C   C500      1.0  0.04152  0.91870  0.08507  1.0000
  C   C501      1.0  0.05659  0.92191  0.09035  1.0000
  C   C502      1.0  0.05546  0.92313  0.10862  1.0000
  H   H799      1.0  0.01145  0.91676  0.12642  1.0000
  H   H800      1.0  0.01342  0.91479  0.09409  1.0000
  H   H801      1.0  0.06924  0.92326  0.08031  1.0000
  H   H802      1.0  0.06721  0.92538  0.11262  1.0000
  S   S159      1.0  0.09201  0.92074  0.14024  1.0000
  H   H803      1.0  0.06433  0.49942  0.44507  1.0000
  C   C503      1.0  0.12077  0.82277  0.16374  1.0000
  C   C504      1.0  0.17664  0.62564  0.44740  1.0000
  H   H804      1.0  0.99577  0.56178  0.33673  1.0000
  C   C505      1.0  0.00052  0.57111  0.37772  1.0000
  S   S160      1.0  0.13887  0.76963  0.17951  1.0000
  H   H805      1.0  0.02169  0.68961  0.05697  1.0000
  C   C506      1.0  0.01342  0.95954  0.45522  1.0000
  H   H806      1.0  0.08341  0.53361  0.98379  1.0000
  H   H807      1.0  0.05394  0.67665  0.24609  1.0000
  H   H808      1.0  0.09797  0.71757  0.22402  1.0000
  H   H809      1.0  0.16282  0.96233  0.10014  1.0000
  H   H810      1.0  0.14016  0.69486  0.40700  1.0000
  H   H811      1.0  0.16475  0.71535  0.08495  1.0000
  H   H812      1.0  0.05613  0.94945  0.98986  1.0000
  H   H813      1.0  0.03467  0.90116  0.35275  1.0000
  H   H814      1.0  0.00904  0.85667  0.36913  1.0000
  H   H815      1.0  0.04329  0.57175  0.41995  1.0000
  H   H816      1.0  0.04861  0.73912  0.27896  1.0000
  C   C507      1.0  0.00265  0.74431  0.36052  1.0000
  H   H817      1.0  0.05171  0.91540  0.42060  1.0000
  C   C508      1.0  0.11413  0.64586  0.40472  1.0000
  H   H818      1.0  0.11436  0.95670  0.22811  1.0000
  H   H819      1.0  0.05057  0.96071  0.26852  1.0000
  C   C509      1.0  0.03091  0.73313  0.32586  1.0000
  H   H820      1.0  0.99158  0.68344  0.06119  1.0000
  H   H821      1.0  0.04389  0.94797  0.39612  1.0000
  H   H822      1.0  0.06596  0.68458  0.27868  1.0000
  H   H823      1.0  0.09159  0.68572  0.23961  1.0000
  S   S161      1.0  0.11489  0.54057  0.44427  1.0000
  H   H824      1.0  0.01813  0.92649  0.43863  1.0000
  H   H825      1.0  0.12767  0.49883  0.03395  1.0000
  H   H826      1.0  0.06737  0.93103  0.40892  1.0000
  Fe  Fe85      1.0  0.01053  0.66249  0.32196  1.0000
  C   C510      1.0  0.10202  0.70984  0.23716  1.0000
  C   C511      1.0  0.03597  0.95883  0.40392  1.0000
  H   H827      1.0  0.10217  0.58266  0.38683  1.0000
  C   C512      1.0  0.01963  0.96578  0.43421  1.0000
  N   N31       1.0  0.06924  0.86318  0.11510  1.0000
  C   C513      1.0  0.07721  0.87356  0.12457  1.0000
  C   C514      1.0  0.04850  0.86801  0.12086  1.0000
  C   C515      1.0  0.07510  0.86962  0.09456  1.0000
  C   C516      1.0  0.07680  0.84293  0.12090  1.0000
  C   C517      1.0  0.09836  0.87214  0.11930  1.0000
  C   C518      1.0  0.04050  0.86323  0.14168  1.0000
  C   C519      1.0  0.06297  0.86736  0.08221  1.0000
  C   C520      1.0  0.06920  0.82936  0.11439  1.0000
  H   H828      1.0  0.07080  0.88843  0.12201  1.0000
  H   H829      1.0  0.07393  0.86889  0.13972  1.0000
  H   H830      1.0  0.04138  0.86150  0.11405  1.0000
  H   H831      1.0  0.04364  0.88302  0.11620  1.0000
  H   H832      1.0  0.07535  0.88460  0.09116  1.0000
  H   H833      1.0  0.08947  0.86261  0.08950  1.0000
  H   H834      1.0  0.09200  0.83978  0.11579  1.0000
  H   H835      1.0  0.07541  0.83868  0.13606  1.0000
  H   H836      1.0  0.10594  0.85795  0.12364  1.0000
  H   H837      1.0  0.10323  0.87729  0.10442  1.0000
  H   H838      1.0  0.10220  0.88087  0.12678  1.0000
  H   H839      1.0  0.06968  0.87143  0.06755  1.0000
  H   H840      1.0  0.04927  0.87674  0.08409  1.0000
  H   H841      1.0  0.06110  0.85310  0.08435  1.0000
  H   H842      1.0  0.07714  0.82697  0.10063  1.0000
  H   H843      1.0  0.05431  0.83348  0.11420  1.0000
  H   H844      1.0  0.07056  0.81599  0.12436  1.0000
  C   C521      1.0  0.04065  0.71768  0.23699  1.0000
  H   H845      1.0  0.04492  0.69478  0.27168  1.0000
  H   H846      1.0  0.00565  0.76771  0.06714  1.0000
  H   H847      1.0  0.05219  0.66341  0.26902  1.0000
  H   H848      1.0  0.13947  0.66513  0.37775  1.0000
  H   H849      1.0  0.04542  0.71602  0.28724  1.0000
  H   H850      1.0  0.03647  0.73268  0.23672  1.0000
  H   H851      1.0  0.03231  0.71018  0.24915  1.0000
  H   H852      1.0  0.03678  0.71499  0.22499  1.0000
  H   H853      1.0  0.17379  0.65332  0.02662  1.0000
  N   N32       1.0  0.09819  0.81235  0.22668  1.0000
  C   C522      1.0  0.11211  0.80041  0.21452  1.0000
  C   C523      1.0  0.07951  0.80786  0.22877  1.0000
  C   C524      1.0  0.10376  0.80768  0.24523  1.0000
  C   C525      1.0  0.09871  0.83214  0.21748  1.0000
  C   C526      1.0  0.07234  0.81105  0.21090  1.0000
  C   C527      1.0  0.08821  0.80948  0.26244  1.0000
  C   C528      1.0  0.08382  0.84684  0.22616  1.0000
  H   H854      1.0  0.10915  0.80359  0.20046  1.0000
  H   H855      1.0  0.06863  0.81592  0.23791  1.0000
  H   H856      1.0  0.07966  0.79318  0.23559  1.0000
  H   H857      1.0  0.11117  0.79307  0.24821  1.0000
  H   H858      1.0  0.11379  0.81604  0.24526  1.0000
  H   H859      1.0  0.11220  0.83548  0.21709  1.0000
  H   H860      1.0  0.09769  0.83458  0.20282  1.0000
  H   H861      1.0  0.14150  0.79141  0.20421  1.0000
  H   H862      1.0  0.07187  0.82533  0.20298  1.0000
  H   H863      1.0  0.08051  0.80116  0.20211  1.0000
  H   H864      1.0  0.05799  0.80863  0.21448  1.0000
  H   H865      1.0  0.09450  0.80742  0.27459  1.0000
  H   H866      1.0  0.08000  0.79857  0.26554  1.0000
  H   H867      1.0  0.07880  0.82305  0.26131  1.0000
  H   H868      1.0  0.06966  0.84559  0.22621  1.0000
  H   H869      1.0  0.08564  0.86063  0.21773  1.0000
  H   H870      1.0  0.08528  0.84674  0.24019  1.0000
  N   N33       1.0  0.02456  0.68348  0.03008  1.0000
  C   C529      1.0  0.04346  0.68835  0.02318  1.0000
  C   C530      1.0  0.02480  0.66711  0.02240  1.0000
  C   C531      1.0  0.02157  0.67797  0.05080  1.0000
  H   H871      1.0  0.14530  0.64924  0.42498  1.0000
  H   H872      1.0  0.04353  0.83494  0.37469  1.0000
  H   H873      1.0  0.10020  0.95690  0.19372  1.0000
  C   C532      1.0  0.10622  0.96454  0.21739  1.0000
  H   H874      1.0  0.01475  0.94026  0.27059  1.0000
  H   H875      1.0  0.05442  0.67593  0.02568  1.0000
  H   H876      1.0  0.17538  0.67375  0.00875  1.0000
  H   H877      1.0  0.01104  0.66334  0.02598  1.0000
  H   H878      1.0  0.03410  0.65468  0.02870  1.0000
  H   H879      1.0  0.03310  0.66676  0.05497  1.0000
  C   C533      1.0  0.11843  0.68995  0.37663  1.0000
  C   C534      1.0  0.03120  0.66933  0.00132  1.0000
  H   H880      1.0  0.03600  0.84364  0.35357  1.0000
  H   H881      1.0  0.15032  0.49722  0.01051  1.0000
  C   C535      1.0  0.18043  0.74380  0.20161  1.0000
  N   N34       1.0  0.13139  0.67058  0.40556  1.0000
  H   H882      1.0  0.00507  0.60960  0.29526  1.0000
  H   H883      1.0  0.13824  0.72277  0.10520  1.0000
  H   H884      1.0  0.00225  0.47899  0.24301  1.0000
  H   H885      1.0  0.14621  0.68445  0.37999  1.0000
  H   H886      1.0  0.12506  0.63370  0.40804  1.0000
  C   C536      1.0  0.07021  0.57187  0.97027  1.0000
  H   H887      1.0  0.06926  0.91736  0.43116  1.0000
  C   C537      1.0  0.14541  0.72391  0.11568  1.0000
  S   S162      1.0  0.14595  0.56194  0.98839  1.0000
  N   N35       1.0  0.06270  0.57055  0.38211  1.0000
  C   C538      1.0  0.05097  0.55809  0.39604  1.0000
  C   C539      1.0  0.07282  0.56045  0.36678  1.0000
  C   C540      1.0  0.04997  0.58798  0.37489  1.0000
  H   H888      1.0  0.09995  0.93957  0.21410  1.0000
  C   C541      1.0  0.03669  0.56678  0.41130  1.0000
  C   C542      1.0  0.08573  0.54193  0.37239  1.0000
  C   C543      1.0  0.05694  0.59906  0.35564  1.0000
  H   H889      1.0  0.98772  0.54190  0.30983  1.0000
  H   H890      1.0  0.04316  0.55240  0.38904  1.0000
  H   H891      1.0  0.05974  0.54601  0.40327  1.0000
  H   H892      1.0  0.08133  0.56885  0.35553  1.0000
  H   H893      1.0  0.06273  0.55765  0.36006  1.0000
  H   H894      1.0  0.03682  0.58482  0.37392  1.0000
  H   H895      1.0  0.09477  0.68893  0.26074  1.0000
  C   C544      1.0  0.05970  0.68964  0.26620  1.0000
  H   H896      1.0  0.99379  0.74462  0.37441  1.0000
  H   H897      1.0  0.08148  0.60443  0.12684  1.0000
  H   H898      1.0  0.02603  0.57806  0.40572  1.0000
  H   H899      1.0  0.02921  0.55610  0.42053  1.0000
  H   H900      1.0  0.09628  0.54331  0.37933  1.0000
  H   H901      1.0  0.07790  0.53135  0.38112  1.0000
  H   H902      1.0  0.09325  0.53656  0.35979  1.0000
  H   H903      1.0  0.07044  0.60266  0.35426  1.0000
  H   H904      1.0  0.04684  0.61219  0.35303  1.0000
  H   H905      1.0  0.05766  0.59163  0.34469  1.0000
  H   H906      1.0  0.16002  0.69309  0.09175  1.0000
  N   N36       1.0  0.15059  0.48525  0.04787  1.0000
  C   C545      1.0  0.00798  0.47596  0.46567  1.0000
  N   N37       1.0  0.11172  0.62638  0.09004  1.0000
  C   C546      1.0  0.09814  0.61402  0.10017  1.0000
  C   C547      1.0  0.11694  0.62407  0.07029  1.0000
  C   C548      1.0  0.10181  0.64593  0.09082  1.0000
  C   C549      1.0  0.12805  0.62109  0.09939  1.0000
  C   C550      1.0  0.08917  0.61575  0.12025  1.0000
  C   C551      1.0  0.12525  0.60428  0.06732  1.0000
  C   C552      1.0  0.11255  0.66121  0.08021  1.0000
  C   C553      1.0  0.14653  0.62607  0.08767  1.0000
  H   H907      1.0  0.08669  0.61640  0.09271  1.0000
  H   H908      1.0  0.10487  0.59928  0.10082  1.0000
  H   H909      1.0  0.12681  0.63271  0.06165  1.0000
  H   H910      1.0  0.10465  0.62895  0.06383  1.0000
  H   H911      1.0  0.08871  0.64896  0.08570  1.0000
  H   H912      1.0  0.09768  0.64807  0.10526  1.0000
  H   H913      1.0  0.12468  0.62719  0.11188  1.0000
  H   H914      1.0  0.13116  0.60590  0.10440  1.0000
  H   H915      1.0  0.09949  0.61468  0.12858  1.0000
  H   H916      1.0  0.07884  0.62872  0.12087  1.0000
  S   S163      1.0  0.09852  0.48188  0.40851  1.0000
  H   H917      1.0  0.13083  0.60471  0.05241  1.0000
  H   H918      1.0  0.13672  0.59754  0.07468  1.0000
  H   H919      1.0  0.11452  0.59573  0.07136  1.0000
  H   H920      1.0  0.10323  0.67474  0.08129  1.0000
  H   H921      1.0  0.11716  0.66112  0.06533  1.0000
  H   H922      1.0  0.12423  0.66081  0.08656  1.0000
  H   H923      1.0  0.15393  0.62979  0.09656  1.0000
  H   H924      1.0  0.14542  0.63775  0.07589  1.0000
  H   H925      1.0  0.15587  0.61387  0.08275  1.0000
  H   H926      1.0  0.99166  0.75077  0.09248  1.0000
  C   C554      1.0  0.06715  0.72023  0.26238  1.0000
  C   C555      1.0  0.00492  0.70747  0.35225  1.0000
  H   H927      1.0  0.01532  0.73392  0.36227  1.0000
  H   H928      1.0  0.00876  0.69538  0.34551  1.0000
  H   H929      1.0  0.11953  0.68779  0.36256  1.0000
  H   H930      1.0  0.13711  0.79948  0.22496  1.0000
  H   H931      1.0  0.15295  0.73533  0.11039  1.0000
  C   C556      1.0  0.06699  0.56842  0.99146  1.0000
  H   H932      1.0  0.04222  0.73262  0.31352  1.0000
  H   H933      1.0  0.12728  0.52962  0.99523  1.0000
  H   H934      1.0  0.01817  0.59796  0.33780  1.0000
  N   N38       1.0  0.98621  0.57877  0.31247  1.0000
  H   H935      1.0  0.10158  0.67206  0.41164  1.0000
  H   H936      1.0  0.00951  0.73863  0.31127  1.0000
  C   C557      1.0  0.01623  0.58579  0.34820  1.0000
  H   H937      1.0  0.06774  0.72319  0.22678  1.0000
  H   H938      1.0  0.14102  0.83823  0.16338  1.0000
  H   H939      1.0  0.01252  0.96090  0.39114  1.0000
  C   C558      1.0  0.17086  0.70098  0.09062  1.0000
  H   H940      1.0  0.11132  0.78568  0.22001  1.0000
  S   S164      1.0  0.16658  0.51531  0.45370  1.0000
  H   H941      1.0  0.12180  0.49642  0.05792  1.0000
  H   H942      1.0  0.02545  0.95948  0.00189  1.0000
  H   H943      1.0  0.99764  0.96797  0.01962  1.0000
  S   S165      1.0  0.03634  0.67442  0.31269  1.0000
  S   S166      1.0  0.04896  0.95991  0.33977  1.0000
  S   S167      1.0  0.02719  0.72963  0.06747  1.0000
  H   H944      1.0  0.02530  0.95574  0.46226  1.0000
  H   H945      1.0  0.07632  0.86135  0.35942  1.0000
  C   C559      1.0  0.11107  0.69930  0.41825  1.0000
  C   C560      1.0  0.00253  0.58700  0.36410  1.0000
  H   H946      1.0  0.17745  0.65055  0.40948  1.0000
  S   S168      1.0  0.00742  0.49361  0.44585  1.0000
  S   S169      1.0  0.06580  0.48438  0.37552  1.0000
  H   H947      1.0  0.15960  0.63250  0.99525  1.0000
  C   C561      1.0  0.11649  0.50607  0.99526  1.0000
  H   H948      1.0  0.98586  0.78135  0.10205  1.0000
  H   H949      1.0  0.14866  0.69512  0.12686  1.0000
  C   C562      1.0  0.98818  0.47576  0.24842  1.0000
  C   C563      1.0  0.15826  0.48303  0.01324  1.0000
  H   H950      1.0  0.01055  0.87976  0.35583  1.0000
  C   C564      1.0  0.06279  0.87785  0.37976  1.0000
  H   H951      1.0  0.16296  0.63399  0.45017  1.0000
  H   H952      1.0  0.06575  0.84933  0.38094  1.0000
  C   C565      1.0  0.06347  0.86212  0.37026  1.0000
  H   H953      1.0  0.03448  0.96555  0.01812  1.0000
  C   C566      1.0  0.08096  0.53832  0.96948  1.0000
  S   S170      1.0  0.99317  0.94315  0.99673  1.0000
  H   H954      1.0  0.16397  0.65286  0.97900  1.0000
  H   H955      1.0  0.98920  0.76599  0.42282  1.0000
  H   H956      1.0  0.02518  0.78668  0.04487  1.0000
  H   H957      1.0  0.02314  0.59659  0.28126  1.0000
  C   C567      1.0  0.04814  0.87486  0.34336  1.0000
  C   C568      1.0  0.06509  0.83322  0.35071  1.0000
  H   H958      1.0  0.16593  0.67234  0.41491  1.0000
  H   H959      1.0  0.04016  0.90304  0.32894  1.0000
  H   H960      1.0  0.00025  0.60097  0.27737  1.0000
  C   C569      1.0  0.11457  0.66195  0.41320  1.0000
  C   C570      1.0  0.02599  0.88288  0.98459  1.0000
  H   H961      1.0  0.16110  0.70664  0.13543  1.0000
  C   C571      1.0  0.01252  0.89349  0.97173  1.0000
  N   N39       1.0  0.04691  0.86294  0.36241  1.0000
  H   H962      1.0  0.11278  0.71117  0.42310  1.0000
  H   H963      1.0  0.00643  0.70932  0.03424  1.0000
  C   C572      1.0  0.05918  0.92530  0.42237  1.0000
  H   H964      1.0  0.05287  0.87683  0.39316  1.0000
  H   H965      1.0  0.99056  0.75416  0.33637  1.0000
  C   C573      1.0  0.04691  0.84367  0.36083  1.0000
  C   C574      1.0  0.01742  0.93689  0.42562  1.0000
  H   H966      1.0  0.03031  0.86812  0.98388  1.0000
  H   H967      1.0  0.17824  0.74184  0.21677  1.0000
  H   H968      1.0  0.17071  0.50029  0.04922  1.0000
  C   C575      1.0  0.05830  0.96081  0.21639  1.0000
  C   C576      1.0  0.17934  0.75014  0.32426  1.0000
  H   H969      1.0  0.02858  0.88269  0.37846  1.0000
  C   C577      1.0  0.06333  0.96071  0.98173  1.0000
  C   C578      1.0  0.05265  0.96078  0.25400  1.0000
  H   H970      1.0  0.05941  0.89164  0.37117  1.0000
  C   C579      1.0  0.13459  0.67695  0.38491  1.0000
  H   H971      1.0  0.06032  0.70738  0.02345  1.0000
  C   C580      1.0  0.99539  0.86797  0.97946  1.0000
  C   C581      1.0  0.12671  0.96782  0.14241  1.0000
  H   H972      1.0  0.01510  0.57744  0.31183  1.0000
  C   C582      1.0  0.98892  0.95708  0.26217  1.0000
  H   H973      1.0  0.13501  0.81552  0.20329  1.0000
  H   H974      1.0  0.10071  0.64141  0.41070  1.0000
  C   C583      1.0  0.18150  0.67859  0.11634  1.0000
  C   C584      1.0  0.04061  0.66985  0.34841  1.0000
  C   C585      1.0  0.15784  0.95100  0.14435  1.0000
  H   H975      1.0  0.98954  0.83520  0.40184  1.0000
  H   H976      1.0  0.18414  0.96937  0.09617  1.0000
  H   H977      1.0  0.13435  0.93829  0.14881  1.0000
  C   C586      1.0  0.11371  0.85515  0.16547  1.0000
  C   C587      1.0  0.02593  0.97145  0.00738  1.0000
  H   H978      1.0  0.13972  0.52306  0.02891  1.0000
  H   H979      1.0  0.08303  0.56189  0.39975  1.0000
  H   H980      1.0  0.01599  0.70873  0.01092  1.0000
  H   H981      1.0  0.00061  0.66075  0.05535  1.0000
  H   H982      1.0  0.10460  0.68747  0.38410  1.0000
  H   H983      1.0  0.03840  0.87249  0.33593  1.0000
  H   H984      1.0  0.07652  0.83051  0.35816  1.0000
  H   H985      1.0  0.13079  0.81022  0.16228  1.0000
  H   H986      1.0  0.07065  0.73259  0.25202  1.0000
  H   H987      1.0  0.10273  0.71956  0.24540  1.0000
  S   S171      1.0  0.14648  0.60602  0.98018  1.0000
  Fe  Fe86      1.0  0.14381  0.74519  0.16653  1.0000
  C   C588      1.0  0.99299  0.72260  0.06970  1.0000
  H   H988      1.0  0.03670  0.72996  0.26722  1.0000
  H   H989      1.0  0.07656  0.87650  0.38293  1.0000
  H   H990      1.0  0.17742  0.96549  0.07709  1.0000
  H   H991      1.0  0.04589  0.59757  0.38465  1.0000
  C   C589      1.0  0.01029  0.70013  0.02419  1.0000
  C   C590      1.0  0.06031  0.67277  0.25838  1.0000
  H   H992      1.0  0.06926  0.84041  0.33631  1.0000
  H   H993      1.0  0.07455  0.66477  0.25514  1.0000
  H   H994      1.0  0.99198  0.79089  0.45769  1.0000
  C   C591      1.0  0.02933  0.86907  0.37552  1.0000
  C   C592      1.0  0.08927  0.69625  0.24810  1.0000
  H   H995      1.0  0.07725  0.71664  0.27165  1.0000
  H   H996      1.0  0.17071  0.66889  0.39147  1.0000
  H   H997      1.0  0.11631  0.70197  0.23355  1.0000
  H   H998      1.0  0.14775  0.50826  0.06064  1.0000
  H   H999      1.0  0.06191  0.87082  0.33462  1.0000
  S   S172      1.0  0.17050  0.73292  0.14937  1.0000
  C   C593      1.0  0.00656  0.94396  0.23552  1.0000
  C   C594      1.0  0.10715  0.95073  0.20548  1.0000
  C   C595      1.0  0.15597  0.50283  0.04820  1.0000
  H   H1000     1.0  0.11897  0.70453  0.37552  1.0000
  H   H1001     1.0  0.03255  0.92598  0.99181  1.0000
  C   C596      1.0  0.12997  0.68619  0.41492  1.0000
  H   H1002     1.0  0.09614  0.58255  0.36626  1.0000
  H   H1003     1.0  0.04207  0.93386  0.44653  1.0000
  H   H1004     1.0  0.00623  0.94783  0.45885  1.0000
  H   H1005     1.0  0.13443  0.72776  0.12745  1.0000
  H   H1006     1.0  0.08436  0.60094  0.37850  1.0000
  H   H1007     1.0  0.10334  0.55405  0.97948  1.0000
  C   C597      1.0  0.98847  0.74642  0.03614  1.0000
  C   C598      1.0  0.07569  0.57464  0.39181  1.0000
  C   C599      1.0  0.13226  0.96678  0.08542  1.0000
  H   H1008     1.0  0.16746  0.93803  0.14658  1.0000
  H   H1009     1.0  0.06298  0.81952  0.35019  1.0000
  H   H1010     1.0  0.17644  0.75497  0.31015  1.0000
  C   C600      1.0  0.99409  0.65684  0.16118  1.0000
  C   C601      1.0  0.17874  0.60692  0.44753  1.0000
  H   H1011     1.0  0.02894  0.85956  0.38920  1.0000
  C   C602      1.0  0.17132  0.61290  0.04043  1.0000
  C   C603      1.0  0.01422  0.72751  0.32249  1.0000
  H   H1012     1.0  0.99940  0.87622  0.37945  1.0000
  H   H1013     1.0  0.02497  0.68293  0.99387  1.0000
  H   H1014     1.0  0.01593  0.93034  0.21217  1.0000
  H   H1015     1.0  0.03870  0.88877  0.98026  1.0000
  H   H1016     1.0  0.01777  0.70763  0.35634  1.0000
  H   H1017     1.0  0.18039  0.73503  0.32781  1.0000
  N   N40       1.0  0.99494  0.96132  0.24144  1.0000
  H   H1018     1.0  0.99975  0.93194  0.24178  1.0000
  H   H1019     1.0  0.12683  0.95832  0.09888  1.0000
  H   H1020     1.0  0.18301  0.69843  0.06224  1.0000
  H   H1021     1.0  0.01135  0.56864  0.29400  1.0000
  S   S173      1.0  0.10350  0.96855  0.14241  1.0000
  C   C604      1.0  0.01122  0.87037  0.36935  1.0000
  N   N41       1.0  0.02931  0.95057  0.42386  1.0000
  C   C605      1.0  0.02954  0.93369  0.97868  1.0000
  H   H1022     1.0  0.13084  0.48349  0.42043  1.0000
  C   C606      1.0  0.16637  0.66262  0.40616  1.0000
  C   C607      1.0  0.01303  0.94455  0.21467  1.0000
  H   H1023     1.0  0.99430  0.69073  0.00922  1.0000
  S   S174      1.0  0.98798  0.60811  0.36757  1.0000
  H   H1024     1.0  0.18090  0.67336  0.98011  1.0000
  H   H1025     1.0  0.00974  0.78414  0.07728  1.0000
  C   C608      1.0  0.00191  0.78259  0.06750  1.0000
  H   H1026     1.0  0.17754  0.47992  0.35769  1.0000
  H   H1027     1.0  0.04202  0.53559  0.45353  1.0000
  C   C609      1.0  0.16422  0.96756  0.13968  1.0000
  H   H1028     1.0  0.16127  0.65153  0.00344  1.0000
  H   H1029     1.0  0.01939  0.71480  0.31663  1.0000
  H   H1030     1.0  0.04508  0.89144  0.46343  1.0000
  H   H1031     1.0  0.01022  0.54185  0.31395  1.0000
  H   H1032     1.0  0.98700  0.75530  0.02301  1.0000
  C   C610      1.0  0.03267  0.52592  0.45571  1.0000
  H   H1033     1.0  0.18143  0.73279  0.08718  1.0000
  H   H1034     1.0  0.18421  0.70237  0.38675  1.0000
  H   H1035     1.0  0.02048  0.97026  0.23807  1.0000
  H   H1036     1.0  0.98986  0.59878  0.32624  1.0000
  N   N42       1.0  0.99373  0.88845  0.97674  1.0000
  H   H1037     1.0  0.98773  0.94373  0.36229  1.0000
  H   H1038     1.0  0.16721  0.75670  0.33353  1.0000
  H   H1039     1.0  0.14146  0.96851  0.20119  1.0000
  H   H1040     1.0  0.15731  0.53099  0.03421  1.0000
  C   C611      1.0  0.98568  0.62171  0.17637  1.0000
  H   H1041     1.0  0.99811  0.95020  0.28819  1.0000
  H   H1042     1.0  0.16786  0.74128  0.19864  1.0000
  H   H1043     1.0  0.99092  0.50027  0.21272  1.0000
  H   H1044     1.0  0.99670  0.47909  0.08813  1.0000
  H   H1045     1.0  0.98997  0.57198  0.39009  1.0000
  H   H1046     1.0  0.01141  0.96449  0.27068  1.0000
  H   H1047     1.0  0.00183  0.86063  0.99147  1.0000
  C   C612      1.0  0.99659  0.94443  0.42582  1.0000
  H   H1048     1.0  0.12932  0.97088  0.18381  1.0000
  H   H1049     1.0  0.98522  0.71423  0.37747  1.0000
  H   H1050     1.0  0.17770  0.47776  0.03111  1.0000
  C   C613      1.0  0.18308  0.66260  0.01782  1.0000
  H   H1051     1.0  0.10851  0.47704  0.04441  1.0000
  H   H1052     1.0  0.14239  0.47774  0.07764  1.0000
  H   H1053     1.0  0.17125  0.48256  0.00264  1.0000
  H   H1054     1.0  0.04570  0.96798  0.40271  1.0000
  H   H1055     1.0  0.18420  0.75297  0.38725  1.0000
  H   H1056     1.0  0.99175  0.93633  0.41846  1.0000
  S   S175      1.0  0.18300  0.57534  0.00802  1.0000
  H   H1057     1.0  0.99285  0.95896  0.41906  1.0000
  H   H1058     1.0  0.98721  0.70784  0.32726  1.0000
  C   C614      1.0  0.02107  0.96988  0.39288  1.0000
  C   C615      1.0  0.18482  0.58901  0.02256  1.0000
  C   C616      1.0  0.18474  0.67300  0.13628  1.0000
  C   C617      1.0  0.06194  0.53483  0.96946  1.0000
  H   H1059     1.0  0.00368  0.97110  0.46094  1.0000
  Fe  Fe87      1.0  0.98514  0.64908  0.30535  1.0000
  Fe  Fe88      1.0  0.18508  0.53434  0.43576  1.0000
  H   H1060     1.0  0.98509  0.68785  0.03363  1.0000
  H   H1061     1.0  0.00726  0.97414  0.42898  1.0000
  Fe  Fe89      1.0  0.07410  0.62005  0.87010  1.0000
  S   S176      1.0  0.09880  0.61132  0.84868  1.0000
  S   S177      1.0  0.07149  0.61934  0.90029  1.0000
  Fe  Fe90      1.0  0.04890  0.63575  0.84241  1.0000
  S   S178      1.0  0.07125  0.62889  0.81846  1.0000
  Fe  Fe91      1.0  0.07856  0.60200  0.83766  1.0000
  S   S179      1.0  0.08442  0.57509  0.82824  1.0000
  Fe  Fe92      1.0  0.08949  0.63884  0.83122  1.0000
  S   S180      1.0  0.10693  0.65976  0.81495  1.0000
  S   S181      1.0  0.05481  0.60814  0.86078  1.0000
  S   S182      1.0  0.06623  0.64827  0.85346  1.0000
  H   H1062     1.0  0.02064  0.86174  0.95836  1.0000
  H   H1063     1.0  0.06284  0.96302  0.96695  1.0000
  S   S183      1.0  0.03346  0.89977  0.83479  1.0000
  H   H1064     1.0  0.12104  0.53817  0.54347  1.0000
  H   H1065     1.0  0.07033  0.57070  0.91855  1.0000
  S   S184      1.0  0.13989  0.58723  0.93919  1.0000
  Fe  Fe93      1.0  0.05361  0.95674  0.54354  1.0000
  H   H1066     1.0  0.02241  0.82066  0.83033  1.0000
  H   H1067     1.0  0.00003  0.66861  0.78360  1.0000
  C   C618      1.0  0.10293  0.55824  0.96462  1.0000
  H   H1068     1.0  0.00800  0.64103  0.80527  1.0000
  C   C619      1.0  0.03377  0.71716  0.86568  1.0000
  H   H1069     1.0  0.11860  0.53575  0.59165  1.0000
  C   C620      1.0  0.00781  0.95280  0.96019  1.0000
  H   H1070     1.0  0.12211  0.55088  0.93939  1.0000
  H   H1071     1.0  0.02701  0.72774  0.85514  1.0000
  S   S185      1.0  0.18310  0.73772  0.80021  1.0000
  H   H1072     1.0  0.98693  0.87317  0.81736  1.0000
  N   N43       1.0  0.09224  0.48590  0.70257  1.0000
  C   C621      1.0  0.12944  0.91067  0.56839  1.0000
  H   H1073     1.0  0.13150  0.49834  0.70600  1.0000
  C   C622      1.0  0.99007  0.69677  0.78660  1.0000
  H   H1074     1.0  0.04435  0.67280  0.82103  1.0000
  S   S186      1.0  0.02545  0.85842  0.82081  1.0000
  S   S187      1.0  0.05876  0.94964  0.92721  1.0000
  H   H1075     1.0  0.17180  0.66591  0.85011  1.0000
  S   S188      1.0  0.08164  0.90974  0.81412  1.0000
  H   H1076     1.0  0.99163  0.89436  0.94810  1.0000
  S   S189      1.0  0.07837  0.96294  0.54945  1.0000
  H   H1077     1.0  0.02604  0.55469  0.86941  1.0000
  C   C623      1.0  0.13964  0.90611  0.58235  1.0000
  C   C624      1.0  0.05976  0.90251  0.47747  1.0000
  S   S190      1.0  0.01923  0.64856  0.84116  1.0000
  H   H1078     1.0  0.03913  0.47574  0.49050  1.0000
  H   H1079     1.0  0.99914  0.86377  0.95118  1.0000
  H   H1080     1.0  0.99245  0.92482  0.95231  1.0000
  H   H1081     1.0  0.06460  0.85675  0.80486  1.0000
  Fe  Fe94      1.0  0.02271  0.50714  0.76956  1.0000
  S   S191      1.0  0.03324  0.50386  0.73992  1.0000
  Fe  Fe95      1.0  0.01827  0.53514  0.79341  1.0000
  S   S192      1.0  0.02005  0.56324  0.79658  1.0000
  Fe  Fe96      1.0  0.02378  0.49404  0.80993  1.0000
  H   H1082     1.0  0.99481  0.68547  0.89933  1.0000
  S   S193      1.0  0.04080  0.51118  0.78684  1.0000
  H   H1083     1.0  0.15412  0.64436  0.91211  1.0000
  H   H1084     1.0  0.07842  0.90127  0.89642  1.0000
  H   H1085     1.0  0.08014  0.91828  0.90766  1.0000
  S   S194      1.0  0.07858  0.91610  0.49543  1.0000
  H   H1086     1.0  0.04316  0.47758  0.52105  1.0000
  S   S195      1.0  0.00776  0.73498  0.82028  1.0000
  H   H1087     1.0  0.01158  0.92779  0.49891  1.0000
  Fe  Fe97      1.0  0.01271  0.92560  0.82839  1.0000
  H   H1088     1.0  0.00086  0.67307  0.80489  1.0000
  H   H1089     1.0  0.08606  0.81590  0.82538  1.0000
  H   H1090     1.0  0.04212  0.69461  0.85016  1.0000
  H   H1091     1.0  0.05225  0.56304  0.87399  1.0000
  H   H1092     1.0  0.03973  0.93159  0.50713  1.0000
  N   N44       1.0  0.14343  0.64810  0.87707  1.0000
  H   H1093     1.0  0.14019  0.97340  0.91731  1.0000
  H   H1094     1.0  0.02716  0.92563  0.87484  1.0000
  C   C625      1.0  0.99782  0.91946  0.69485  1.0000
  C   C626      1.0  0.00636  0.85918  0.96291  1.0000
  C   C627      1.0  0.13422  0.64163  0.89675  1.0000
  H   H1095     1.0  0.10405  0.64483  0.88134  1.0000
  H   H1096     1.0  0.10830  0.50945  0.71300  1.0000
  H   H1097     1.0  0.04160  0.55772  0.84791  1.0000
  C   C628      1.0  0.99289  0.47641  0.48058  1.0000
  Fe  Fe98      1.0  0.07664  0.93312  0.51630  1.0000
  H   H1098     1.0  0.03941  0.70685  0.81227  1.0000
  H   H1099     1.0  0.06843  0.54624  0.86276  1.0000
  Fe  Fe99      1.0  0.09077  0.93313  0.55002  1.0000
  C   C629      1.0  0.02787  0.70026  0.81949  1.0000
  H   H1100     1.0  0.13256  0.54801  0.95846  1.0000
  Fe  Fe100     1.0  0.02395  0.88919  0.81472  1.0000
  N   N45       1.0  0.15208  0.96466  0.54964  1.0000
  H   H1101     1.0  0.05730  0.49170  0.85336  1.0000
  S   S196      1.0  0.06484  0.92632  0.54673  1.0000
  S   S197      1.0  0.10350  0.93760  0.51990  1.0000
  C   C630      1.0  0.02547  0.53223  0.84657  1.0000
  H   H1102     1.0  0.09576  0.51618  0.67312  1.0000
  C   C631      1.0  0.14695  0.96256  0.51820  1.0000
  H   H1103     1.0  0.04798  0.66901  0.89648  1.0000
  S   S198      1.0  0.00257  0.51829  0.81768  1.0000
  H   H1104     1.0  0.00316  0.91555  0.56372  1.0000
  C   C632      1.0  0.14171  0.66121  0.76486  1.0000
  H   H1105     1.0  0.07922  0.90884  0.85976  1.0000
  H   H1106     1.0  0.07322  0.89538  0.47155  1.0000
  S   S199      1.0  0.14380  0.55031  0.47331  1.0000
  H   H1107     1.0  0.01305  0.93872  0.90229  1.0000
  C   C633      1.0  0.17131  0.53758  0.51989  1.0000
  H   H1108     1.0  0.02819  0.90955  0.65850  1.0000
  H   H1109     1.0  0.08387  0.85238  0.75718  1.0000
  C   C634      1.0  0.12990  0.52706  0.59839  1.0000
  C   C635      1.0  0.00836  0.95190  0.61825  1.0000
  C   C636      1.0  0.05790  0.52096  0.85033  1.0000
  H   H1110     1.0  0.08370  0.85175  0.83715  1.0000
  C   C637      1.0  0.12680  0.82463  0.80049  1.0000
  C   C638      1.0  0.03061  0.94940  0.58954  1.0000
  C   C639      1.0  0.02504  0.94323  0.60856  1.0000
  H   H1111     1.0  0.99675  0.54244  0.84390  1.0000
  C   C640      1.0  0.99830  0.68318  0.83866  1.0000
  H   H1112     1.0  0.04343  0.94251  0.58215  1.0000
  H   H1113     1.0  0.03360  0.93156  0.61573  1.0000
  H   H1114     1.0  0.06121  0.86388  0.83423  1.0000
  H   H1115     1.0  0.10527  0.57259  0.96048  1.0000
  S   S200      1.0  0.00621  0.90719  0.47498  1.0000
  H   H1116     1.0  0.00084  0.71377  0.86273  1.0000
  H   H1117     1.0  0.06066  0.88831  0.88754  1.0000
  Fe  Fe101     1.0  0.17455  0.85746  0.76547  1.0000
  S   S201      1.0  0.03608  0.47498  0.83342  1.0000
  H   H1118     1.0  0.16460  0.68659  0.85870  1.0000
  H   H1119     1.0  0.99979  0.53832  0.86713  1.0000
  H   H1120     1.0  0.99669  0.62446  0.82178  1.0000
  C   C641      1.0  0.04092  0.92290  0.49756  1.0000
  H   H1121     1.0  0.10200  0.82955  0.77650  1.0000
  Fe  Fe102     1.0  0.02270  0.92582  0.78753  1.0000
  H   H1122     1.0  0.16544  0.67908  0.80641  1.0000
  C   C642      1.0  0.18438  0.65689  0.76231  1.0000
  H   H1123     1.0  0.03123  0.53932  0.83254  1.0000
  C   C643      1.0  0.06760  0.81852  0.80709  1.0000
  C   C644      1.0  0.03071  0.68102  0.82458  1.0000
  S   S202      1.0  0.14460  0.86359  0.76309  1.0000
  S   S203      1.0  0.02553  0.97138  0.55614  1.0000
  C   C645      1.0  0.12007  0.54635  0.95457  1.0000
  C   C646      1.0  0.11241  0.48720  0.69700  1.0000
  H   H1124     1.0  0.16993  0.63714  0.73349  1.0000
  C   C647      1.0  0.12139  0.48360  0.64460  1.0000
  H   H1125     1.0  0.06594  0.83951  0.83733  1.0000
  C   C648      1.0  0.13852  0.90856  0.55055  1.0000
  C   C649      1.0  0.16800  0.89832  0.56047  1.0000
  H   H1126     1.0  0.03314  0.49550  0.70566  1.0000
  C   C650      1.0  0.12032  0.51551  0.56719  1.0000
  S   S204      1.0  0.01790  0.94340  0.75997  1.0000
  C   C651      1.0  0.15912  0.63496  0.82143  1.0000
  S   S205      1.0  0.04463  0.90014  0.79041  1.0000
  H   H1127     1.0  0.01295  0.91851  0.58190  1.0000
  Fe  Fe103     1.0  0.16858  0.52780  0.47659  1.0000
  H   H1128     1.0  0.05688  0.71074  0.84353  1.0000
  H   H1129     1.0  0.16728  0.55933  0.53461  1.0000
  S   S206      1.0  0.00121  0.91399  0.81028  1.0000
  H   H1130     1.0  0.98696  0.94628  0.58579  1.0000
  H   H1131     1.0  0.06198  0.80766  0.81815  1.0000
  C   C652      1.0  0.98644  0.90445  0.70506  1.0000
  C   C653      1.0  0.09982  0.89884  0.79876  1.0000
  C   C654      1.0  0.09691  0.89627  0.78236  1.0000
  C   C655      1.0  0.11110  0.88617  0.77107  1.0000
  C   C656      1.0  0.12831  0.87865  0.77602  1.0000
  C   C657      1.0  0.13153  0.88192  0.79199  1.0000
  C   C658      1.0  0.11727  0.89198  0.80335  1.0000
  H   H1132     1.0  0.08368  0.90190  0.77846  1.0000
  H   H1133     1.0  0.10863  0.88391  0.75859  1.0000
  H   H1134     1.0  0.14478  0.87621  0.79589  1.0000
  H   H1135     1.0  0.11967  0.89410  0.81592  1.0000
  C   C659      1.0  0.14713  0.63391  0.91066  1.0000
  C   C660      1.0  0.01036  0.71099  0.82440  1.0000
  H   H1136     1.0  0.02171  0.52678  0.88657  1.0000
  C   C661      1.0  0.02692  0.94135  0.89476  1.0000
  C   C662      1.0  0.04962  0.48330  0.49116  1.0000
  H   H1137     1.0  0.16469  0.90094  0.53273  1.0000
  C   C663      1.0  0.13067  0.52907  0.55222  1.0000
  C   C664      1.0  0.98904  0.85833  0.82104  1.0000
  C   C665      1.0  0.08613  0.82034  0.81037  1.0000
  H   H1138     1.0  0.08277  0.47732  0.75102  1.0000
  H   H1139     1.0  0.06474  0.50277  0.70482  1.0000
  H   H1140     1.0  0.04378  0.89281  0.87333  1.0000
  S   S207      1.0  0.99347  0.93887  0.85133  1.0000
  C   C666      1.0  0.03941  0.54822  0.86155  1.0000
  C   C667      1.0  0.15139  0.66447  0.87655  1.0000
  H   H1141     1.0  0.11992  0.62834  0.86868  1.0000
  C   C668      1.0  0.03450  0.67519  0.89223  1.0000
  H   H1142     1.0  0.11477  0.50803  0.55975  1.0000
  H   H1143     1.0  0.99569  0.92404  0.68043  1.0000
  H   H1144     1.0  0.13266  0.90756  0.59622  1.0000
  H   H1145     1.0  0.07335  0.52971  0.67985  1.0000
  H   H1146     1.0  0.06198  0.53109  0.95636  1.0000
  C   C669      1.0  0.07132  0.94843  0.84344  1.0000
  Fe  Fe104     1.0  0.05266  0.91229  0.81023  1.0000
  H   H1147     1.0  0.18332  0.82345  0.56702  1.0000
  C   C670      1.0  0.99431  0.81982  0.83063  1.0000
  H   H1148     1.0  0.05381  0.53926  0.88498  1.0000
  H   H1149     1.0  0.13075  0.91177  0.53977  1.0000
  C   C671      1.0  0.06739  0.57289  0.81749  1.0000
  C   C672      1.0  0.06998  0.55749  0.80968  1.0000
  C   C673      1.0  0.05569  0.55446  0.80291  1.0000
  C   C674      1.0  0.03888  0.56707  0.80357  1.0000
  C   C675      1.0  0.03659  0.58285  0.81069  1.0000
  C   C676      1.0  0.05076  0.58572  0.81769  1.0000
  H   H1150     1.0  0.08290  0.54763  0.80928  1.0000
  H   H1151     1.0  0.05762  0.54234  0.79729  1.0000
  H   H1152     1.0  0.02366  0.59269  0.81116  1.0000
  H   H1153     1.0  0.04862  0.59768  0.82362  1.0000
  C   C677      1.0  0.13053  0.65554  0.81546  1.0000
  C   C678      1.0  0.13976  0.67034  0.80990  1.0000
  C   C679      1.0  0.15853  0.66753  0.81041  1.0000
  H   H1154     1.0  0.15103  0.63218  0.76577  1.0000
  H   H1155     1.0  0.00969  0.89716  0.66980  1.0000
  C   C680      1.0  0.14025  0.63780  0.82122  1.0000
  H   H1156     1.0  0.13228  0.68409  0.80540  1.0000
  H   H1157     1.0  0.15879  0.95116  0.51537  1.0000
  H   H1158     1.0  0.09436  0.57246  0.93394  1.0000
  H   H1159     1.0  0.13327  0.62630  0.82533  1.0000
  C   C681      1.0  0.09087  0.61069  0.91051  1.0000
  C   C682      1.0  0.09009  0.61450  0.92768  1.0000
  C   C683      1.0  0.10516  0.60753  0.93647  1.0000
  C   C684      1.0  0.12097  0.59641  0.92829  1.0000
  C   C685      1.0  0.12170  0.59244  0.91121  1.0000
  C   C686      1.0  0.10674  0.59971  0.90221  1.0000
  H   H1160     1.0  0.07782  0.62299  0.93414  1.0000
  H   H1161     1.0  0.10456  0.61085  0.94953  1.0000
  H   H1162     1.0  0.13384  0.58362  0.90496  1.0000
  H   H1163     1.0  0.10734  0.59654  0.88906  1.0000
  C   C687      1.0  0.06012  0.50379  0.84244  1.0000
  H   H1164     1.0  0.06941  0.81476  0.79357  1.0000
  H   H1165     1.0  0.12154  0.66873  0.86609  1.0000
  C   C688      1.0  0.02214  0.95398  0.94460  1.0000
  C   C689      1.0  0.04036  0.94573  0.94609  1.0000
  H   H1166     1.0  0.14058  0.94235  0.58527  1.0000
  H   H1167     1.0  0.04377  0.94332  0.84884  1.0000
  H   H1168     1.0  0.05183  0.50633  0.83175  1.0000
  C   C690      1.0  0.08561  0.49858  0.47653  1.0000
  H   H1169     1.0  0.15364  0.60091  0.49668  1.0000
  H   H1170     1.0  0.11303  0.85173  0.80495  1.0000
  S   S208      1.0  0.03258  0.93911  0.80540  1.0000
  S   S209      1.0  0.17499  0.50880  0.50295  1.0000
  H   H1171     1.0  0.17601  0.79200  0.74051  1.0000
  H   H1172     1.0  0.02804  0.49006  0.89000  1.0000
  H   H1173     1.0  0.13927  0.48360  0.56095  1.0000
  H   H1174     1.0  0.12538  0.81005  0.80505  1.0000
  H   H1175     1.0  0.07474  0.50004  0.83542  1.0000
  C   C691      1.0  0.12930  0.65454  0.86490  1.0000
  H   H1176     1.0  0.01111  0.92272  0.72225  1.0000
  C   C692      1.0  0.13313  0.96153  0.56006  1.0000
  C   C693      1.0  0.99054  0.69528  0.88713  1.0000
  C   C694      1.0  0.02503  0.92071  0.49291  1.0000
  C   C695      1.0  0.08762  0.47594  0.72229  1.0000
  H   H1177     1.0  0.14892  0.50171  0.59870  1.0000
  C   C696      1.0  0.06745  0.56994  0.93366  1.0000
  N   N46       1.0  0.17575  0.64376  0.75705  1.0000
  S   S210      1.0  0.06327  0.96301  0.51284  1.0000
  C   C697      1.0  0.07764  0.85419  0.80976  1.0000
  H   H1178     1.0  0.13875  0.53662  0.59838  1.0000
  H   H1179     1.0  0.07725  0.49922  0.73694  1.0000
  C   C698      1.0  0.02402  0.50140  0.87859  1.0000
  C   C699      1.0  0.99564  0.95764  0.85964  1.0000
  H   H1180     1.0  0.15744  0.62160  0.90720  1.0000
  H   H1181     1.0  0.13048  0.82818  0.78524  1.0000
  H   H1182     1.0  0.02362  0.51908  0.84452  1.0000
  C   C700      1.0  0.03385  0.51104  0.47345  1.0000
  C   C701      1.0  0.15891  0.90009  0.57839  1.0000
  H   H1183     1.0  0.16672  0.89698  0.58916  1.0000
  C   C702      1.0  0.05843  0.89251  0.87326  1.0000
  C   C703      1.0  0.07208  0.85187  0.83087  1.0000
  H   H1184     1.0  0.99622  0.90361  0.60838  1.0000
  H   H1185     1.0  0.99647  0.80499  0.83427  1.0000
  H   H1186     1.0  0.04413  0.51276  0.88542  1.0000
  H   H1187     1.0  0.11972  0.53151  0.95858  1.0000
  N   N47       1.0  0.05232  0.49812  0.47409  1.0000
  S   S211      1.0  0.10555  0.91958  0.57355  1.0000
  H   H1188     1.0  0.06742  0.51709  0.86015  1.0000
  N   N48       1.0  0.03867  0.52941  0.85921  1.0000
  H   H1189     1.0  0.15628  0.64062  0.78307  1.0000
  H   H1190     1.0  0.06065  0.51793  0.48491  1.0000
  C   C704      1.0  0.18239  0.58808  0.49680  1.0000
  C   C705      1.0  0.05441  0.54891  0.87148  1.0000
  H   H1191     1.0  0.99240  0.91808  0.77027  1.0000
  C   C706      1.0  0.07936  0.85233  0.77215  1.0000
  H   H1192     1.0  0.07503  0.86696  0.77352  1.0000
  H   H1193     1.0  0.09210  0.50679  0.48225  1.0000
  C   C707      1.0  0.09572  0.84249  0.78173  1.0000
  H   H1194     1.0  0.08265  0.86733  0.80434  1.0000
  H   H1195     1.0  0.15971  0.93663  0.54535  1.0000
  H   H1196     1.0  0.03683  0.91307  0.89416  1.0000
  H   H1197     1.0  0.05669  0.83096  0.80803  1.0000
  C   C708      1.0  0.03611  0.48260  0.71520  1.0000
  H   H1198     1.0  0.06377  0.53121  0.83872  1.0000
  H   H1199     1.0  0.16872  0.61680  0.48791  1.0000
  H   H1200     1.0  0.13882  0.82586  0.80550  1.0000
  C   C709      1.0  0.15479  0.61479  0.87101  1.0000
  H   H1201     1.0  0.02963  0.51861  0.48493  1.0000
  H   H1202     1.0  0.01449  0.69159  0.86559  1.0000
  C   C710      1.0  0.99546  0.70239  0.83348  1.0000
  C   C711      1.0  0.07939  0.50440  0.69983  1.0000
  H   H1203     1.0  0.14468  0.67268  0.76926  1.0000
  C   C712      1.0  0.15072  0.97421  0.53010  1.0000
  C   C713      1.0  0.17559  0.64776  0.73676  1.0000
  H   H1204     1.0  0.12402  0.52121  0.61289  1.0000
  H   H1205     1.0  0.07510  0.50956  0.67144  1.0000
  H   H1206     1.0  0.06732  0.84554  0.77731  1.0000
  C   C714      1.0  0.18380  0.53454  0.54709  1.0000
  H   H1207     1.0  0.00748  0.84403  0.96710  1.0000
  H   H1208     1.0  0.03456  0.94148  0.90525  1.0000
  C   C715      1.0  0.08122  0.51541  0.67983  1.0000
  C   C716      1.0  0.05834  0.91374  0.48990  1.0000
  H   H1209     1.0  0.02479  0.66636  0.90110  1.0000
  N   N49       1.0  0.08448  0.55750  0.96128  1.0000
  H   H1210     1.0  0.17798  0.87096  0.68419  1.0000
  H   H1211     1.0  0.13417  0.95704  0.52447  1.0000
  C   C717      1.0  0.10809  0.48064  0.59041  1.0000
  H   H1212     1.0  0.98555  0.70491  0.79764  1.0000
  C   C718      1.0  0.11894  0.49230  0.59579  1.0000
  C   C719      1.0  0.13077  0.95518  0.58115  1.0000
  C   C720      1.0  0.18133  0.77416  0.79835  1.0000
  C   C721      1.0  0.01595  0.67250  0.83438  1.0000
  S   S212      1.0  0.00149  0.53275  0.77418  1.0000
  H   H1213     1.0  0.16491  0.63853  0.85516  1.0000
  C   C722      1.0  0.14179  0.51173  0.58822  1.0000
  N   N50       1.0  0.09183  0.83867  0.80256  1.0000
  H   H1214     1.0  0.09785  0.48935  0.58219  1.0000
  C   C723      1.0  0.04386  0.90026  0.47288  1.0000
  C   C724      1.0  0.10948  0.83784  0.80856  1.0000
  H   H1215     1.0  0.09264  0.54967  0.93458  1.0000
  H   H1216     1.0  0.10650  0.64820  0.85707  1.0000
  H   H1217     1.0  0.05981  0.91366  0.84952  1.0000
  H   H1218     1.0  0.05646  0.57355  0.96705  1.0000
  C   C725      1.0  0.04350  0.48983  0.50963  1.0000
  C   C726      1.0  0.15773  0.90224  0.54664  1.0000
  C   C727      1.0  0.04830  0.70317  0.85560  1.0000
  H   H1219     1.0  0.02454  0.95517  0.88596  1.0000
  C   C728      1.0  0.03250  0.51799  0.87795  1.0000
  H   H1220     1.0  0.09242  0.48087  0.67589  1.0000
  H   H1221     1.0  0.11669  0.95214  0.58684  1.0000
  C   C729      1.0  0.11428  0.64310  0.86841  1.0000
  S   S213      1.0  0.00737  0.48806  0.79225  1.0000
  H   H1222     1.0  0.98900  0.97314  0.82207  1.0000
  H   H1223     1.0  0.16382  0.47584  0.58981  1.0000
  C   C730      1.0  0.07117  0.91456  0.90034  1.0000
  H   H1224     1.0  0.14933  0.68035  0.84826  1.0000
  Fe  Fe105     1.0  0.08905  0.96696  0.51902  1.0000
  H   H1225     1.0  0.04720  0.95706  0.86275  1.0000
  H   H1226     1.0  0.13625  0.65554  0.85021  1.0000
  C   C731      1.0  0.00924  0.96820  0.85115  1.0000
  N   N51       1.0  0.01936  0.70954  0.88120  1.0000
  C   C732      1.0  0.00747  0.72529  0.88996  1.0000
  C   C733      1.0  0.00689  0.70256  0.87324  1.0000
  H   H1227     1.0  0.14968  0.61464  0.85873  1.0000
  C   C734      1.0  0.02811  0.69514  0.89566  1.0000
  C   C735      1.0  0.01751  0.73618  0.89737  1.0000
  C   C736      1.0  0.99463  0.63637  0.81022  1.0000
  H   H1228     1.0  0.17330  0.58981  0.53831  1.0000
  H   H1229     1.0  0.12900  0.95095  0.55514  1.0000
  H   H1230     1.0  0.99951  0.73543  0.88011  1.0000
  H   H1231     1.0  0.99695  0.72026  0.90191  1.0000
  H   H1232     1.0  0.08235  0.93043  0.87476  1.0000
  H   H1233     1.0  0.17908  0.90145  0.70163  1.0000
  H   H1234     1.0  0.10853  0.50226  0.60336  1.0000
  H   H1235     1.0  0.04200  0.72427  0.87066  1.0000
  H   H1236     1.0  0.04024  0.69931  0.89785  1.0000
  H   H1237     1.0  0.01823  0.69420  0.90917  1.0000
  H   H1238     1.0  0.02710  0.72713  0.90611  1.0000
  H   H1239     1.0  0.02486  0.74560  0.88604  1.0000
  H   H1240     1.0  0.00703  0.74509  0.90606  1.0000
  C   C737      1.0  0.04393  0.93498  0.96304  1.0000
  H   H1241     1.0  0.99075  0.93170  0.70095  1.0000
  C   C738      1.0  0.00393  0.92536  0.57183  1.0000
  H   H1242     1.0  0.15639  0.49596  0.55966  1.0000
  C   C739      1.0  0.00900  0.82874  0.82835  1.0000
  H   H1243     1.0  0.05805  0.91305  0.91031  1.0000
  H   H1244     1.0  0.10782  0.52359  0.57474  1.0000
  H   H1245     1.0  0.06336  0.94315  0.88800  1.0000
  C   C740      1.0  0.99411  0.95630  0.73626  1.0000
  H   H1246     1.0  0.10786  0.83358  0.82377  1.0000
  H   H1247     1.0  0.01089  0.93607  0.56188  1.0000
  C   C741      1.0  0.14037  0.48354  0.63940  1.0000
  C   C742      1.0  0.15964  0.67469  0.85722  1.0000
  Fe  Fe106     1.0  0.17728  0.50487  0.62525  1.0000
  C   C743      1.0  0.17358  0.54518  0.53388  1.0000
  H   H1248     1.0  0.14216  0.52172  0.54302  1.0000
  H   H1249     1.0  0.16346  0.54592  0.50971  1.0000
  C   C744      1.0  0.06604  0.50918  0.47436  1.0000
  H   H1250     1.0  0.12825  0.65862  0.77371  1.0000
  Fe  Fe107     1.0  0.98749  0.51405  0.79807  1.0000
  H   H1251     1.0  0.16271  0.66038  0.88437  1.0000
  C   C745      1.0  0.00598  0.54344  0.85258  1.0000
  H   H1252     1.0  0.16666  0.62120  0.82575  1.0000
  H   H1253     1.0  0.99150  0.63115  0.79934  1.0000
  H   H1254     1.0  0.10133  0.48784  0.73732  1.0000
  H   H1255     1.0  0.05781  0.69426  0.86454  1.0000
  H   H1256     1.0  0.11709  0.48862  0.68180  1.0000
  S   S214      1.0  0.18426  0.53297  0.61678  1.0000
  H   H1257     1.0  0.09120  0.52817  0.96205  1.0000
  H   H1258     1.0  0.07399  0.58566  0.96467  1.0000
  H   H1259     1.0  0.06694  0.88164  0.86570  1.0000
  C   C746      1.0  0.17875  0.67767  0.75426  1.0000
  H   H1260     1.0  0.10622  0.85133  0.77591  1.0000
  H   H1261     1.0  0.12243  0.97414  0.55744  1.0000
  H   H1262     1.0  0.08096  0.51355  0.70819  1.0000
  H   H1263     1.0  0.14489  0.97144  0.50468  1.0000
  H   H1264     1.0  0.99174  0.92601  0.61286  1.0000
  C   C747      1.0  0.17861  0.51901  0.51956  1.0000
  H   H1265     1.0  0.16163  0.96931  0.57215  1.0000
  C   C748      1.0  0.98705  0.97187  0.78804  1.0000
  H   H1266     1.0  0.14066  0.67487  0.88332  1.0000
  H   H1267     1.0  0.12343  0.65302  0.90182  1.0000
  C   C749      1.0  0.08564  0.56199  0.94068  1.0000
  C   C750      1.0  0.02645  0.90933  0.48064  1.0000
  N   N52       1.0  0.01798  0.91468  0.69582  1.0000
  C   C751      1.0  0.02695  0.93053  0.68454  1.0000
  C   C752      1.0  0.02776  0.89776  0.68806  1.0000
  C   C753      1.0  0.01935  0.91104  0.71573  1.0000
  H   H1268     1.0  0.05329  0.49741  0.51149  1.0000
  C   C754      1.0  0.02138  0.94827  0.69234  1.0000
  C   C755      1.0  0.02428  0.89759  0.66912  1.0000
  C   C756      1.0  0.03908  0.90699  0.71941  1.0000
  H   H1269     1.0  0.03815  0.90558  0.73441  1.0000
  H   H1270     1.0  0.04228  0.92651  0.68226  1.0000
  H   H1271     1.0  0.02376  0.93455  0.67050  1.0000
  H   H1272     1.0  0.02431  0.88502  0.69773  1.0000
  H   H1273     1.0  0.04299  0.89591  0.68641  1.0000
  H   H1274     1.0  0.13947  0.66535  0.75056  1.0000
  C   C757      1.0  0.99179  0.67599  0.79475  1.0000
  H   H1275     1.0  0.13594  0.53811  0.55809  1.0000
  H   H1276     1.0  0.16789  0.77635  0.79501  1.0000
  H   H1277     1.0  0.00638  0.95386  0.69411  1.0000
  H   H1278     1.0  0.18045  0.80306  0.79568  1.0000
  H   H1279     1.0  0.09661  0.80931  0.80441  1.0000
  H   H1280     1.0  0.03291  0.88502  0.66439  1.0000
  H   H1281     1.0  0.02578  0.94631  0.70555  1.0000
  C   C758      1.0  0.03568  0.48267  0.73360  1.0000
  H   H1282     1.0  0.06761  0.95964  0.83180  1.0000
  H   H1283     1.0  0.04661  0.91825  0.71225  1.0000
  H   H1284     1.0  0.04723  0.89384  0.71564  1.0000
  C   C759      1.0  0.15913  0.63365  0.86991  1.0000
  H   H1285     1.0  0.18181  0.61456  0.75671  1.0000
  H   H1286     1.0  0.17629  0.85956  0.54904  1.0000
  N   N53       1.0  0.05559  0.92754  0.87222  1.0000
  C   C760      1.0  0.05340  0.94443  0.85711  1.0000
  C   C761      1.0  0.03656  0.92605  0.88372  1.0000
  C   C762      1.0  0.06385  0.91112  0.86307  1.0000
  C   C763      1.0  0.06831  0.92981  0.88333  1.0000
  H   H1287     1.0  0.03657  0.67372  0.87786  1.0000
  H   H1288     1.0  0.01887  0.96512  0.83880  1.0000
  H   H1289     1.0  0.01902  0.96138  0.93140  1.0000
  H   H1290     1.0  0.08012  0.95339  0.84991  1.0000
  H   H1291     1.0  0.01954  0.89192  0.95745  1.0000
  C   C764      1.0  0.00287  0.97304  0.58982  1.0000
  H   H1292     1.0  0.16902  0.68131  0.74486  1.0000
  C   C765      1.0  0.99885  0.94272  0.75132  1.0000
  C   C766      1.0  0.16609  0.60453  0.49877  1.0000
  H   H1293     1.0  0.12674  0.48318  0.60617  1.0000
  N   N54       1.0  0.13166  0.50212  0.58019  1.0000
  C   C767      1.0  0.00643  0.84800  0.82360  1.0000
  C   C768      1.0  0.18192  0.85858  0.53442  1.0000
  C   C769      1.0  0.16824  0.64982  0.81622  1.0000
  C   C770      1.0  0.15639  0.64350  0.76811  1.0000
  S   S215      1.0  0.00113  0.94291  0.64178  1.0000
  H   H1294     1.0  0.17746  0.57565  0.50552  1.0000
  C   C771      1.0  0.14572  0.48885  0.56960  1.0000
  C   C772      1.0  0.01943  0.96419  0.58011  1.0000
  C   C773      1.0  0.08736  0.48601  0.73742  1.0000
  H   H1295     1.0  0.99291  0.48189  0.83888  1.0000
  H   H1296     1.0  0.15328  0.51723  0.57784  1.0000
  H   H1297     1.0  0.00869  0.50504  0.88202  1.0000
  H   H1298     1.0  0.16261  0.60813  0.51247  1.0000
  H   H1299     1.0  0.08586  0.48531  0.48642  1.0000
  H   H1300     1.0  0.16617  0.66078  0.73241  1.0000
  H   H1301     1.0  0.06184  0.58429  0.93568  1.0000
  H   H1302     1.0  0.02828  0.49550  0.86608  1.0000
  C   C774      1.0  0.11792  0.50331  0.70177  1.0000
  H   H1303     1.0  0.02835  0.95897  0.68242  1.0000
  H   H1304     1.0  0.12021  0.51427  0.68929  1.0000
  H   H1305     1.0  0.07944  0.93643  0.83743  1.0000
  H   H1306     1.0  0.12656  0.63068  0.89810  1.0000
  H   H1307     1.0  0.98690  0.67660  0.84634  1.0000
  H   H1308     1.0  0.14485  0.61037  0.88353  1.0000
  S   S216      1.0  0.14853  0.50229  0.64139  1.0000
  H   H1309     1.0  0.17217  0.68520  0.76565  1.0000
  H   H1310     1.0  0.17116  0.63134  0.87655  1.0000
  H   H1311     1.0  0.17464  0.61380  0.79037  1.0000
  H   H1312     1.0  0.02930  0.49823  0.51127  1.0000
  H   H1313     1.0  0.00620  0.55829  0.85029  1.0000
  H   H1314     1.0  0.13873  0.62937  0.92447  1.0000
  H   H1315     1.0  0.11202  0.49538  0.64928  1.0000
  H   H1316     1.0  0.05683  0.56146  0.94003  1.0000
  H   H1317     1.0  0.05796  0.92830  0.96426  1.0000
  H   H1318     1.0  0.99385  0.95976  0.95895  1.0000
  C   C775      1.0  0.98879  0.92866  0.75869  1.0000
  H   H1319     1.0  0.16600  0.93931  0.56469  1.0000
  H   H1320     1.0  0.01306  0.89906  0.72379  1.0000
  H   H1321     1.0  0.16757  0.60409  0.87178  1.0000
  C   C776      1.0  0.99738  0.96695  0.60887  1.0000
  H   H1322     1.0  0.13194  0.96600  0.58781  1.0000
  H   H1323     1.0  0.99414  0.89034  0.70422  1.0000
  H   H1324     1.0  0.18150  0.65533  0.77752  1.0000
  C   C777      1.0  0.16509  0.94629  0.55027  1.0000
  H   H1325     1.0  0.17003  0.85889  0.52836  1.0000
  H   H1326     1.0  0.00179  0.96725  0.73057  1.0000
  H   H1327     1.0  0.99481  0.95753  0.79172  1.0000
  H   H1328     1.0  0.00392  0.69951  0.77910  1.0000
  H   H1329     1.0  0.02279  0.50317  0.47528  1.0000
  H   H1330     1.0  0.18471  0.77136  0.75525  1.0000
  H   H1331     1.0  0.18464  0.60932  0.52904  1.0000
  H   H1332     1.0  0.18437  0.58632  0.48240  1.0000
  H   H1333     1.0  0.98515  0.89837  0.58453  1.0000
  C   C778      1.0  0.08848  0.47476  0.69068  1.0000
  H   H1334     1.0  0.07346  0.47501  0.69306  1.0000
  C   C779      1.0  0.21993  0.44395  0.14446  1.0000
  Fe  Fe108     1.0  0.21097  0.02732  0.12264  1.0000
  S   S217      1.0  0.22369  0.03248  0.09246  1.0000
  S   S218      1.0  0.21275  0.04223  0.14392  1.0000
  Fe  Fe109     1.0  0.19822  0.02501  0.08896  1.0000
  H   H1335     1.0  0.21486  0.15351  0.26945  1.0000
  Fe  Fe110     1.0  0.25792  0.14028  0.17027  1.0000
  S   S219      1.0  0.28684  0.14444  0.16585  1.0000
  S   S220      1.0  0.23597  0.15696  0.18874  1.0000
  Fe  Fe111     1.0  0.26774  0.11691  0.14077  1.0000
  S   S221      1.0  0.29756  0.11925  0.13426  1.0000
  S   S222      1.0  0.25886  0.10563  0.12036  1.0000
  Fe  Fe112     1.0  0.29509  0.11452  0.16477  1.0000
  S   S223      1.0  0.31791  0.09584  0.17850  1.0000
  Fe  Fe113     1.0  0.28681  0.14885  0.13586  1.0000
  S   S224      1.0  0.30043  0.17026  0.11482  1.0000
  S   S225      1.0  0.26587  0.10967  0.17155  1.0000
  S   S226      1.0  0.25720  0.14706  0.14019  1.0000
  Fe  Fe114     1.0  0.26991  0.25811  0.00849  1.0000
  S   S227      1.0  0.28332  0.23657  0.02959  1.0000
  H   H1336     1.0  0.37371  0.13852  0.36039  1.0000
  Fe  Fe115     1.0  0.26902  0.28942  0.02718  1.0000
  S   S228      1.0  0.28217  0.27036  0.04977  1.0000
  S   S229      1.0  0.26255  0.32024  0.02502  1.0000
  Fe  Fe116     1.0  0.30106  0.25674  0.02742  1.0000
  S   S230      1.0  0.33140  0.24794  0.02801  1.0000
  Fe  Fe117     1.0  0.26322  0.25221  0.04994  1.0000
  S   S231      1.0  0.24765  0.23823  0.07660  1.0000
  S   S232      1.0  0.28943  0.27713  0.00457  1.0000
  S   S233      1.0  0.24829  0.27238  0.02906  1.0000
  H   H1337     1.0  0.20072  0.05213  0.00665  1.0000
  H   H1338     1.0  0.37039  0.11596  0.14077  1.0000
  H   H1339     1.0  0.26847  0.30814  0.37243  1.0000
  C   C780      1.0  0.25911  0.15444  0.46495  1.0000
  C   C781      1.0  0.20287  0.39039  0.20385  1.0000
  H   H1340     1.0  0.34387  0.24506  0.97793  1.0000
  H   H1341     1.0  0.31824  0.15223  0.26482  1.0000
  S   S234      1.0  0.30578  0.44246  0.13372  1.0000
  H   H1342     1.0  0.20241  0.44162  0.31441  1.0000
  H   H1343     1.0  0.24380  0.19443  0.04682  1.0000
  S   S235      1.0  0.23148  0.40229  0.07445  1.0000
  S   S236      1.0  0.23621  0.39473  0.11745  1.0000
  Fe  Fe118     1.0  0.23479  0.41861  0.09355  1.0000
  S   S237      1.0  0.25242  0.44017  0.08362  1.0000
  Fe  Fe119     1.0  0.22996  0.37923  0.09908  1.0000
  S   S238      1.0  0.24267  0.34924  0.09934  1.0000
  Fe  Fe120     1.0  0.30058  0.22857  0.39221  1.0000
  S   S239      1.0  0.27378  0.23229  0.38290  1.0000
  H   H1344     1.0  0.21160  0.36346  0.06911  1.0000
  S   S240      1.0  0.32046  0.18567  0.44854  1.0000
  S   S241      1.0  0.29838  0.23340  0.42041  1.0000
  Fe  Fe121     1.0  0.24177  0.17528  0.28179  1.0000
  S   S242      1.0  0.23292  0.16731  0.31249  1.0000
  S   S243      1.0  0.25438  0.15243  0.26593  1.0000
  Fe  Fe122     1.0  0.23330  0.21618  0.28240  1.0000
  S   S244      1.0  0.22389  0.21162  0.31313  1.0000
  S   S245      1.0  0.23663  0.24366  0.26378  1.0000
  Fe  Fe123     1.0  0.24836  0.18823  0.31382  1.0000
  S   S246      1.0  0.27002  0.18092  0.33132  1.0000
  Fe  Fe124     1.0  0.20921  0.19116  0.30913  1.0000
  C   C782      1.0  0.21755  0.40818  0.36039  1.0000
  S   S247      1.0  0.25902  0.19433  0.28332  1.0000
  S   S248      1.0  0.21679  0.19756  0.27819  1.0000
  Fe  Fe125     1.0  0.27543  0.43432  0.33161  1.0000
  S   S249      1.0  0.26068  0.41936  0.35805  1.0000
  S   S250      1.0  0.26965  0.43525  0.30385  1.0000
  Fe  Fe126     1.0  0.29720  0.44865  0.35129  1.0000
  S   S251      1.0  0.28380  0.43517  0.37942  1.0000
  C   C783      1.0  0.18913  0.45648  0.34430  1.0000
  Fe  Fe127     1.0  0.28803  0.41085  0.36648  1.0000
  S   S252      1.0  0.29924  0.38145  0.37883  1.0000
  Fe  Fe128     1.0  0.25753  0.44500  0.36854  1.0000
  H   H1345     1.0  0.31445  0.45774  0.28947  1.0000
  S   S253      1.0  0.30325  0.42361  0.33905  1.0000
  H   H1346     1.0  0.23829  0.46619  0.42701  1.0000
  C   C784      1.0  0.32124  0.37829  0.42983  1.0000
  C   C785      1.0  0.29819  0.39194  0.41083  1.0000
  C   C786      1.0  0.30657  0.37933  0.39934  1.0000
  C   C787      1.0  0.32179  0.36569  0.40359  1.0000
  C   C788      1.0  0.32903  0.36510  0.41889  1.0000
  H   H1347     1.0  0.28619  0.40223  0.40789  1.0000
  H   H1348     1.0  0.32850  0.35601  0.39469  1.0000
  H   H1349     1.0  0.34089  0.35469  0.42193  1.0000
  C   C789      1.0  0.24798  0.38924  0.31920  1.0000
  C   C790      1.0  0.25833  0.40234  0.31823  1.0000
  C   C791      1.0  0.25826  0.41782  0.30397  1.0000
  H   H1350     1.0  0.24779  0.37750  0.33052  1.0000
  H   H1351     1.0  0.26632  0.40045  0.32859  1.0000
  H   H1352     1.0  0.19139  0.09417  0.02409  1.0000
  H   H1353     1.0  0.20941  0.07422  0.04624  1.0000
  H   H1354     1.0  0.35733  0.23716  0.44820  1.0000
  S   S254      1.0  0.22409  0.99733  0.12768  1.0000
  C   C792      1.0  0.30742  0.15820  0.20171  1.0000
  H   H1355     1.0  0.32348  0.46376  0.08577  1.0000
  C   C793      1.0  0.22205  0.26339  0.27097  1.0000
  C   C794      1.0  0.20773  0.26186  0.28642  1.0000
  H   H1356     1.0  0.29145  0.24627  0.45863  1.0000
  C   C795      1.0  0.24529  0.15945  0.04761  1.0000
  C   C796      1.0  0.21465  0.29676  0.26778  1.0000
  C   C797      1.0  0.22535  0.28088  0.26152  1.0000
  S   S255      1.0  0.33163  0.37959  0.44735  1.0000
  H   H1357     1.0  0.22378  0.40398  0.37282  1.0000
  H   H1358     1.0  0.21415  0.14472  0.24114  1.0000
  C   C798      1.0  0.36721  0.27311  0.42683  1.0000
  C   C799      1.0  0.35306  0.26962  0.42029  1.0000
  H   H1359     1.0  0.22128  0.05892  0.03117  1.0000
  H   H1360     1.0  0.35543  0.25759  0.41446  1.0000
  C   C800      1.0  0.27274  0.21765  0.36895  1.0000
  C   C801      1.0  0.25596  0.21865  0.36400  1.0000
  C   C802      1.0  0.25491  0.20750  0.35240  1.0000
  C   C803      1.0  0.27063  0.19515  0.34587  1.0000
  C   C804      1.0  0.28726  0.19383  0.35124  1.0000
  C   C805      1.0  0.28837  0.20514  0.36262  1.0000
  H   H1361     1.0  0.24376  0.22808  0.36915  1.0000
  H   H1362     1.0  0.24196  0.20832  0.34861  1.0000
  H   H1363     1.0  0.29943  0.18422  0.34631  1.0000
  H   H1364     1.0  0.30138  0.20431  0.36628  1.0000
  S   S256      1.0  0.23200  0.36810  0.21870  1.0000
  C   C806      1.0  0.28695  0.42521  0.11955  1.0000
  C   C807      1.0  0.27489  0.42451  0.10871  1.0000
  C   C808      1.0  0.26709  0.44065  0.09774  1.0000
  C   C809      1.0  0.27145  0.45742  0.09758  1.0000
  C   C810      1.0  0.28332  0.45815  0.10860  1.0000
  H   H1365     1.0  0.27175  0.41150  0.10871  1.0000
  H   H1366     1.0  0.20770  0.40112  0.02556  1.0000
  H   H1367     1.0  0.29300  0.41269  0.12800  1.0000
  H   H1368     1.0  0.27275  0.14946  0.05193  1.0000
  H   H1369     1.0  0.29683  0.16455  0.43615  1.0000
  C   C811      1.0  0.18647  0.08952  0.99297  1.0000
  H   H1370     1.0  0.24192  0.14768  0.04398  1.0000
  S   S257      1.0  0.34061  0.46829  0.13820  1.0000
  H   H1371     1.0  0.21859  0.31863  0.04818  1.0000
  H   H1372     1.0  0.21924  0.44218  0.13071  1.0000
  H   H1373     1.0  0.19561  0.47266  0.40472  1.0000
  H   H1374     1.0  0.18860  0.07119  0.02842  1.0000
  C   C812      1.0  0.26254  0.17378  0.45477  1.0000
  N   N55       1.0  0.34244  0.44373  0.07081  1.0000
  Fe  Fe129     1.0  0.20104  0.41100  0.08468  1.0000
  H   H1375     1.0  0.21109  0.12196  0.25156  1.0000
  H   H1376     1.0  0.21998  0.21531  0.17584  1.0000
  H   H1377     1.0  0.33408  0.41418  0.41665  1.0000
  H   H1378     1.0  0.24948  0.18348  0.45895  1.0000
  H   H1379     1.0  0.20290  0.34704  0.03189  1.0000
  H   H1380     1.0  0.22545  0.06495  0.96907  1.0000
  C   C813      1.0  0.19072  0.35075  0.08931  1.0000
  C   C814      1.0  0.25703  0.32811  0.04575  1.0000
  C   C815      1.0  0.25479  0.31594  0.06275  1.0000
  C   C816      1.0  0.25034  0.32259  0.07913  1.0000
  C   C817      1.0  0.24787  0.34146  0.07858  1.0000
  C   C818      1.0  0.25008  0.35364  0.06157  1.0000
  C   C819      1.0  0.25475  0.34696  0.04519  1.0000
  H   H1381     1.0  0.25627  0.30143  0.06332  1.0000
  H   H1382     1.0  0.24866  0.31312  0.09226  1.0000
  H   H1383     1.0  0.24850  0.36816  0.06101  1.0000
  H   H1384     1.0  0.25656  0.35641  0.03205  1.0000
  C   C820      1.0  0.36214  0.29541  0.01228  1.0000
  C   C821      1.0  0.34424  0.29835  0.00913  1.0000
  C   C822      1.0  0.33455  0.28393  0.01438  1.0000
  C   C823      1.0  0.34284  0.26641  0.02260  1.0000
  C   C824      1.0  0.36077  0.26343  0.02574  1.0000
  C   C825      1.0  0.20456  0.42722  0.36056  1.0000
  H   H1385     1.0  0.33787  0.31181  0.00247  1.0000
  H   H1386     1.0  0.32078  0.28636  0.01186  1.0000
  N   N56       1.0  0.19250  0.14305  0.26547  1.0000
  C   C826      1.0  0.32319  0.46825  0.28287  1.0000
  C   C827      1.0  0.24161  0.15611  0.20982  1.0000
  C   C828      1.0  0.25247  0.14028  0.21823  1.0000
  C   C829      1.0  0.25591  0.13926  0.23563  1.0000
  C   C830      1.0  0.24922  0.15431  0.24436  1.0000
  C   C831      1.0  0.23851  0.17027  0.23588  1.0000
  C   C832      1.0  0.23450  0.17106  0.21873  1.0000
  H   H1387     1.0  0.25777  0.12860  0.21155  1.0000
  H   H1388     1.0  0.26379  0.12676  0.24237  1.0000
  H   H1389     1.0  0.23321  0.18191  0.24259  1.0000
  H   H1390     1.0  0.22591  0.18327  0.21235  1.0000
  C   C833      1.0  0.33499  0.10652  0.18066  1.0000
  C   C834      1.0  0.34830  0.09647  0.19105  1.0000
  C   C835      1.0  0.20820  0.32778  0.05668  1.0000
  H   H1391     1.0  0.26057  0.97779  0.12321  1.0000
  C   C836      1.0  0.34873  0.13337  0.17484  1.0000
  C   C837      1.0  0.33550  0.12488  0.17224  1.0000
  S   S258      1.0  0.32175  0.46143  0.34809  1.0000
  H   H1392     1.0  0.23186  0.08430  0.99506  1.0000
  H   H1393     1.0  0.34881  0.14769  0.16859  1.0000
  H   H1394     1.0  0.32570  0.13260  0.16374  1.0000
  C   C838      1.0  0.28565  0.18936  0.10461  1.0000
  C   C839      1.0  0.26652  0.19195  0.11091  1.0000
  C   C840      1.0  0.25488  0.20710  0.10236  1.0000
  C   C841      1.0  0.26238  0.21972  0.08748  1.0000
  C   C842      1.0  0.28152  0.21731  0.08130  1.0000
  C   C843      1.0  0.29315  0.20216  0.08990  1.0000
  H   H1395     1.0  0.26066  0.18237  0.12243  1.0000
  H   H1396     1.0  0.24006  0.20899  0.10717  1.0000
  H   H1397     1.0  0.28741  0.22709  0.06987  1.0000
  H   H1398     1.0  0.30796  0.20027  0.08500  1.0000
  C   C844      1.0  0.33587  0.28156  0.42156  1.0000
  S   S259      1.0  0.18713  0.35924  0.25357  1.0000
  H   H1399     1.0  0.35509  0.43777  0.36492  1.0000
  N   N57       1.0  0.19169  0.36210  0.05399  1.0000
  H   H1400     1.0  0.37932  0.14138  0.31966  1.0000
  C   C845      1.0  0.22404  0.06103  0.13751  1.0000
  C   C846      1.0  0.22685  0.07101  0.11939  1.0000
  C   C847      1.0  0.23722  0.08497  0.11441  1.0000
  C   C848      1.0  0.24461  0.08918  0.12754  1.0000
  C   C849      1.0  0.24134  0.07956  0.14576  1.0000
  C   C850      1.0  0.23106  0.06554  0.15071  1.0000
  H   H1401     1.0  0.22135  0.06774  0.10917  1.0000
  H   H1402     1.0  0.23968  0.09240  0.10031  1.0000
  H   H1403     1.0  0.24697  0.08273  0.15596  1.0000
  H   H1404     1.0  0.22880  0.05795  0.16478  1.0000
  H   H1405     1.0  0.37586  0.03778  0.16495  1.0000
  H   H1406     1.0  0.32598  0.24404  0.44513  1.0000
  C   C851      1.0  0.18513  0.03118  0.04757  1.0000
  H   H1407     1.0  0.21241  0.11219  0.00864  1.0000
  C   C852      1.0  0.24760  0.22296  0.00130  1.0000
  H   H1408     1.0  0.30123  0.26438  0.46052  1.0000
  H   H1409     1.0  0.38415  0.27561  0.02325  1.0000
  H   H1410     1.0  0.37001  0.20511  0.45075  1.0000
  H   H1411     1.0  0.25049  0.22489  0.01372  1.0000
  N   N58       1.0  0.25665  0.26301  0.30676  1.0000
  C   C853      1.0  0.24440  0.28176  0.30285  1.0000
  C   C854      1.0  0.24417  0.24956  0.31662  1.0000
  C   C855      1.0  0.26731  0.25809  0.28858  1.0000
  C   C856      1.0  0.26947  0.26420  0.31833  1.0000
  C   C857      1.0  0.25368  0.29709  0.28934  1.0000
  C   C858      1.0  0.23081  0.25402  0.33442  1.0000
  C   C859      1.0  0.27466  0.23747  0.28820  1.0000
  C   C860      1.0  0.28293  0.24645  0.32481  1.0000
  H   H1412     1.0  0.23271  0.28087  0.29715  1.0000
  H   H1413     1.0  0.23793  0.28706  0.31574  1.0000
  H   H1414     1.0  0.25203  0.23539  0.32024  1.0000
  H   H1415     1.0  0.23556  0.24857  0.30727  1.0000
  H   H1416     1.0  0.25843  0.26306  0.27808  1.0000
  H   H1417     1.0  0.27927  0.26513  0.28306  1.0000
  H   H1418     1.0  0.27841  0.27423  0.31061  1.0000
  H   H1419     1.0  0.26179  0.27010  0.33062  1.0000
  H   H1420     1.0  0.24322  0.31010  0.28833  1.0000
  H   H1421     1.0  0.26519  0.29965  0.29409  1.0000
  H   H1422     1.0  0.25848  0.29431  0.27520  1.0000
  H   H1423     1.0  0.22363  0.24236  0.34112  1.0000
  H   H1424     1.0  0.23813  0.25582  0.34443  1.0000
  H   H1425     1.0  0.18576  0.11587  0.27520  1.0000
  C   C861      1.0  0.19171  0.38005  0.04014  1.0000
  H   H1426     1.0  0.28394  0.23042  0.29789  1.0000
  H   H1427     1.0  0.28271  0.23615  0.27418  1.0000
  H   H1428     1.0  0.29606  0.24480  0.31450  1.0000
  H   H1429     1.0  0.27723  0.23388  0.32800  1.0000
  H   H1430     1.0  0.28611  0.24712  0.33798  1.0000
  N   N59       1.0  0.24236  0.43421  0.16710  1.0000
  H   H1431     1.0  0.31259  0.43601  0.40013  1.0000
  C   C862      1.0  0.22851  0.42578  0.18260  1.0000
  C   C863      1.0  0.23859  0.43286  0.14913  1.0000
  C   C864      1.0  0.26180  0.42417  0.16844  1.0000
  H   H1432     1.0  0.19896  0.14729  0.28989  1.0000
  S   S260      1.0  0.20438  0.42901  0.10207  1.0000
  H   H1433     1.0  0.34911  0.42948  0.41248  1.0000
  C   C865      1.0  0.26571  0.40317  0.16964  1.0000
  C   C866      1.0  0.37024  0.44259  0.38250  1.0000
  C   C867      1.0  0.21927  0.12458  0.28189  1.0000
  H   H1434     1.0  0.22802  0.41201  0.18085  1.0000
  H   H1435     1.0  0.21430  0.43399  0.18235  1.0000
  S   S261      1.0  0.22295  0.18855  0.98735  1.0000
  H   H1436     1.0  0.23875  0.41837  0.14887  1.0000
  H   H1437     1.0  0.27182  0.42964  0.15632  1.0000
  H   H1438     1.0  0.26585  0.42658  0.18049  1.0000
  H   H1439     1.0  0.37125  0.44247  0.07075  1.0000
  S   S262      1.0  0.19263  0.00635  0.99715  1.0000
  N   N60       1.0  0.20506  0.44042  0.34222  1.0000
  S   S263      1.0  0.19911  0.38660  0.10799  1.0000
  H   H1440     1.0  0.35882  0.45360  0.38720  1.0000
  H   H1441     1.0  0.37625  0.06575  0.13523  1.0000
  H   H1442     1.0  0.20494  0.24847  0.29366  1.0000
  H   H1443     1.0  0.28879  0.21478  0.45651  1.0000
  H   H1444     1.0  0.25757  0.39595  0.18230  1.0000
  H   H1445     1.0  0.24843  0.46657  0.13866  1.0000
  H   H1446     1.0  0.37111  0.40612  0.41988  1.0000
  H   H1447     1.0  0.36378  0.41733  0.04856  1.0000
  S   S264      1.0  0.37737  0.34583  0.42879  1.0000
  H   H1448     1.0  0.27628  0.33048  0.40982  1.0000
  H   H1449     1.0  0.35540  0.38850  0.40570  1.0000
  H   H1450     1.0  0.29782  0.05321  0.13384  1.0000
  H   H1451     1.0  0.38040  0.26366  0.42612  1.0000
  Fe  Fe130     1.0  0.19868  0.99268  0.12143  1.0000
  C   C868      1.0  0.37224  0.10106  0.14099  1.0000
  C   C869      1.0  0.22548  0.46192  0.31912  1.0000
  C   C870      1.0  0.33128  0.31734  0.38057  1.0000
  C   C871      1.0  0.19861  0.08033  0.02127  1.0000
  H   H1452     1.0  0.35292  0.38586  0.37107  1.0000
  C   C872      1.0  0.19703  0.27770  0.29265  1.0000
  C   C873      1.0  0.22328  0.44667  0.33657  1.0000
  C   C874      1.0  0.29623  0.30451  0.37854  1.0000
  H   H1453     1.0  0.21353  0.99809  0.02540  1.0000
  H   H1454     1.0  0.21816  0.04345  0.97803  1.0000
  H   H1455     1.0  0.33082  0.15971  0.23351  1.0000
  H   H1456     1.0  0.38393  0.28728  0.97949  1.0000
  H   H1457     1.0  0.30979  0.34068  0.38629  1.0000
  H   H1458     1.0  0.23422  0.20000  0.01505  1.0000
  N   N61       1.0  0.29802  0.32436  0.37459  1.0000
  H   H1459     1.0  0.37077  0.04072  0.18813  1.0000
  H   H1460     1.0  0.22544  0.08221  0.02619  1.0000
  H   H1461     1.0  0.19705  0.39353  0.21738  1.0000
  C   C875      1.0  0.21982  0.37819  0.20084  1.0000
  C   C876      1.0  0.20132  0.39513  0.17156  1.0000
  H   H1462     1.0  0.30622  0.31949  0.40079  1.0000
  H   H1463     1.0  0.30438  0.44078  0.07328  1.0000
  H   H1464     1.0  0.26398  0.31803  0.40131  1.0000
  Fe  Fe131     1.0  0.32122  0.24901  0.40759  1.0000
  H   H1465     1.0  0.25902  0.47430  0.42302  1.0000
  H   H1466     1.0  0.30852  0.10128  0.21972  1.0000
  S   S265      1.0  0.37378  0.31386  0.00540  1.0000
  H   H1467     1.0  0.34582  0.44753  0.27109  1.0000
  H   H1468     1.0  0.34718  0.40984  0.11040  1.0000
  H   H1469     1.0  0.26323  0.39960  0.15745  1.0000
  C   C877      1.0  0.25242  0.18378  0.40600  1.0000
  H   H1470     1.0  0.35708  0.26756  0.98619  1.0000
  C   C878      1.0  0.23841  0.20888  0.00202  1.0000
  S   S266      1.0  0.20429  0.39215  0.26057  1.0000
  Fe  Fe132     1.0  0.32094  0.20849  0.42319  1.0000
  H   H1471     1.0  0.31981  0.30666  0.42986  1.0000
  H   H1472     1.0  0.27703  0.17853  0.05172  1.0000
  H   H1473     1.0  0.33883  0.31899  0.39052  1.0000
  H   H1474     1.0  0.29246  0.13281  0.25466  1.0000
  H   H1475     1.0  0.23914  0.46567  0.31694  1.0000
  N   N62       1.0  0.28349  0.02742  0.11745  1.0000
  C   C879      1.0  0.30558  0.39149  0.42599  1.0000
  C   C880      1.0  0.32003  0.12196  0.22544  1.0000
  C   C881      1.0  0.24803  0.46888  0.43410  1.0000
  H   H1476     1.0  0.31629  0.35203  0.33326  1.0000
  H   H1477     1.0  0.18628  0.41116  0.34433  1.0000
  H   H1478     1.0  0.32787  0.12420  0.21108  1.0000
  H   H1479     1.0  0.32264  0.43213  0.09350  1.0000
  H   H1480     1.0  0.25573  0.34192  0.40143  1.0000
  H   H1481     1.0  0.23946  0.17955  0.43447  1.0000
  C   C882      1.0  0.34852  0.13272  0.23945  1.0000
  H   H1482     1.0  0.25850  0.20891  0.04737  1.0000
  Fe  Fe133     1.0  0.35749  0.35846  0.45142  1.0000
  H   H1483     1.0  0.30802  0.15348  0.40795  1.0000
  H   H1484     1.0  0.33622  0.26511  0.45796  1.0000
  S   S267      1.0  0.22353  0.37540  0.30886  1.0000
  H   H1485     1.0  0.26549  0.46992  0.08903  1.0000
  C   C883      1.0  0.31041  0.45113  0.06197  1.0000
  H   H1486     1.0  0.27775  0.06045  0.08845  1.0000
  C   C884      1.0  0.20202  0.00920  0.02831  1.0000
  H   H1487     1.0  0.28823  0.15109  0.22691  1.0000
  H   H1488     1.0  0.22910  0.40780  0.34841  1.0000
  N   N63       1.0  0.35186  0.41627  0.38959  1.0000
  H   H1489     1.0  0.20982  0.01154  0.05267  1.0000
  C   C885      1.0  0.25120  0.19779  0.05581  1.0000
  H   H1490     1.0  0.28635  0.47119  0.10864  1.0000
  H   H1491     1.0  0.23639  0.28213  0.24953  1.0000
  C   C886      1.0  0.19989  0.01676  0.04380  1.0000
  Fe  Fe134     1.0  0.19535  0.34216  0.27961  1.0000
  H   H1492     1.0  0.24677  0.17535  0.39971  1.0000
  C   C887      1.0  0.23160  0.42367  0.20224  1.0000
  C   C888      1.0  0.33159  0.44531  0.05634  1.0000
  Fe  Fe135     1.0  0.23480  0.00199  0.09731  1.0000
  C   C889      1.0  0.25884  0.15203  0.06092  1.0000
  H   H1493     1.0  0.30982  0.29556  0.37439  1.0000
  H   H1494     1.0  0.19011  0.09204  0.97777  1.0000
  C   C890      1.0  0.30527  0.99570  0.11600  1.0000
  S   S268      1.0  0.26462  0.25231  0.98288  1.0000
  C   C891      1.0  0.33329  0.14600  0.22988  1.0000
  C   C892      1.0  0.33737  0.42850  0.08672  1.0000
  H   H1495     1.0  0.31054  0.45612  0.26102  1.0000
  C   C893      1.0  0.21484  0.07353  0.03148  1.0000
  H   H1496     1.0  0.22048  0.41733  0.21228  1.0000
  C   C894      1.0  0.34818  0.42393  0.10236  1.0000
  H   H1497     1.0  0.30609  0.46483  0.06576  1.0000
  H   H1498     1.0  0.35737  0.12317  0.23049  1.0000
  H   H1499     1.0  0.33413  0.43192  0.05205  1.0000
  C   C895      1.0  0.36233  0.26412  0.97233  1.0000
  C   C896      1.0  0.19258  0.13642  0.23382  1.0000
  H   H1500     1.0  0.28542  0.47318  0.29646  1.0000
  C   C897      1.0  0.32467  0.44103  0.40117  1.0000
  H   H1501     1.0  0.33807  0.41562  0.08214  1.0000
  H   H1502     1.0  0.23079  0.43711  0.20564  1.0000
  H   H1503     1.0  0.32899  0.40383  0.39087  1.0000
  H   H1504     1.0  0.36663  0.46238  0.16556  1.0000
  H   H1505     1.0  0.32989  0.42433  0.37403  1.0000
  H   H1506     1.0  0.34610  0.44938  0.29378  1.0000
  H   H1507     1.0  0.25367  0.15925  0.42747  1.0000
  H   H1508     1.0  0.20155  0.06353  0.97194  1.0000
  H   H1509     1.0  0.34264  0.43384  0.11173  1.0000
  H   H1510     1.0  0.21173  0.11315  0.28816  1.0000
  H   H1511     1.0  0.33161  0.46164  0.24731  1.0000
  H   H1512     1.0  0.24055  0.36499  0.18084  1.0000
  C   C898      1.0  0.37039  0.27795  0.02066  1.0000
  H   H1513     1.0  0.34604  0.20669  0.45264  1.0000
  C   C899      1.0  0.27847  0.02189  0.13811  1.0000
  H   H1514     1.0  0.26320  0.23006  0.29076  1.0000
  H   H1515     1.0  0.24337  0.21038  0.43023  1.0000
  N   N64       1.0  0.31557  0.13933  0.23282  1.0000
  H   H1516     1.0  0.28051  0.39756  0.17013  1.0000
  C   C900      1.0  0.21839  0.09146  0.99116  1.0000
  H   H1517     1.0  0.22059  0.37846  0.02457  1.0000
  C   C901      1.0  0.23770  0.39132  0.30576  1.0000
  C   C902      1.0  0.24052  0.45395  0.16825  1.0000
  C   C903      1.0  0.29443  0.16312  0.40911  1.0000
  C   C904      1.0  0.20588  0.34754  0.04526  1.0000
  C   C905      1.0  0.21401  0.05841  0.97806  1.0000
  S   S269      1.0  0.38195  0.29196  0.44356  1.0000
  H   H1518     1.0  0.33781  0.32419  0.36678  1.0000
  H   H1519     1.0  0.28198  0.28540  0.37384  1.0000
  C   C906      1.0  0.20345  0.13636  0.24824  1.0000
  H   H1520     1.0  0.25925  0.04907  0.11925  1.0000
  H   H1521     1.0  0.37293  0.09977  0.12672  1.0000
  C   C907      1.0  0.35334  0.22859  0.46209  1.0000
  H   H1522     1.0  0.22615  0.19501  0.16611  1.0000
  H   H1523     1.0  0.33625  0.45512  0.04356  1.0000
  H   H1524     1.0  0.36352  0.16167  0.36262  1.0000
  C   C908      1.0  0.31066  0.32604  0.38613  1.0000
  H   H1525     1.0  0.36126  0.15394  0.34336  1.0000
  C   C909      1.0  0.26659  0.03895  0.11051  1.0000
  H   H1526     1.0  0.21746  0.31018  0.26065  1.0000
  N   N65       1.0  0.25726  0.22476  0.15222  1.0000
  C   C910      1.0  0.26691  0.23179  0.13281  1.0000
  C   C911      1.0  0.27168  0.21135  0.16187  1.0000
  C   C912      1.0  0.24931  0.24103  0.16155  1.0000
  C   C913      1.0  0.24213  0.21590  0.15106  1.0000
  C   C914      1.0  0.25515  0.24731  0.12090  1.0000
  C   C915      1.0  0.28113  0.19413  0.15364  1.0000
  C   C916      1.0  0.24573  0.23708  0.18279  1.0000
  C   C917      1.0  0.36436  0.28874  0.43434  1.0000
  H   H1527     1.0  0.27931  0.23694  0.13295  1.0000
  H   H1528     1.0  0.27220  0.22057  0.12493  1.0000
  H   H1529     1.0  0.26603  0.20621  0.17658  1.0000
  H   H1530     1.0  0.28277  0.21838  0.16206  1.0000
  H   H1531     1.0  0.25872  0.25109  0.15697  1.0000
  H   H1532     1.0  0.23602  0.24871  0.15746  1.0000
  H   H1533     1.0  0.23127  0.22635  0.14479  1.0000
  H   H1534     1.0  0.24719  0.20627  0.14140  1.0000
  H   H1535     1.0  0.26392  0.25125  0.10714  1.0000
  H   H1536     1.0  0.24347  0.24276  0.11836  1.0000
  H   H1537     1.0  0.24999  0.25989  0.12678  1.0000
  H   H1538     1.0  0.29010  0.19753  0.13994  1.0000
  H   H1539     1.0  0.29033  0.18475  0.16268  1.0000
  H   H1540     1.0  0.27104  0.18630  0.15282  1.0000
  H   H1541     1.0  0.23744  0.22635  0.18936  1.0000
  H   H1542     1.0  0.23794  0.24984  0.18772  1.0000
  H   H1543     1.0  0.30261  0.06589  0.11040  1.0000
  C   C918      1.0  0.20058  0.29516  0.28348  1.0000
  H   H1544     1.0  0.23018  0.40817  0.28065  1.0000
  Fe  Fe136     1.0  0.20541  0.40376  0.12465  1.0000
  H   H1545     1.0  0.28371  0.14861  0.43542  1.0000
  H   H1546     1.0  0.27300  0.17672  0.46084  1.0000
  C   C919      1.0  0.29445  0.05593  0.12000  1.0000
  H   H1547     1.0  0.31846  0.32034  0.34977  1.0000
  C   C920      1.0  0.26364  0.00989  0.14558  1.0000
  S   S270      1.0  0.36667  0.21627  0.36103  1.0000
  H   H1548     1.0  0.30068  0.98918  0.13056  1.0000
  H   H1549     1.0  0.37184  0.09705  0.20155  1.0000
  H   H1550     1.0  0.27816  0.00438  0.10943  1.0000
  C   C921      1.0  0.26990  0.04948  0.09037  1.0000
  C   C922      1.0  0.21041  0.06109  0.99806  1.0000
  H   H1551     1.0  0.28756  0.30240  0.35384  1.0000
  H   H1552     1.0  0.24061  0.19802  0.17909  1.0000
  H   H1553     1.0  0.20264  0.13302  0.22126  1.0000
  H   H1554     1.0  0.23484  0.43503  0.33384  1.0000
  H   H1555     1.0  0.30759  0.14625  0.19597  1.0000
  C   C923      1.0  0.27954  0.33672  0.37950  1.0000
  C   C924      1.0  0.37087  0.15279  0.35249  1.0000
  C   C925      1.0  0.23809  0.40648  0.29107  1.0000
  C   C926      1.0  0.36181  0.10483  0.19329  1.0000
  H   H1556     1.0  0.27989  0.06317  0.12094  1.0000
  C   C927      1.0  0.34735  0.30102  0.43508  1.0000
  C   C928      1.0  0.30340  0.11375  0.22586  1.0000
  C   C929      1.0  0.36404  0.39843  0.39677  1.0000
  C   C930      1.0  0.24835  0.41974  0.29021  1.0000
  H   H1557     1.0  0.37262  0.39168  0.38533  1.0000
  H   H1558     1.0  0.35850  0.40656  0.35483  1.0000
  C   C931      1.0  0.28270  0.30021  0.36898  1.0000
  H   H1559     1.0  0.34506  0.31310  0.44087  1.0000
  C   C932      1.0  0.30464  0.15035  0.26373  1.0000
  C   C933      1.0  0.23173  0.20574  0.16918  1.0000
  H   H1560     1.0  0.36722  0.24987  0.03208  1.0000
  H   H1561     1.0  0.24965  0.43712  0.13745  1.0000
  H   H1562     1.0  0.23178  0.16719  0.05359  1.0000
  S   S271      1.0  0.32164  0.20237  0.39578  1.0000
  S   S272      1.0  0.37734  0.13470  0.18968  1.0000
  H   H1563     1.0  0.36572  0.44971  0.04886  1.0000
  H   H1564     1.0  0.18766  0.34288  0.20008  1.0000
  H   H1565     1.0  0.24480  0.41434  0.20459  1.0000
  C   C934      1.0  0.34751  0.40044  0.36521  1.0000
  H   H1566     1.0  0.31403  0.12216  0.26034  1.0000
  H   H1567     1.0  0.21982  0.35086  0.04190  1.0000
  H   H1568     1.0  0.25633  0.03038  0.11173  1.0000
  C   C935      1.0  0.34047  0.42471  0.40569  1.0000
  C   C936      1.0  0.29887  0.03796  0.11261  1.0000
  H   H1569     1.0  0.20812  0.43329  0.37066  1.0000
  C   C937      1.0  0.30969  0.34980  0.34811  1.0000
  H   H1570     1.0  0.22399  0.37948  0.15523  1.0000
  H   H1571     1.0  0.29577  0.32973  0.34603  1.0000
  H   H1572     1.0  0.28126  0.35103  0.37821  1.0000
  H   H1573     1.0  0.27057  0.33785  0.36968  1.0000
  H   H1574     1.0  0.31929  0.35218  0.35556  1.0000
  H   H1575     1.0  0.29940  0.40160  0.43454  1.0000
  H   H1576     1.0  0.29681  0.36040  0.34954  1.0000
  H   H1577     1.0  0.23011  0.12117  0.26987  1.0000
  H   H1578     1.0  0.18611  0.27643  0.30476  1.0000
  Fe  Fe137     1.0  0.21116  0.37224  0.28618  1.0000
  Fe  Fe138     1.0  0.21453  0.36752  0.24724  1.0000
  S   S273      1.0  0.22384  0.34826  0.27213  1.0000
  H   H1579     1.0  0.26121  0.00663  0.16086  1.0000
  C   C938      1.0  0.29104  0.44204  0.11962  1.0000
  H   H1580     1.0  0.29369  0.12331  0.21753  1.0000
  C   C939      1.0  0.33310  0.29737  0.42879  1.0000
  S   S274      1.0  0.21043  0.99499  0.09125  1.0000
  H   H1581     1.0  0.18980  0.46092  0.37158  1.0000
  H   H1582     1.0  0.19243  0.17108  0.25047  1.0000
  C   C940      1.0  0.30204  0.18745  0.46765  1.0000
  C   C941      1.0  0.21816  0.38279  0.16864  1.0000
  H   H1583     1.0  0.25151  0.16812  0.03470  1.0000
  H   H1584     1.0  0.36309  0.42362  0.09725  1.0000
  C   C942      1.0  0.20329  0.43143  0.32752  1.0000
  S   S275      1.0  0.31735  0.27657  0.41518  1.0000
  H   H1585     1.0  0.29650  0.16363  0.25772  1.0000
  N   N66       1.0  0.26843  0.17674  0.43404  1.0000
  H   H1586     1.0  0.22621  0.45144  0.34791  1.0000
  C   C943      1.0  0.27263  0.19582  0.42735  1.0000
  C   C944      1.0  0.28595  0.16288  0.42963  1.0000
  C   C945      1.0  0.25313  0.17416  0.42624  1.0000
  H   H1587     1.0  0.35351  0.46665  0.27484  1.0000
  C   C946      1.0  0.25665  0.21160  0.43272  1.0000
  C   C947      1.0  0.35622  0.20869  0.45962  1.0000
  H   H1588     1.0  0.25503  0.21237  0.44733  1.0000
  H   H1589     1.0  0.32891  0.45068  0.38818  1.0000
  H   H1590     1.0  0.37533  0.42098  0.36742  1.0000
  H   H1591     1.0  0.38393  0.17407  0.33449  1.0000
  H   H1592     1.0  0.28461  0.19674  0.43268  1.0000
  H   H1593     1.0  0.20808  0.43877  0.15433  1.0000
  H   H1594     1.0  0.34651  0.46015  0.08813  1.0000
  C   C948      1.0  0.19648  0.36433  0.07117  1.0000
  H   H1595     1.0  0.21988  0.26631  0.33148  1.0000
  C   C949      1.0  0.37078  0.42048  0.05810  1.0000
  C   C950      1.0  0.20618  0.14309  0.27668  1.0000
  C   C951      1.0  0.37780  0.39957  0.40789  1.0000
  H   H1596     1.0  0.25988  0.22492  0.42429  1.0000
  H   H1597     1.0  0.18733  0.37929  0.02757  1.0000
  Fe  Fe139     1.0  0.37905  0.31977  0.45021  1.0000
  C   C952      1.0  0.28993  0.01090  0.10849  1.0000
  H   H1598     1.0  0.34309  0.12451  0.25291  1.0000
  H   H1599     1.0  0.34797  0.08227  0.19763  1.0000
  H   H1600     1.0  0.24260  0.19722  0.40529  1.0000
  S   S276      1.0  0.18780  0.31447  0.29262  1.0000
  H   H1601     1.0  0.38471  0.16300  0.30782  1.0000
  N   N67       1.0  0.31585  0.31976  0.05794  1.0000
  C   C953      1.0  0.32172  0.33116  0.03915  1.0000
  C   C954      1.0  0.33085  0.31670  0.06863  1.0000
  C   C955      1.0  0.29806  0.32940  0.06823  1.0000
  C   C956      1.0  0.31279  0.30184  0.05568  1.0000
  C   C957      1.0  0.30744  0.33724  0.02655  1.0000
  C   C958      1.0  0.34876  0.30307  0.06262  1.0000
  C   C959      1.0  0.29784  0.34898  0.07025  1.0000
  C   C960      1.0  0.30712  0.28812  0.07365  1.0000
  H   H1602     1.0  0.32577  0.34377  0.04022  1.0000
  H   H1603     1.0  0.33439  0.32358  0.03140  1.0000
  H   H1604     1.0  0.32582  0.31199  0.08363  1.0000
  H   H1605     1.0  0.33508  0.32989  0.06757  1.0000
  H   H1606     1.0  0.28645  0.33024  0.06162  1.0000
  H   H1607     1.0  0.29429  0.32133  0.08241  1.0000
  H   H1608     1.0  0.30155  0.30430  0.04798  1.0000
  H   H1609     1.0  0.32498  0.29470  0.04694  1.0000
  H   H1610     1.0  0.31337  0.34577  0.01340  1.0000
  H   H1611     1.0  0.30429  0.32543  0.02286  1.0000
  H   H1612     1.0  0.29447  0.34585  0.03256  1.0000
  H   H1613     1.0  0.35515  0.30725  0.04793  1.0000
  H   H1614     1.0  0.35905  0.30275  0.07075  1.0000
  H   H1615     1.0  0.34645  0.28882  0.06528  1.0000
  H   H1616     1.0  0.30850  0.34913  0.07768  1.0000
  H   H1617     1.0  0.28420  0.35429  0.07852  1.0000
  H   H1618     1.0  0.29938  0.35867  0.05678  1.0000
  H   H1619     1.0  0.29183  0.29043  0.07810  1.0000
  H   H1620     1.0  0.31308  0.28879  0.08514  1.0000
  H   H1621     1.0  0.31236  0.27385  0.07123  1.0000
  H   H1622     1.0  0.30434  0.04103  0.09748  1.0000
  C   C961      1.0  0.30665  0.13523  0.25295  1.0000
  S   S277      1.0  0.34394  0.22439  0.41242  1.0000
  H   H1623     1.0  0.33348  0.30238  0.38114  1.0000
  H   H1624     1.0  0.19765  0.15303  0.32240  1.0000
  H   H1625     1.0  0.31105  0.02938  0.11820  1.0000
  H   H1626     1.0  0.19536  0.32225  0.06054  1.0000
  C   C962      1.0  0.23443  0.20639  0.98598  1.0000
  H   H1627     1.0  0.33982  0.14856  0.21499  1.0000
  C   C963      1.0  0.30563  0.33015  0.35434  1.0000
  H   H1628     1.0  0.25019  0.01726  0.14189  1.0000
  H   H1629     1.0  0.36578  0.07012  0.16701  1.0000
  H   H1630     1.0  0.25631  0.05642  0.08670  1.0000
  Fe  Fe140     1.0  0.34256  0.22059  0.38467  1.0000
  H   H1631     1.0  0.25890  0.23319  0.18780  1.0000
  C   C964      1.0  0.19368  0.39890  0.18921  1.0000
  H   H1632     1.0  0.27303  0.03431  0.14439  1.0000
  H   H1633     1.0  0.29198  0.29933  0.39357  1.0000
  H   H1634     1.0  0.35734  0.14079  0.24233  1.0000
  H   H1635     1.0  0.27691  0.04017  0.08064  1.0000
  C   C965      1.0  0.26846  0.33123  0.39918  1.0000
  C   C966      1.0  0.34335  0.45746  0.28017  1.0000
  C   C967      1.0  0.22745  0.37444  0.18321  1.0000
  C   C968      1.0  0.33798  0.46127  0.07794  1.0000
  H   H1636     1.0  0.24110  0.20377  0.06704  1.0000
  H   H1637     1.0  0.29711  0.17674  0.40128  1.0000
  H   H1638     1.0  0.22664  0.12581  0.29220  1.0000
  C   C969      1.0  0.30231  0.15422  0.22294  1.0000
  H   H1639     1.0  0.29089  0.01459  0.14398  1.0000
  S   S278      1.0  0.32138  0.24655  0.37903  1.0000
  H   H1640     1.0  0.37035  0.40969  0.07084  1.0000
  H   H1641     1.0  0.24834  0.43165  0.27906  1.0000
  C   C970      1.0  0.38030  0.45772  0.09821  1.0000
  C   C971      1.0  0.30124  0.24944  0.46539  1.0000
  H   H1642     1.0  0.28573  0.15813  0.40255  1.0000
  N   N68       1.0  0.25865  0.16396  0.07392  1.0000
  C   C972      1.0  0.27170  0.15323  0.08660  1.0000
  C   C973      1.0  0.23984  0.16859  0.08590  1.0000
  C   C974      1.0  0.26546  0.18137  0.06348  1.0000
  C   C975      1.0  0.29250  0.15005  0.07780  1.0000
  C   C976      1.0  0.23137  0.15205  0.09770  1.0000
  H   H1643     1.0  0.27001  0.16016  0.09822  1.0000
  H   H1644     1.0  0.26853  0.13934  0.09310  1.0000
  H   H1645     1.0  0.22948  0.17722  0.07781  1.0000
  H   H1646     1.0  0.24042  0.17717  0.09546  1.0000
  H   H1647     1.0  0.27132  0.18678  0.07246  1.0000
  H   H1648     1.0  0.25689  0.13795  0.06839  1.0000
  H   H1649     1.0  0.29590  0.14228  0.06660  1.0000
  H   H1650     1.0  0.29767  0.16310  0.07275  1.0000
  H   H1651     1.0  0.30032  0.14171  0.08855  1.0000
  H   H1652     1.0  0.23922  0.14413  0.10850  1.0000
  H   H1653     1.0  0.21719  0.15720  0.10501  1.0000
  H   H1654     1.0  0.23013  0.14278  0.08925  1.0000
  H   H1655     1.0  0.30887  0.98462  0.10797  1.0000
  H   H1656     1.0  0.18756  0.46549  0.33069  1.0000
  C   C977      1.0  0.36312  0.42902  0.37542  1.0000
  H   H1657     1.0  0.24481  0.45470  0.18084  1.0000
  H   H1658     1.0  0.20968  0.39746  0.36140  1.0000
  C   C978      1.0  0.21019  0.38686  0.03373  1.0000
  H   H1659     1.0  0.29522  0.01508  0.09345  1.0000
  H   H1660     1.0  0.27716  0.19920  0.41222  1.0000
  H   H1661     1.0  0.26796  0.99665  0.14091  1.0000
  H   H1662     1.0  0.31811  0.00072  0.11434  1.0000
  C   C979      1.0  0.21446  0.11142  0.99400  1.0000
  H   H1663     1.0  0.21596  0.38749  0.04541  1.0000
  H   H1664     1.0  0.22367  0.05504  0.00278  1.0000
  H   H1665     1.0  0.22655  0.11775  0.98642  1.0000
  H   H1666     1.0  0.37626  0.18759  0.39225  1.0000
  H   H1667     1.0  0.22546  0.45708  0.30665  1.0000
  H   H1668     1.0  0.33666  0.40026  0.35796  1.0000
  H   H1669     1.0  0.21372  0.46288  0.44819  1.0000
  C   C980      1.0  0.18996  0.46869  0.35724  1.0000
  C   C981      1.0  0.36274  0.43993  0.06218  1.0000
  S   S279      1.0  0.18950  0.40601  0.15349  1.0000
  H   H1670     1.0  0.19029  0.42474  0.36655  1.0000
  C   C982      1.0  0.36184  0.12341  0.18546  1.0000
  H   H1671     1.0  0.26584  0.18571  0.39698  1.0000
  H   H1672     1.0  0.37583  0.43909  0.16394  1.0000
  H   H1673     1.0  0.29598  0.10934  0.24012  1.0000
  H   H1674     1.0  0.32080  0.16275  0.19632  1.0000
  N   N69       1.0  0.20348  0.08059  0.00089  1.0000
  H   H1675     1.0  0.30411  0.45215  0.05008  1.0000
  H   H1676     1.0  0.20250  0.12005  0.98812  1.0000
  H   H1677     1.0  0.30067  0.16749  0.22717  1.0000
  H   H1678     1.0  0.29668  0.16954  0.19630  1.0000
  H   H1679     1.0  0.29695  0.14618  0.27800  1.0000
  H   H1680     1.0  0.18717  0.41566  0.32024  1.0000
  S   S280      1.0  0.22875  0.45404  0.38434  1.0000
  C   C983      1.0  0.25295  0.23455  0.98448  1.0000
  C   C984      1.0  0.33868  0.41164  0.38047  1.0000
  H   H1681     1.0  0.18752  0.33802  0.08778  1.0000
  H   H1682     1.0  0.32942  0.11093  0.23318  1.0000
  H   H1683     1.0  0.35970  0.09656  0.14992  1.0000
  S   S281      1.0  0.26344  0.98964  0.08370  1.0000
  C   C985      1.0  0.28819  0.20327  0.46791  1.0000
  H   H1684     1.0  0.36825  0.45663  0.10904  1.0000
  H   H1685     1.0  0.21387  0.32668  0.06896  1.0000
  C   C986      1.0  0.18946  0.01607  0.01647  1.0000
  H   H1686     1.0  0.25477  0.45581  0.44197  1.0000
  H   H1687     1.0  0.24983  0.14958  0.45900  1.0000
  C   C987      1.0  0.31721  0.46793  0.25315  1.0000
  H   H1688     1.0  0.31997  0.44878  0.41251  1.0000
  H   H1689     1.0  0.21582  0.42088  0.32402  1.0000
  S   S282      1.0  0.27050  0.46075  0.34142  1.0000
  H   H1690     1.0  0.20221  0.34641  0.09695  1.0000
  H   H1691     1.0  0.18999  0.37838  0.07389  1.0000
  H   H1692     1.0  0.22090  0.09259  0.97599  1.0000
  C   C988      1.0  0.32069  0.23797  0.45977  1.0000
  H   H1693     1.0  0.19189  0.33228  0.22262  1.0000
  H   H1694     1.0  0.27227  0.14428  0.46540  1.0000
  H   H1695     1.0  0.18536  0.12532  0.32457  1.0000
  H   H1696     1.0  0.38450  0.38536  0.41360  1.0000
  H   H1697     1.0  0.36514  0.23454  0.98494  1.0000
  S   S283      1.0  0.37926  0.36668  0.46098  1.0000
  H   H1698     1.0  0.21834  0.45889  0.14355  1.0000
  C   C989      1.0  0.38062  0.04312  0.17475  1.0000
  H   H1699     1.0  0.22584  0.46129  0.16970  1.0000
  H   H1700     1.0  0.37787  0.43588  0.39369  1.0000
  H   H1701     1.0  0.37987  0.44953  0.37096  1.0000
  C   C990      1.0  0.18644  0.42224  0.33187  1.0000
  C   C991      1.0  0.25206  0.46551  0.15205  1.0000
  H   H1702     1.0  0.31894  0.22412  0.45946  1.0000
  H   H1703     1.0  0.26710  0.46020  0.15112  1.0000
  C   C992      1.0  0.38022  0.06389  0.16850  1.0000
  C   C993      1.0  0.37974  0.45229  0.16338  1.0000
  H   H1704     1.0  0.19011  0.35653  0.21503  1.0000
  C   C994      1.0  0.35899  0.24471  0.97390  1.0000
  H   H1705     1.0  0.28215  0.46956  0.27509  1.0000
  Fe  Fe141     1.0  0.31281  0.46970  0.13256  1.0000
  H   H1706     1.0  0.30889  0.46601  0.22874  1.0000
  H   H1707     1.0  0.35433  0.30110  0.97019  1.0000
  H   H1708     1.0  0.38224  0.06865  0.18035  1.0000
  C   C995      1.0  0.24904  0.23199  0.96844  1.0000
  C   C996      1.0  0.23975  0.21801  0.96919  1.0000
  S   S284      1.0  0.35973  0.09890  0.74586  1.0000
  H   H1709     1.0  0.18698  0.20942  0.58537  1.0000
  H   H1710     1.0  0.23663  0.21629  0.95680  1.0000
  H   H1711     1.0  0.20265  0.06010  0.54641  1.0000
  Fe  Fe142     1.0  0.28483  0.00863  0.63038  1.0000
  S   S285      1.0  0.26178  0.03245  0.62343  1.0000
  H   H1712     1.0  0.24518  0.47146  0.49120  1.0000
  H   H1713     1.0  0.30093  0.98046  0.56282  1.0000
  Fe  Fe143     1.0  0.31574  0.17245  0.82544  1.0000
  S   S286      1.0  0.32063  0.20132  0.81894  1.0000
  S   S287      1.0  0.28963  0.16169  0.83841  1.0000
  Fe  Fe144     1.0  0.35596  0.15596  0.81226  1.0000
  S   S288      1.0  0.36481  0.18315  0.80459  1.0000
  C   C997      1.0  0.36248  0.00671  0.64117  1.0000
  Fe  Fe145     1.0  0.34592  0.18869  0.83118  1.0000
  H   H1714     1.0  0.27072  0.40507  0.62257  1.0000
  Fe  Fe146     1.0  0.33896  0.19359  0.79288  1.0000
  S   S289      1.0  0.33980  0.21149  0.76449  1.0000
  S   S290      1.0  0.33939  0.16043  0.83987  1.0000
  S   S291      1.0  0.33181  0.16584  0.79839  1.0000
  Fe  Fe147     1.0  0.22284  0.19403  0.91981  1.0000
  S   S292      1.0  0.20365  0.20959  0.94070  1.0000
  S   S293      1.0  0.23856  0.20994  0.89448  1.0000
  H   H1715     1.0  0.20961  0.23310  0.60763  1.0000
  S   S294      1.0  0.23605  0.17171  0.94047  1.0000
  H   H1716     1.0  0.34755  0.15240  0.68422  1.0000
  C   C998      1.0  0.22994  0.21801  0.72344  1.0000
  C   C999      1.0  0.32769  0.26607  0.72594  1.0000
  H   H1717     1.0  0.32999  0.13291  0.73150  1.0000
  C   C1000     1.0  0.35737  0.36273  0.51645  1.0000
  C   C1001     1.0  0.24511  0.98051  0.92306  1.0000
  C   C1002     1.0  0.31817  0.26116  0.69945  1.0000
  S   S295      1.0  0.31772  0.03256  0.79663  1.0000
  S   S296      1.0  0.33579  0.06004  0.74691  1.0000
  C   C1003     1.0  0.21701  0.05624  0.53886  1.0000
  H   H1718     1.0  0.22227  0.08344  0.52752  1.0000
  C   C1004     1.0  0.30506  0.12277  0.58937  1.0000
  H   H1719     1.0  0.26287  0.21643  0.91698  1.0000
  C   C1005     1.0  0.37473  0.22125  0.85696  1.0000
  H   H1720     1.0  0.27741  0.07104  0.64710  1.0000
  S   S297      1.0  0.19773  0.02527  0.90607  1.0000
  H   H1721     1.0  0.31543  0.98298  0.85996  1.0000
  H   H1722     1.0  0.26796  0.41573  0.65768  1.0000
  H   H1723     1.0  0.32006  0.23572  0.50007  1.0000
  Fe  Fe148     1.0  0.28327  0.21790  0.69370  1.0000
  S   S298      1.0  0.30799  0.21392  0.67098  1.0000
  S   S299      1.0  0.28149  0.20263  0.72313  1.0000
  Fe  Fe149     1.0  0.25967  0.24413  0.66800  1.0000
  S   S300      1.0  0.28224  0.24243  0.64286  1.0000
  S   S301      1.0  0.23209  0.26333  0.66788  1.0000
  Fe  Fe150     1.0  0.28782  0.21214  0.65493  1.0000
  S   S302      1.0  0.29633  0.19038  0.63769  1.0000
  Fe  Fe151     1.0  0.30044  0.24450  0.66081  1.0000
  S   S303      1.0  0.32309  0.26100  0.64988  1.0000
  S   S304      1.0  0.26356  0.21366  0.67855  1.0000
  S   S305      1.0  0.27745  0.24863  0.68518  1.0000
  Fe  Fe152     1.0  0.23911  0.16229  0.58331  1.0000
  S   S306      1.0  0.26590  0.15756  0.56305  1.0000
  S   S307      1.0  0.23255  0.17326  0.60941  1.0000
  Fe  Fe153     1.0  0.21852  0.14715  0.56285  1.0000
  S   S308      1.0  0.24361  0.14083  0.54093  1.0000
  H   H1724     1.0  0.34756  0.31922  0.60127  1.0000
  Fe  Fe154     1.0  0.25865  0.13040  0.56446  1.0000
  S   S309      1.0  0.28045  0.10432  0.56645  1.0000
  Fe  Fe155     1.0  0.24861  0.16842  0.54133  1.0000
  S   S310      1.0  0.25301  0.19117  0.51631  1.0000
  S   S311      1.0  0.23316  0.13444  0.58627  1.0000
  S   S312      1.0  0.22228  0.17544  0.56166  1.0000
  H   H1725     1.0  0.22935  0.04725  0.59243  1.0000
  H   H1726     1.0  0.25150  0.38804  0.67267  1.0000
  Fe  Fe156     1.0  0.35803  0.37938  0.61777  1.0000
  S   S313      1.0  0.34702  0.40391  0.59757  1.0000
  C   C1006     1.0  0.28665  0.98858  0.79737  1.0000
  Fe  Fe157     1.0  0.32218  0.36494  0.62906  1.0000
  S   S314      1.0  0.30878  0.38838  0.60967  1.0000
  S   S315      1.0  0.30163  0.34704  0.64535  1.0000
  Fe  Fe158     1.0  0.33527  0.38377  0.58938  1.0000
  S   S316      1.0  0.33212  0.38605  0.56043  1.0000
  Fe  Fe159     1.0  0.32151  0.40620  0.61974  1.0000
  S   S317      1.0  0.30482  0.43252  0.62826  1.0000
  S   S318      1.0  0.34801  0.35884  0.60787  1.0000
  S   S319      1.0  0.33328  0.38312  0.64076  1.0000
  C   C1007     1.0  0.31613  0.21015  0.91525  1.0000
  H   H1727     1.0  0.31090  0.26749  0.68785  1.0000
  C   C1008     1.0  0.26044  0.38913  0.65863  1.0000
  H   H1728     1.0  0.33585  0.38589  0.52250  1.0000
  H   H1729     1.0  0.32120  0.26305  0.47977  1.0000
  C   C1009     1.0  0.37097  0.41446  0.54356  1.0000
  H   H1730     1.0  0.19720  0.20862  0.74703  1.0000
  H   H1731     1.0  0.28579  0.40015  0.64540  1.0000
  H   H1732     1.0  0.27849  0.15462  0.73128  1.0000
  C   C1010     1.0  0.28374  0.43624  0.60284  1.0000
  C   C1011     1.0  0.34698  0.37117  0.54651  1.0000
  C   C1012     1.0  0.27495  0.98023  0.74022  1.0000
  C   C1013     1.0  0.32783  0.27857  0.73883  1.0000
  H   H1733     1.0  0.35284  0.27371  0.96378  1.0000
  C   C1014     1.0  0.38324  0.28611  0.96549  1.0000
  C   C1015     1.0  0.34579  0.37437  0.52798  1.0000
  H   H1734     1.0  0.29840  0.09372  0.64348  1.0000
  H   H1735     1.0  0.28266  0.28180  0.69767  1.0000
  H   H1736     1.0  0.27205  0.29857  0.71140  1.0000
  H   H1737     1.0  0.29538  0.42759  0.59576  1.0000
  C   C1016     1.0  0.28489  0.44106  0.61888  1.0000
  H   H1738     1.0  0.34842  0.13310  0.71272  1.0000
  H   H1739     1.0  0.31027  0.25070  0.70852  1.0000
  C   C1017     1.0  0.27217  0.18931  0.49796  1.0000
  H   H1740     1.0  0.33005  0.10651  0.72233  1.0000
  H   H1741     1.0  0.29960  0.99053  0.76868  1.0000
  H   H1742     1.0  0.27441  0.10146  0.65029  1.0000
  H   H1743     1.0  0.22382  0.04241  0.54527  1.0000
  H   H1744     1.0  0.21208  0.21397  0.59731  1.0000
  H   H1745     1.0  0.38314  0.26476  0.92008  1.0000
  H   H1746     1.0  0.33135  0.17356  0.68196  1.0000
  C   C1018     1.0  0.20023  0.12962  0.53376  1.0000
  C   C1019     1.0  0.32678  0.29098  0.69726  1.0000
  H   H1747     1.0  0.37537  0.42037  0.65869  1.0000
  H   H1748     1.0  0.21147  0.13686  0.53038  1.0000
  C   C1020     1.0  0.31701  0.28484  0.64896  1.0000
  C   C1021     1.0  0.33088  0.29532  0.64313  1.0000
  C   C1022     1.0  0.32634  0.31446  0.64193  1.0000
  C   C1023     1.0  0.30791  0.32313  0.64679  1.0000
  C   C1024     1.0  0.29410  0.31260  0.65294  1.0000
  C   C1025     1.0  0.29861  0.29350  0.65394  1.0000
  H   H1749     1.0  0.34516  0.28862  0.63940  1.0000
  H   H1750     1.0  0.33709  0.32247  0.63736  1.0000
  H   H1751     1.0  0.27981  0.31925  0.65673  1.0000
  H   H1752     1.0  0.28783  0.28552  0.65841  1.0000
  C   C1026     1.0  0.21422  0.25449  0.66466  1.0000
  H   H1753     1.0  0.38032  0.97609  0.67666  1.0000
  C   C1027     1.0  0.36818  0.21493  0.84459  1.0000
  C   C1028     1.0  0.21740  0.23686  0.66098  1.0000
  C   C1029     1.0  0.30099  0.17259  0.48270  1.0000
  H   H1754     1.0  0.20495  0.21583  0.65760  1.0000
  H   H1755     1.0  0.23127  0.22874  0.65903  1.0000
  C   C1030     1.0  0.27842  0.18691  0.62911  1.0000
  C   C1031     1.0  0.26007  0.19059  0.63844  1.0000
  C   C1032     1.0  0.24610  0.18645  0.63218  1.0000
  C   C1033     1.0  0.25034  0.17899  0.61634  1.0000
  C   C1034     1.0  0.26863  0.17570  0.60674  1.0000
  C   C1035     1.0  0.28268  0.17949  0.61323  1.0000
  H   H1756     1.0  0.25666  0.19625  0.65072  1.0000
  H   H1757     1.0  0.23199  0.18894  0.63974  1.0000
  H   H1758     1.0  0.27201  0.17011  0.59443  1.0000
  H   H1759     1.0  0.29686  0.17674  0.60591  1.0000
  H   H1760     1.0  0.33674  0.04028  0.67288  1.0000
  C   C1036     1.0  0.37046  0.10135  0.79427  1.0000
  C   C1037     1.0  0.32928  0.22646  0.49094  1.0000
  H   H1761     1.0  0.29489  0.16208  0.73901  1.0000
  H   H1762     1.0  0.27710  0.99125  0.74605  1.0000
  H   H1763     1.0  0.32387  0.16470  0.73142  1.0000
  C   C1038     1.0  0.30038  0.10774  0.60648  1.0000
  C   C1039     1.0  0.30544  0.01609  0.79649  1.0000
  C   C1040     1.0  0.30754  0.00932  0.78060  1.0000
  C   C1041     1.0  0.29799  0.99571  0.78100  1.0000
  N   N70       1.0  0.19511  0.23052  0.72319  1.0000
  C   C1042     1.0  0.28456  0.99537  0.81324  1.0000
  C   C1043     1.0  0.29379  0.00925  0.81273  1.0000
  H   H1764     1.0  0.31640  0.01466  0.76797  1.0000
  C   C1044     1.0  0.37444  0.22043  0.82568  1.0000
  N   N71       1.0  0.33431  0.23697  0.47144  1.0000
  H   H1765     1.0  0.29205  0.01456  0.82501  1.0000
  C   C1045     1.0  0.32363  0.20873  0.75313  1.0000
  C   C1046     1.0  0.30879  0.20027  0.76283  1.0000
  C   C1047     1.0  0.29587  0.19846  0.75352  1.0000
  C   C1048     1.0  0.29765  0.20528  0.73454  1.0000
  C   C1049     1.0  0.31258  0.21357  0.72479  1.0000
  C   C1050     1.0  0.32557  0.21525  0.73409  1.0000
  H   H1766     1.0  0.30705  0.19541  0.77756  1.0000
  H   H1767     1.0  0.28435  0.19199  0.76111  1.0000
  H   H1768     1.0  0.31427  0.21835  0.71006  1.0000
  H   H1769     1.0  0.33728  0.22139  0.72657  1.0000
  C   C1051     1.0  0.18732  0.09184  0.94111  1.0000
  H   H1770     1.0  0.23084  0.97824  0.92923  1.0000
  S   S320      1.0  0.38499  0.33317  0.50921  1.0000
  H   H1771     1.0  0.36533  0.99196  0.81737  1.0000
  H   H1772     1.0  0.32100  0.98768  0.72248  1.0000
  C   C1052     1.0  0.36362  0.10684  0.76386  1.0000
  C   C1053     1.0  0.19183  0.46952  0.47045  1.0000
  H   H1773     1.0  0.25097  0.35597  0.65986  1.0000
  S   S321      1.0  0.35179  0.99198  0.60178  1.0000
  H   H1774     1.0  0.18859  0.26888  0.72775  1.0000
  C   C1054     1.0  0.27333  0.20419  0.48299  1.0000
  H   H1775     1.0  0.24490  0.41382  0.60634  1.0000
  C   C1055     1.0  0.27423  0.17529  0.85322  1.0000
  C   C1056     1.0  0.27251  0.19440  0.84899  1.0000
  C   C1057     1.0  0.26086  0.20506  0.86141  1.0000
  C   C1058     1.0  0.25121  0.19660  0.87823  1.0000
  C   C1059     1.0  0.25262  0.17753  0.88229  1.0000
  C   C1060     1.0  0.26400  0.16690  0.86970  1.0000
  H   H1776     1.0  0.28017  0.20097  0.83617  1.0000
  H   H1777     1.0  0.25965  0.21984  0.85817  1.0000
  H   H1778     1.0  0.24517  0.17094  0.89525  1.0000
  H   H1779     1.0  0.26527  0.15212  0.87298  1.0000
  C   C1061     1.0  0.26752  0.05242  0.60807  1.0000
  C   C1062     1.0  0.25386  0.06845  0.60651  1.0000
  C   C1063     1.0  0.25774  0.08448  0.59390  1.0000
  C   C1064     1.0  0.27526  0.08453  0.58266  1.0000
  C   C1065     1.0  0.28901  0.06854  0.58437  1.0000
  C   C1066     1.0  0.28518  0.05252  0.59711  1.0000
  H   H1780     1.0  0.24023  0.06843  0.61510  1.0000
  H   H1781     1.0  0.24706  0.09664  0.59278  1.0000
  H   H1782     1.0  0.30264  0.06849  0.57576  1.0000
  H   H1783     1.0  0.29580  0.04017  0.59825  1.0000
  C   C1067     1.0  0.31889  0.00215  0.69482  1.0000
  C   C1068     1.0  0.32433  0.99922  0.71168  1.0000
  C   C1069     1.0  0.33441  0.01101  0.71449  1.0000
  H   H1784     1.0  0.23230  0.10368  0.54098  1.0000
  Fe  Fe160     1.0  0.36055  0.06842  0.75052  1.0000
  H   H1785     1.0  0.24602  0.99332  0.92677  1.0000
  H   H1786     1.0  0.36546  0.42937  0.54317  1.0000
  H   H1787     1.0  0.33882  0.00853  0.72740  1.0000
  C   C1070     1.0  0.32878  0.11866  0.71085  1.0000
  H   H1788     1.0  0.29751  0.29362  0.72571  1.0000
  H   H1789     1.0  0.24349  0.09488  0.55998  1.0000
  H   H1790     1.0  0.28892  0.14584  0.64747  1.0000
  S   S322      1.0  0.20233  0.17825  0.91839  1.0000
  C   C1071     1.0  0.24094  0.09114  0.54786  1.0000
  S   S323      1.0  0.18998  0.14168  0.56638  1.0000
  H   H1791     1.0  0.31450  0.12082  0.70886  1.0000
  S   S324      1.0  0.23194  0.46140  0.59641  1.0000
  C   C1072     1.0  0.36793  0.02235  0.62491  1.0000
  H   H1792     1.0  0.22054  0.45753  0.48783  1.0000
  H   H1793     1.0  0.20480  0.20306  0.71706  1.0000
  C   C1073     1.0  0.28606  0.17348  0.49783  1.0000
  C   C1074     1.0  0.33914  0.02568  0.70039  1.0000
  H   H1794     1.0  0.21961  0.04295  0.57496  1.0000
  N   N72       1.0  0.37775  0.99383  0.65001  1.0000
  H   H1795     1.0  0.27054  0.45604  0.64034  1.0000
  C   C1075     1.0  0.23231  0.04454  0.57828  1.0000
  C   C1076     1.0  0.33249  0.15841  0.68702  1.0000
  H   H1796     1.0  0.29811  0.13811  0.73758  1.0000
  H   H1797     1.0  0.21522  0.43678  0.63871  1.0000
  C   C1077     1.0  0.32377  0.15235  0.67395  1.0000
  H   H1798     1.0  0.35635  0.19881  0.47295  1.0000
  H   H1799     1.0  0.35032  0.24941  0.49438  1.0000
  H   H1800     1.0  0.27053  0.08405  0.62614  1.0000
  H   H1801     1.0  0.36395  0.24001  0.96064  1.0000
  H   H1802     1.0  0.19779  0.09108  0.59018  1.0000
  H   H1803     1.0  0.22727  0.21084  0.73803  1.0000
  H   H1804     1.0  0.26663  0.09993  0.53326  1.0000
  C   C1078     1.0  0.32865  0.16768  0.71621  1.0000
  C   C1079     1.0  0.21832  0.00053  0.88484  1.0000
  H   H1805     1.0  0.35669  0.00530  0.79772  1.0000
  H   H1806     1.0  0.38439  0.28630  0.92457  1.0000
  H   H1807     1.0  0.22398  0.01205  0.87590  1.0000
  H   H1808     1.0  0.21001  0.21091  0.62193  1.0000
  H   H1809     1.0  0.29848  0.23981  0.86455  1.0000
  H   H1810     1.0  0.24229  0.06561  0.52802  1.0000
  H   H1811     1.0  0.25374  0.05170  0.55478  1.0000
  H   H1812     1.0  0.19404  0.14817  0.89008  1.0000
  H   H1813     1.0  0.26727  0.13692  0.60934  1.0000
  S   S325      1.0  0.35733  0.33184  0.47216  1.0000
  H   H1814     1.0  0.29434  0.07313  0.62623  1.0000
  Fe  Fe161     1.0  0.34009  0.03773  0.77159  1.0000
  H   H1815     1.0  0.30731  0.22384  0.91199  1.0000
  C   C1080     1.0  0.24251  0.05904  0.56435  1.0000
  H   H1816     1.0  0.23466  0.98103  0.86808  1.0000
  C   C1081     1.0  0.28164  0.08067  0.63404  1.0000
  C   C1082     1.0  0.32310  0.01717  0.68102  1.0000
  H   H1817     1.0  0.21499  0.24507  0.72607  1.0000
  C   C1083     1.0  0.33331  0.02882  0.68374  1.0000
  H   H1818     1.0  0.34410  0.98032  0.66341  1.0000
  H   H1819     1.0  0.28100  0.39578  0.66981  1.0000
  H   H1820     1.0  0.31858  0.01981  0.66821  1.0000
  H   H1821     1.0  0.25883  0.08760  0.52088  1.0000
  S   S326      1.0  0.19368  0.16976  0.96382  1.0000
  C   C1084     1.0  0.36279  0.12567  0.76198  1.0000
  H   H1822     1.0  0.28716  0.22727  0.89605  1.0000
  C   C1085     1.0  0.18613  0.26664  0.71497  1.0000
  C   C1086     1.0  0.29351  0.15258  0.73088  1.0000
  H   H1823     1.0  0.21588  0.09422  0.93144  1.0000
  C   C1087     1.0  0.34967  0.25889  0.48089  1.0000
  H   H1824     1.0  0.37194  0.41209  0.52962  1.0000
  H   H1825     1.0  0.31189  0.20402  0.93005  1.0000
  H   H1826     1.0  0.31360  0.10036  0.61088  1.0000
  C   C1088     1.0  0.30493  0.22538  0.86983  1.0000
  H   H1827     1.0  0.26298  0.98622  0.73346  1.0000
  H   H1828     1.0  0.23233  0.35507  0.65032  1.0000
  C   C1089     1.0  0.37025  0.34786  0.52340  1.0000
  C   C1090     1.0  0.31932  0.21038  0.49382  1.0000
  H   H1829     1.0  0.36925  0.21590  0.81604  1.0000
  H   H1830     1.0  0.26827  0.14578  0.64098  1.0000
  S   S327      1.0  0.29954  0.98799  0.61257  1.0000
  H   H1831     1.0  0.21827  0.24031  0.70381  1.0000
  Fe  Fe162     1.0  0.21530  0.18607  0.96146  1.0000
  H   H1832     1.0  0.18752  0.99022  0.92461  1.0000
  H   H1833     1.0  0.34183  0.22082  0.49705  1.0000
  H   H1834     1.0  0.21579  0.05520  0.52501  1.0000
  C   C1091     1.0  0.25253  0.45436  0.60462  1.0000
  S   S328      1.0  0.21921  0.12703  0.94061  1.0000
  N   N73       1.0  0.24875  0.39568  0.64410  1.0000
  C   C1092     1.0  0.32937  0.97739  0.85246  1.0000
  H   H1835     1.0  0.33871  0.11502  0.69835  1.0000
  H   H1836     1.0  0.25011  0.12689  0.64337  1.0000
  H   H1837     1.0  0.33759  0.27114  0.74811  1.0000
  H   H1838     1.0  0.25235  0.15498  0.47952  1.0000
  C   C1093     1.0  0.25387  0.45961  0.62036  1.0000
  H   H1839     1.0  0.31849  0.20264  0.50827  1.0000
  N   N74       1.0  0.28619  0.11423  0.62242  1.0000
  C   C1094     1.0  0.19628  0.26508  0.66671  1.0000
  H   H1840     1.0  0.23282  0.20810  0.71425  1.0000
  H   H1841     1.0  0.34623  0.29553  0.60264  1.0000
  H   H1842     1.0  0.25305  0.36033  0.63510  1.0000
  H   H1843     1.0  0.36342  0.25720  0.47151  1.0000
  H   H1844     1.0  0.37095  0.31516  0.95942  1.0000
  H   H1845     1.0  0.24177  0.03088  0.57899  1.0000
  H   H1846     1.0  0.32449  0.46823  0.62970  1.0000
  H   H1847     1.0  0.36075  0.40704  0.55363  1.0000
  H   H1848     1.0  0.30762  0.21796  0.85843  1.0000
  H   H1849     1.0  0.23593  0.41751  0.65954  1.0000
  C   C1095     1.0  0.34925  0.30852  0.59325  1.0000
  H   H1850     1.0  0.20891  0.41520  0.65026  1.0000
  C   C1096     1.0  0.23522  0.38308  0.64828  1.0000
  C   C1097     1.0  0.21433  0.23449  0.71879  1.0000
  S   S329      1.0  0.18721  0.04231  0.95194  1.0000
  Fe  Fe163     1.0  0.32482  0.98930  0.62182  1.0000
  C   C1098     1.0  0.33459  0.25647  0.47204  1.0000
  H   H1851     1.0  0.38261  0.02045  0.61803  1.0000
  H   H1852     1.0  0.24722  0.98306  0.90787  1.0000
  H   H1853     1.0  0.28527  0.16196  0.50935  1.0000
  H   H1854     1.0  0.26648  0.11532  0.60577  1.0000
  H   H1855     1.0  0.24752  0.10717  0.63617  1.0000
  C   C1099     1.0  0.28525  0.09797  0.63830  1.0000
  H   H1856     1.0  0.36977  0.21719  0.87161  1.0000
  C   C1100     1.0  0.26793  0.12223  0.61636  1.0000
  H   H1857     1.0  0.31398  0.13109  0.59163  1.0000
  H   H1858     1.0  0.29436  0.14067  0.61612  1.0000
  C   C1101     1.0  0.21200  0.08931  0.58167  1.0000
  N   N75       1.0  0.30777  0.10946  0.80955  1.0000
  C   C1102     1.0  0.32117  0.10196  0.82239  1.0000
  C   C1103     1.0  0.30456  0.09368  0.80312  1.0000
  C   C1104     1.0  0.28949  0.11916  0.81906  1.0000
  C   C1105     1.0  0.31587  0.12314  0.79361  1.0000
  C   C1106     1.0  0.32498  0.11610  0.83149  1.0000
  C   C1107     1.0  0.32153  0.08324  0.79140  1.0000
  C   C1108     1.0  0.28049  0.10827  0.83759  1.0000
  C   C1109     1.0  0.30562  0.13013  0.77744  1.0000
  H   H1859     1.0  0.31661  0.09053  0.83347  1.0000
  H   H1860     1.0  0.33487  0.09572  0.81496  1.0000
  H   H1861     1.0  0.29333  0.09834  0.79512  1.0000
  H   H1862     1.0  0.29964  0.08312  0.81505  1.0000
  H   H1863     1.0  0.29072  0.13245  0.82153  1.0000
  H   H1864     1.0  0.27914  0.12297  0.81012  1.0000
  H   H1865     1.0  0.31627  0.13559  0.79830  1.0000
  H   H1866     1.0  0.33047  0.11745  0.78796  1.0000
  H   H1867     1.0  0.33187  0.12659  0.82121  1.0000
  H   H1868     1.0  0.31233  0.12300  0.83986  1.0000
  H   H1869     1.0  0.33463  0.10889  0.84091  1.0000
  H   H1870     1.0  0.31708  0.07282  0.78660  1.0000
  H   H1871     1.0  0.32780  0.09226  0.77891  1.0000
  H   H1872     1.0  0.33219  0.07561  0.79955  1.0000
  H   H1873     1.0  0.27745  0.09538  0.83610  1.0000
  H   H1874     1.0  0.26709  0.11686  0.84292  1.0000
  H   H1875     1.0  0.28893  0.10525  0.84823  1.0000
  H   H1876     1.0  0.30626  0.11904  0.77027  1.0000
  H   H1877     1.0  0.31251  0.14070  0.76717  1.0000
  H   H1878     1.0  0.29104  0.13678  0.78186  1.0000
  C   C1110     1.0  0.33709  0.25085  0.69066  1.0000
  C   C1111     1.0  0.34812  0.28820  0.69303  1.0000
  H   H1879     1.0  0.34224  0.25944  0.72153  1.0000
  S   S330      1.0  0.37393  0.12816  0.81009  1.0000
  H   H1880     1.0  0.33242  0.29152  0.73120  1.0000
  H   H1881     1.0  0.34624  0.24388  0.70051  1.0000
  H   H1882     1.0  0.19825  0.26887  0.70368  1.0000
  H   H1883     1.0  0.33480  0.23987  0.68487  1.0000
  H   H1884     1.0  0.35291  0.29379  0.67817  1.0000
  H   H1885     1.0  0.35565  0.27384  0.69575  1.0000
  H   H1886     1.0  0.35263  0.29638  0.70057  1.0000
  H   H1887     1.0  0.31818  0.22572  0.87310  1.0000
  H   H1888     1.0  0.26263  0.21647  0.48305  1.0000
  S   S331      1.0  0.35856  0.01702  0.75538  1.0000
  H   H1889     1.0  0.32103  0.25449  0.73464  1.0000
  H   H1890     1.0  0.36621  0.40109  0.64219  1.0000
  H   H1891     1.0  0.19515  0.45562  0.47904  1.0000
  C   C1112     1.0  0.35973  0.35618  0.55356  1.0000
  C   C1113     1.0  0.22436  0.98301  0.88038  1.0000
  H   H1892     1.0  0.20392  0.07072  0.56998  1.0000
  H   H1893     1.0  0.29114  0.30297  0.69312  1.0000
  C   C1114     1.0  0.18740  0.13025  0.55030  1.0000
  H   H1894     1.0  0.29249  0.13187  0.58506  1.0000
  H   H1895     1.0  0.30490  0.21540  0.49183  1.0000
  H   H1896     1.0  0.38354  0.38077  0.53556  1.0000
  H   H1897     1.0  0.32646  0.20041  0.48486  1.0000
  C   C1115     1.0  0.24367  0.36253  0.64832  1.0000
  H   H1898     1.0  0.35771  0.15572  0.71872  1.0000
  N   N76       1.0  0.29885  0.19809  0.89679  1.0000
  C   C1116     1.0  0.30320  0.18550  0.88326  1.0000
  C   C1117     1.0  0.29156  0.21719  0.88691  1.0000
  C   C1118     1.0  0.28412  0.19160  0.91277  1.0000
  C   C1119     1.0  0.31644  0.19685  0.90300  1.0000
  C   C1120     1.0  0.30794  0.16466  0.89115  1.0000
  C   C1121     1.0  0.18911  0.22280  0.74340  1.0000
  C   C1122     1.0  0.27242  0.20561  0.92464  1.0000
  S   S332      1.0  0.36328  0.04762  0.77658  1.0000
  H   H1899     1.0  0.29136  0.18764  0.87653  1.0000
  H   H1900     1.0  0.31508  0.18862  0.87193  1.0000
  H   H1901     1.0  0.35632  0.36528  0.50217  1.0000
  H   H1902     1.0  0.27869  0.21739  0.88245  1.0000
  H   H1903     1.0  0.27387  0.18696  0.90774  1.0000
  H   H1904     1.0  0.29025  0.17938  0.92230  1.0000
  H   H1905     1.0  0.32079  0.18284  0.91104  1.0000
  H   H1906     1.0  0.32828  0.19823  0.89111  1.0000
  H   H1907     1.0  0.31078  0.15720  0.87972  1.0000
  H   H1908     1.0  0.32055  0.16081  0.89704  1.0000
  H   H1909     1.0  0.29624  0.15965  0.90144  1.0000
  C   C1123     1.0  0.19772  0.98831  0.91228  1.0000
  H   H1910     1.0  0.29593  0.24654  0.48046  1.0000
  H   H1911     1.0  0.31408  0.28173  0.74787  1.0000
  H   H1912     1.0  0.24735  0.42518  0.63680  1.0000
  H   H1913     1.0  0.28073  0.21207  0.93011  1.0000
  H   H1914     1.0  0.26355  0.19837  0.93670  1.0000
  H   H1915     1.0  0.24288  0.22321  0.72104  1.0000
  H   H1916     1.0  0.35516  0.17321  0.69807  1.0000
  H   H1917     1.0  0.33542  0.98507  0.80074  1.0000
  N   N77       1.0  0.31726  0.32255  0.58425  1.0000
  C   C1124     1.0  0.33757  0.31485  0.57818  1.0000
  C   C1125     1.0  0.30861  0.32624  0.56767  1.0000
  C   C1126     1.0  0.30922  0.30786  0.59901  1.0000
  C   C1127     1.0  0.31539  0.33962  0.59157  1.0000
  H   H1918     1.0  0.34657  0.27320  0.48319  1.0000
  C   C1128     1.0  0.31565  0.34088  0.55121  1.0000
  C   C1129     1.0  0.28841  0.31238  0.60720  1.0000
  C   C1130     1.0  0.29655  0.35325  0.59259  1.0000
  H   H1919     1.0  0.33952  0.30290  0.57157  1.0000
  H   H1920     1.0  0.34437  0.32518  0.56749  1.0000
  H   H1921     1.0  0.29342  0.33052  0.57101  1.0000
  H   H1922     1.0  0.31087  0.31332  0.56251  1.0000
  H   H1923     1.0  0.31195  0.29489  0.59382  1.0000
  H   H1924     1.0  0.31595  0.30436  0.61103  1.0000
  H   H1925     1.0  0.31851  0.33580  0.60563  1.0000
  H   H1926     1.0  0.32595  0.34772  0.58303  1.0000
  H   H1927     1.0  0.36052  0.35344  0.56790  1.0000
  C   C1131     1.0  0.25244  0.39938  0.60887  1.0000
  H   H1928     1.0  0.35479  0.99884  0.63638  1.0000
  H   H1929     1.0  0.32997  0.33590  0.54414  1.0000
  H   H1930     1.0  0.30689  0.34399  0.54079  1.0000
  H   H1931     1.0  0.31486  0.35400  0.55523  1.0000
  H   H1932     1.0  0.28452  0.30003  0.61728  1.0000
  H   H1933     1.0  0.27969  0.31563  0.59681  1.0000
  H   H1934     1.0  0.28509  0.32347  0.61511  1.0000
  H   H1935     1.0  0.29194  0.35659  0.60653  1.0000
  H   H1936     1.0  0.28515  0.34836  0.59011  1.0000
  H   H1937     1.0  0.29810  0.36647  0.58280  1.0000
  Fe  Fe164     1.0  0.21348  0.15726  0.94118  1.0000
  H   H1938     1.0  0.33233  0.15470  0.65983  1.0000
  H   H1939     1.0  0.36500  0.30228  0.94610  1.0000
  H   H1940     1.0  0.22135  0.07992  0.59043  1.0000
  N   N78       1.0  0.23098  0.07520  0.55371  1.0000
  C   C1132     1.0  0.22867  0.07076  0.53640  1.0000
  H   H1941     1.0  0.26649  0.43871  0.58361  1.0000
  H   H1942     1.0  0.29569  0.09761  0.60144  1.0000
  H   H1943     1.0  0.26946  0.07559  0.54054  1.0000
  H   H1944     1.0  0.37329  0.09191  0.80681  1.0000
  C   C1133     1.0  0.25016  0.12136  0.63138  1.0000
  H   H1945     1.0  0.25309  0.24095  0.95541  1.0000
  N   N79       1.0  0.31827  0.27535  0.70991  1.0000
  H   H1946     1.0  0.24966  0.06403  0.57255  1.0000
  H   H1947     1.0  0.32153  0.30367  0.70312  1.0000
  C   C1134     1.0  0.26747  0.44268  0.59587  1.0000
  C   C1135     1.0  0.29838  0.28288  0.71791  1.0000
  C   C1136     1.0  0.26001  0.08808  0.53487  1.0000
  S   S333      1.0  0.35280  0.19961  0.85298  1.0000
  H   H1948     1.0  0.20096  0.22088  0.69771  1.0000
  H   H1949     1.0  0.27853  0.12623  0.65694  1.0000
  H   H1950     1.0  0.36533  0.14686  0.77463  1.0000
  C   C1137     1.0  0.19856  0.11951  0.52155  1.0000
  H   H1951     1.0  0.33023  0.21294  0.91293  1.0000
  H   H1952     1.0  0.19379  0.27884  0.66925  1.0000
  H   H1953     1.0  0.21560  0.10315  0.57744  1.0000
  H   H1954     1.0  0.29191  0.27184  0.72802  1.0000
  H   H1955     1.0  0.36464  0.27548  0.93514  1.0000
  H   H1956     1.0  0.27088  0.38134  0.62584  1.0000
  C   C1138     1.0  0.20509  0.00319  0.90086  1.0000
  C   C1139     1.0  0.28131  0.13677  0.64430  1.0000
  Fe  Fe165     1.0  0.30493  0.98887  0.66164  1.0000
  C   C1140     1.0  0.20251  0.22961  0.66006  1.0000
  S   S334      1.0  0.27804  0.98730  0.65588  1.0000
  Fe  Fe166     1.0  0.38083  0.33896  0.47992  1.0000
  S   S335      1.0  0.30754  0.98647  0.69098  1.0000
  S   S336      1.0  0.38101  0.05046  0.73253  1.0000
  H   H1957     1.0  0.32300  0.13764  0.67786  1.0000
  H   H1958     1.0  0.24232  0.46848  0.62727  1.0000
  H   H1959     1.0  0.27557  0.99017  0.82580  1.0000
  H   H1960     1.0  0.31168  0.16030  0.48261  1.0000
  H   H1961     1.0  0.35207  0.01365  0.65157  1.0000
  H   H1962     1.0  0.18932  0.07922  0.93642  1.0000
  H   H1963     1.0  0.36409  0.30554  0.58659  1.0000
  C   C1141     1.0  0.36935  0.98476  0.66919  1.0000
  C   C1142     1.0  0.29313  0.12862  0.62767  1.0000
  C   C1143     1.0  0.38430  0.01840  0.66390  1.0000
  H   H1964     1.0  0.29771  0.17135  0.70460  1.0000
  H   H1965     1.0  0.29912  0.14846  0.70338  1.0000
  S   S337      1.0  0.31049  0.01184  0.63746  1.0000
  C   C1144     1.0  0.26153  0.39505  0.62565  1.0000
  H   H1966     1.0  0.21956  0.41902  0.62614  1.0000
  C   C1145     1.0  0.21958  0.42165  0.63966  1.0000
  H   H1967     1.0  0.22600  0.38392  0.66200  1.0000
  H   H1968     1.0  0.22587  0.38738  0.63832  1.0000
  C   C1146     1.0  0.30361  0.15688  0.71062  1.0000
  C   C1147     1.0  0.20233  0.10049  0.93810  1.0000
  H   H1969     1.0  0.32113  0.18179  0.71120  1.0000
  H   H1970     1.0  0.30982  0.16090  0.67297  1.0000
  C   C1148     1.0  0.28560  0.29200  0.70399  1.0000
  H   H1971     1.0  0.35989  0.13512  0.74950  1.0000
  H   H1972     1.0  0.38110  0.01220  0.67880  1.0000
  C   C1149     1.0  0.33309  0.13501  0.71619  1.0000
  Fe  Fe167     1.0  0.35634  0.04031  0.73087  1.0000
  C   C1150     1.0  0.23864  0.41520  0.64522  1.0000
  H   H1973     1.0  0.34416  0.26009  0.67889  1.0000
  H   H1974     1.0  0.27585  0.97494  0.88556  1.0000
  H   H1975     1.0  0.26349  0.39786  0.59643  1.0000
  C   C1151     1.0  0.37984  0.27303  0.93092  1.0000
  C   C1152     1.0  0.19989  0.11718  0.94360  1.0000
  N   N80       1.0  0.32438  0.15407  0.70742  1.0000
  C   C1153     1.0  0.36734  0.09473  0.78009  1.0000
  H   H1976     1.0  0.36159  0.99521  0.67759  1.0000
  H   H1977     1.0  0.32230  0.29452  0.68382  1.0000
  H   H1978     1.0  0.20388  0.09258  0.55598  1.0000
  C   C1154     1.0  0.38066  0.40095  0.64097  1.0000
  H   H1979     1.0  0.33698  0.98878  0.84751  1.0000
  H   H1980     1.0  0.31294  0.11610  0.57765  1.0000
  C   C1155     1.0  0.34920  0.16882  0.71286  1.0000
  S   S338      1.0  0.35323  0.03972  0.70251  1.0000
  H   H1981     1.0  0.23816  0.12984  0.62541  1.0000
  H   H1982     1.0  0.37394  0.37962  0.56800  1.0000
  C   C1156     1.0  0.37141  0.34459  0.54198  1.0000
  C   C1157     1.0  0.26990  0.45267  0.62767  1.0000
  H   H1983     1.0  0.30732  0.12303  0.63050  1.0000
  C   C1158     1.0  0.36968  0.12015  0.79237  1.0000
  C   C1159     1.0  0.21216  0.08165  0.56485  1.0000
  H   H1984     1.0  0.20873  0.11876  0.50891  1.0000
  H   H1985     1.0  0.31672  0.97952  0.82969  1.0000
  H   H1986     1.0  0.35998  0.02375  0.61414  1.0000
  H   H1987     1.0  0.24330  0.38980  0.60999  1.0000
  H   H1988     1.0  0.34113  0.00368  0.81920  1.0000
  Fe  Fe168     1.0  0.38164  0.02880  0.75838  1.0000
  H   H1989     1.0  0.36395  0.22825  0.46986  1.0000
  H   H1990     1.0  0.35028  0.17938  0.71997  1.0000
  H   H1991     1.0  0.36799  0.08026  0.78168  1.0000
  C   C1160     1.0  0.36575  0.13233  0.77625  1.0000
  H   H1992     1.0  0.19758  0.18968  0.59959  1.0000
  C   C1161     1.0  0.23134  0.46076  0.47537  1.0000
  C   C1162     1.0  0.27442  0.40109  0.65762  1.0000
  C   C1163     1.0  0.35306  0.99571  0.81099  1.0000
  H   H1993     1.0  0.26045  0.46315  0.47130  1.0000
  N   N81       1.0  0.38202  0.26674  0.96537  1.0000
  C   C1164     1.0  0.36738  0.30183  0.95984  1.0000
  H   H1994     1.0  0.38131  0.33301  0.54740  1.0000
  H   H1995     1.0  0.26889  0.37513  0.65792  1.0000
  C   C1165     1.0  0.20507  0.21991  0.60965  1.0000
  H   H1996     1.0  0.25240  0.44747  0.49151  1.0000
  C   C1166     1.0  0.19133  0.23379  0.75671  1.0000
  C   C1167     1.0  0.24833  0.46103  0.48256  1.0000
  C   C1168     1.0  0.19542  0.21622  0.71262  1.0000
  H   H1997     1.0  0.36374  0.03575  0.62939  1.0000
  H   H1998     1.0  0.37187  0.02814  0.65996  1.0000
  C   C1169     1.0  0.34782  0.97918  0.80698  1.0000
  H   H1999     1.0  0.28773  0.97677  0.72997  1.0000
  H   H2000     1.0  0.20572  0.23040  0.75893  1.0000
  H   H2001     1.0  0.19424  0.18842  0.63062  1.0000
  H   H2002     1.0  0.18639  0.24871  0.75270  1.0000
  H   H2003     1.0  0.23480  0.44872  0.46861  1.0000
  H   H2004     1.0  0.19159  0.70833  0.12287  1.0000
  C   C1170     1.0  0.28028  0.62443  0.09314  1.0000
  H   H2005     1.0  0.23294  0.49612  0.43702  1.0000
  Fe  Fe169     1.0  0.23905  0.65610  0.06554  1.0000
  S   S339      1.0  0.26460  0.65138  0.04367  1.0000
  S   S340      1.0  0.23276  0.67272  0.08767  1.0000
  Fe  Fe170     1.0  0.21904  0.63329  0.05249  1.0000
  S   S341      1.0  0.24294  0.62649  0.02969  1.0000
  H   H2006     1.0  0.19891  0.78449  0.14714  1.0000
  Fe  Fe171     1.0  0.26026  0.62213  0.05083  1.0000
  S   S342      1.0  0.28502  0.59890  0.05312  1.0000
  Fe  Fe172     1.0  0.24516  0.65609  0.02447  1.0000
  S   S343      1.0  0.23608  0.62661  0.07413  1.0000
  S   S344      1.0  0.21994  0.66321  0.04584  1.0000
  Fe  Fe173     1.0  0.28845  0.72439  0.16197  1.0000
  S   S345      1.0  0.28398  0.75504  0.15330  1.0000
  S   S346      1.0  0.28535  0.71190  0.19230  1.0000
  Fe  Fe174     1.0  0.29182  0.71909  0.12306  1.0000
  S   S347      1.0  0.28753  0.74944  0.11123  1.0000
  S   S348      1.0  0.29828  0.69874  0.10442  1.0000
  Fe  Fe175     1.0  0.30663  0.75005  0.12896  1.0000
  S   S349      1.0  0.33026  0.76530  0.11770  1.0000
  Fe  Fe176     1.0  0.26528  0.75172  0.13651  1.0000
  S   S350      1.0  0.23795  0.77149  0.13720  1.0000
  S   S351      1.0  0.31279  0.71939  0.13900  1.0000
  S   S352      1.0  0.26799  0.72131  0.14702  1.0000
  H   H2007     1.0  0.34915  0.62734  0.24702  1.0000
  H   H2008     1.0  0.21386  0.57807  0.02159  1.0000
  H   H2009     1.0  0.19423  0.77116  0.32279  1.0000
  H   H2010     1.0  0.32144  0.76740  0.97853  1.0000
  Fe  Fe177     1.0  0.33106  0.90480  0.11745  1.0000
  S   S353      1.0  0.35618  0.90705  0.09490  1.0000
  S   S354      1.0  0.31253  0.92686  0.13202  1.0000
  Fe  Fe178     1.0  0.33634  0.86338  0.12158  1.0000
  S   S355      1.0  0.36216  0.86162  0.09958  1.0000
  S   S356      1.0  0.32047  0.84185  0.13935  1.0000
  H   H2011     1.0  0.30677  0.92009  0.18712  1.0000
  Fe  Fe179     1.0  0.34659  0.88713  0.08388  1.0000
  S   S357      1.0  0.34418  0.89274  0.05406  1.0000
  S   S358      1.0  0.34541  0.88088  0.13567  1.0000
  S   S359      1.0  0.32014  0.88736  0.10497  1.0000
  H   H2012     1.0  0.30081  0.79673  0.09434  1.0000
  H   H2013     1.0  0.20375  0.63818  0.01715  1.0000
  S   S360      1.0  0.29794  0.48827  0.15228  1.0000
  H   H2014     1.0  0.20215  0.47534  0.35243  1.0000
  C   C1171     1.0  0.18895  0.74439  0.14463  1.0000
  C   C1172     1.0  0.29955  0.62725  0.08190  1.0000
  H   H2015     1.0  0.20930  0.72136  0.13616  1.0000
  Fe  Fe180     1.0  0.30282  0.51133  0.12789  1.0000
  H   H2016     1.0  0.23367  0.71001  0.23654  1.0000
  S   S361      1.0  0.27901  0.53528  0.12407  1.0000
  Fe  Fe181     1.0  0.34220  0.49256  0.11487  1.0000
  C   C1173     1.0  0.20897  0.72654  0.34568  1.0000
  C   C1174     1.0  0.26086  0.60856  0.12001  1.0000
  H   H2017     1.0  0.37128  0.93442  0.16040  1.0000
  H   H2018     1.0  0.36807  0.87695  0.18925  1.0000
  Fe  Fe182     1.0  0.32603  0.48890  0.15593  1.0000
  H   H2019     1.0  0.30134  0.65067  0.26985  1.0000
  S   S362      1.0  0.31536  0.49260  0.10780  1.0000
  S   S363      1.0  0.32992  0.51338  0.13300  1.0000
  Fe  Fe183     1.0  0.24245  0.69502  0.42237  1.0000
  S   S364      1.0  0.25275  0.66957  0.41041  1.0000
  S   S365      1.0  0.26441  0.70499  0.43021  1.0000
  S   S366      1.0  0.21031  0.67302  0.40584  1.0000
  Fe  Fe184     1.0  0.22692  0.66072  0.42777  1.0000
  Fe  Fe185     1.0  0.23537  0.68407  0.38954  1.0000
  S   S367      1.0  0.24467  0.68103  0.36008  1.0000
  S   S368      1.0  0.22729  0.71050  0.39970  1.0000
  H   H2020     1.0  0.38481  0.92323  0.18479  1.0000
  S   S369      1.0  0.35061  0.68652  0.31063  1.0000
  Fe  Fe186     1.0  0.34941  0.70393  0.25844  1.0000
  S   S370      1.0  0.32642  0.69193  0.27854  1.0000
  H   H2021     1.0  0.22988  0.72481  0.17045  1.0000
  Fe  Fe187     1.0  0.32989  0.70865  0.29721  1.0000
  S   S371      1.0  0.30641  0.72542  0.31420  1.0000
  Fe  Fe188     1.0  0.34898  0.67070  0.29018  1.0000
  H   H2022     1.0  0.34286  0.48632  0.24780  1.0000
  S   S372      1.0  0.35109  0.72255  0.27611  1.0000
  H   H2023     1.0  0.23487  0.73385  0.22739  1.0000
  S   S373      1.0  0.36021  0.55363  0.24062  1.0000
  H   H2024     1.0  0.24932  0.47977  0.15439  1.0000
  C   C1175     1.0  0.29235  0.96075  0.08866  1.0000
  Fe  Fe189     1.0  0.35771  0.53274  0.26708  1.0000
  S   S374      1.0  0.32889  0.53056  0.28312  1.0000
  C   C1176     1.0  0.20988  0.62244  0.44201  1.0000
  H   H2025     1.0  0.38402  0.47956  0.17680  1.0000
  H   H2026     1.0  0.21252  0.75758  0.17874  1.0000
  H   H2027     1.0  0.34057  0.76291  0.22230  1.0000
  C   C1177     1.0  0.21819  0.75063  0.19134  1.0000
  C   C1178     1.0  0.23739  0.48524  0.38877  1.0000
  H   H2028     1.0  0.38094  0.89841  0.98216  1.0000
  H   H2029     1.0  0.38163  0.89798  0.01202  1.0000
  C   C1179     1.0  0.32712  0.51140  0.30121  1.0000
  C   C1180     1.0  0.30959  0.50817  0.31070  1.0000
  H   H2030     1.0  0.29734  0.51753  0.30690  1.0000
  H   H2031     1.0  0.35647  0.50184  0.29902  1.0000
  C   C1181     1.0  0.28185  0.66648  0.98291  1.0000
  H   H2032     1.0  0.24034  0.74264  0.31738  1.0000
  H   H2033     1.0  0.28267  0.64814  0.13324  1.0000
  H   H2034     1.0  0.29406  0.59001  0.31125  1.0000
  H   H2035     1.0  0.31694  0.77391  0.20749  1.0000
  H   H2036     1.0  0.32114  0.75161  0.20269  1.0000
  C   C1182     1.0  0.26177  0.69341  0.34742  1.0000
  C   C1183     1.0  0.27558  0.68607  0.33384  1.0000
  C   C1184     1.0  0.28927  0.69591  0.32346  1.0000
  C   C1185     1.0  0.28871  0.71344  0.32611  1.0000
  C   C1186     1.0  0.27438  0.72112  0.33914  1.0000
  C   C1187     1.0  0.26125  0.71089  0.35018  1.0000
  H   H2037     1.0  0.27595  0.67256  0.33164  1.0000
  H   H2038     1.0  0.30032  0.68982  0.31355  1.0000
  H   H2039     1.0  0.27385  0.73473  0.34115  1.0000
  H   H2040     1.0  0.25059  0.71658  0.36064  1.0000
  C   C1188     1.0  0.34496  0.49680  0.18927  1.0000
  C   C1189     1.0  0.35163  0.49135  0.20569  1.0000
  C   C1190     1.0  0.36273  0.50153  0.20944  1.0000
  C   C1191     1.0  0.19720  0.75587  0.32477  1.0000
  C   C1192     1.0  0.36082  0.52245  0.18020  1.0000
  C   C1193     1.0  0.34934  0.51253  0.17668  1.0000
  S   S375      1.0  0.22910  0.63105  0.44206  1.0000
  C   C1194     1.0  0.23359  0.72104  0.22396  1.0000
  C   C1195     1.0  0.20693  0.73517  0.13846  1.0000
  C   C1196     1.0  0.30792  0.80955  0.06476  1.0000
  H   H2041     1.0  0.38005  0.80312  0.46379  1.0000
  H   H2042     1.0  0.31511  0.59388  0.29485  1.0000
  C   C1197     1.0  0.32086  0.83721  0.04826  1.0000
  H   H2043     1.0  0.22569  0.59532  0.43970  1.0000
  H   H2044     1.0  0.29860  0.50058  0.28044  1.0000
  H   H2045     1.0  0.32043  0.78344  0.08117  1.0000
  C   C1198     1.0  0.23044  0.71919  0.18524  1.0000
  H   H2046     1.0  0.29129  0.53868  0.34680  1.0000
  C   C1199     1.0  0.36859  0.66361  0.22641  1.0000
  H   H2047     1.0  0.23505  0.96143  0.07909  1.0000
  C   C1200     1.0  0.27126  0.72244  0.45414  1.0000
  H   H2048     1.0  0.26008  0.59963  0.13396  1.0000
  H   H2049     1.0  0.37283  0.48939  0.13040  1.0000
  H   H2050     1.0  0.24163  0.61515  0.98389  1.0000
  H   H2051     1.0  0.32013  0.53247  0.33167  1.0000
  H   H2052     1.0  0.19776  0.73288  0.17850  1.0000
  H   H2053     1.0  0.29797  0.63882  0.06994  1.0000
  H   H2054     1.0  0.24391  0.50933  0.39337  1.0000
  C   C1201     1.0  0.35250  0.87527  0.04118  1.0000
  C   C1202     1.0  0.34851  0.87852  0.02360  1.0000
  C   C1203     1.0  0.35531  0.86508  0.01272  1.0000
  H   H2055     1.0  0.36535  0.90130  0.15121  1.0000
  H   H2056     1.0  0.21937  0.61013  0.98656  1.0000
  C   C1204     1.0  0.36332  0.85846  0.04786  1.0000
  H   H2057     1.0  0.23761  0.76906  0.18417  1.0000
  H   H2058     1.0  0.35202  0.86766  0.99925  1.0000
  H   H2059     1.0  0.33203  0.48204  0.05315  1.0000
  H   H2060     1.0  0.34957  0.94340  0.17287  1.0000
  C   C1205     1.0  0.29901  0.94414  0.11843  1.0000
  C   C1206     1.0  0.28370  0.95557  0.12702  1.0000
  C   C1207     1.0  0.27684  0.97200  0.09725  1.0000
  H   H2061     1.0  0.30795  0.84785  0.05012  1.0000
  C   C1208     1.0  0.22671  0.61947  0.98965  1.0000
  C   C1209     1.0  0.30329  0.94666  0.09924  1.0000
  H   H2062     1.0  0.29072  0.76940  0.19801  1.0000
  H   H2063     1.0  0.22972  0.74592  0.35169  1.0000
  H   H2064     1.0  0.23037  0.64739  0.98188  1.0000
  H   H2065     1.0  0.31514  0.93787  0.09253  1.0000
  C   C1210     1.0  0.32697  0.78720  0.12260  1.0000
  C   C1211     1.0  0.31028  0.79492  0.13291  1.0000
  C   C1212     1.0  0.30836  0.81187  0.13773  1.0000
  C   C1213     1.0  0.32292  0.82143  0.13180  1.0000
  C   C1214     1.0  0.33943  0.81405  0.12096  1.0000
  C   C1215     1.0  0.34155  0.79678  0.11665  1.0000
  H   H2066     1.0  0.29893  0.78772  0.13742  1.0000
  H   H2067     1.0  0.29555  0.81757  0.14611  1.0000
  H   H2068     1.0  0.35079  0.82129  0.11653  1.0000
  H   H2069     1.0  0.35458  0.79075  0.10883  1.0000
  C   C1216     1.0  0.30364  0.71256  0.20204  1.0000
  C   C1217     1.0  0.32072  0.71526  0.19094  1.0000
  C   C1218     1.0  0.33533  0.71528  0.19899  1.0000
  C   C1219     1.0  0.33282  0.71299  0.21814  1.0000
  C   C1220     1.0  0.31570  0.71040  0.22923  1.0000
  C   C1221     1.0  0.30119  0.71001  0.22120  1.0000
  H   H2070     1.0  0.32277  0.71701  0.17616  1.0000
  H   H2071     1.0  0.34865  0.71695  0.19036  1.0000
  H   H2072     1.0  0.31358  0.70880  0.24398  1.0000
  H   H2073     1.0  0.28798  0.70793  0.22984  1.0000
  C   C1222     1.0  0.21918  0.76131  0.13903  1.0000
  C   C1223     1.0  0.22201  0.74363  0.13564  1.0000
  H   H2074     1.0  0.35897  0.80643  0.04025  1.0000
  H   H2075     1.0  0.18956  0.62421  0.00229  1.0000
  C   C1224     1.0  0.35660  0.93287  0.16435  1.0000
  Fe  Fe190     1.0  0.38146  0.53117  0.22913  1.0000
  H   H2076     1.0  0.23581  0.73647  0.13079  1.0000
  C   C1225     1.0  0.38325  0.47496  0.08793  1.0000
  C   C1226     1.0  0.35490  0.79690  0.16612  1.0000
  H   H2077     1.0  0.35885  0.78650  0.05856  1.0000
  C   C1227     1.0  0.28281  0.57997  0.07162  1.0000
  C   C1228     1.0  0.29847  0.56640  0.07485  1.0000
  C   C1229     1.0  0.29740  0.55223  0.09064  1.0000
  C   C1230     1.0  0.28064  0.55163  0.10326  1.0000
  C   C1231     1.0  0.26491  0.56490  0.09975  1.0000
  C   C1232     1.0  0.26595  0.57892  0.08392  1.0000
  H   H2078     1.0  0.31156  0.56710  0.06537  1.0000
  H   H2079     1.0  0.30960  0.54204  0.09324  1.0000
  H   H2080     1.0  0.25188  0.56438  0.10938  1.0000
  H   H2081     1.0  0.25372  0.58900  0.08138  1.0000
  C   C1233     1.0  0.34893  0.66267  0.23793  1.0000
  C   C1234     1.0  0.19733  0.73021  0.19354  1.0000
  H   H2082     1.0  0.24301  0.94378  0.15699  1.0000
  H   H2083     1.0  0.35575  0.47782  0.05614  1.0000
  C   C1235     1.0  0.25087  0.68078  0.09151  1.0000
  C   C1236     1.0  0.24740  0.69041  0.10575  1.0000
  C   C1237     1.0  0.26176  0.69642  0.10953  1.0000
  C   C1238     1.0  0.27969  0.69266  0.09919  1.0000
  C   C1239     1.0  0.28310  0.68320  0.08483  1.0000
  C   C1240     1.0  0.26871  0.67734  0.08094  1.0000
  H   H2084     1.0  0.23365  0.69312  0.11401  1.0000
  H   H2085     1.0  0.25901  0.70372  0.12060  1.0000
  H   H2086     1.0  0.29694  0.68029  0.07678  1.0000
  H   H2087     1.0  0.27149  0.67005  0.06987  1.0000
  H   H2088     1.0  0.35187  0.78176  0.20876  1.0000
  H   H2089     1.0  0.20419  0.93458  0.10581  1.0000
  H   H2090     1.0  0.28264  0.65570  0.99509  1.0000
  H   H2091     1.0  0.19617  0.72099  0.35163  1.0000
  H   H2092     1.0  0.28291  0.55641  0.32841  1.0000
  C   C1241     1.0  0.36035  0.75587  0.15578  1.0000
  H   H2093     1.0  0.34283  0.57466  0.31774  1.0000
  H   H2094     1.0  0.38154  0.71328  0.35406  1.0000
  H   H2095     1.0  0.21766  0.91162  0.10370  1.0000
  H   H2096     1.0  0.35034  0.65648  0.20195  1.0000
  N   N82       1.0  0.31372  0.72743  0.96907  1.0000
  H   H2097     1.0  0.36661  0.85589  0.06131  1.0000
  H   H2098     1.0  0.31367  0.81942  0.09460  1.0000
  H   H2099     1.0  0.19906  0.70175  0.07394  1.0000
  C   C1242     1.0  0.34995  0.79893  0.05192  1.0000
  S   S376      1.0  0.19061  0.62706  0.05730  1.0000
  H   H2100     1.0  0.31982  0.93785  0.18079  1.0000
  C   C1243     1.0  0.37792  0.60181  0.26079  1.0000
  H   H2101     1.0  0.36767  0.78879  0.17065  1.0000
  H   H2102     1.0  0.38280  0.90305  0.16126  1.0000
  S   S377      1.0  0.37724  0.50964  0.25496  1.0000
  C   C1244     1.0  0.32260  0.59325  0.33316  1.0000
  S   S378      1.0  0.34513  0.64116  0.29891  1.0000
  C   C1245     1.0  0.21201  0.60384  0.44166  1.0000
  H   H2103     1.0  0.37103  0.81226  0.44344  1.0000
  C   C1246     1.0  0.24462  0.62494  0.12218  1.0000
  C   C1247     1.0  0.22202  0.75444  0.34087  1.0000
  C   C1248     1.0  0.31817  0.65654  0.24240  1.0000
  H   H2104     1.0  0.34885  0.53752  0.30894  1.0000
  C   C1249     1.0  0.21952  0.71691  0.32954  1.0000
  H   H2105     1.0  0.34406  0.51696  0.16413  1.0000
  H   H2106     1.0  0.24614  0.71620  0.21418  1.0000
  N   N83       1.0  0.20065  0.64868  0.98894  1.0000
  H   H2107     1.0  0.27893  0.61697  0.13967  1.0000
  H   H2108     1.0  0.34929  0.82057  0.06506  1.0000
  H   H2109     1.0  0.23077  0.76698  0.31169  1.0000
  H   H2110     1.0  0.20376  0.50285  0.46757  1.0000
  H   H2111     1.0  0.35312  0.52123  0.32918  1.0000
  H   H2112     1.0  0.32290  0.65544  0.26996  1.0000
  H   H2113     1.0  0.29915  0.58256  0.29036  1.0000
  H   H2114     1.0  0.23150  0.61980  0.12603  1.0000
  H   H2115     1.0  0.24392  0.63535  0.10930  1.0000
  C   C1250     1.0  0.36746  0.51702  0.19661  1.0000
  N   N84       1.0  0.23882  0.92751  0.11956  1.0000
  C   C1251     1.0  0.24648  0.92838  0.13562  1.0000
  C   C1252     1.0  0.25184  0.91269  0.11024  1.0000
  C   C1253     1.0  0.22035  0.92187  0.12734  1.0000
  C   C1254     1.0  0.23676  0.94624  0.10692  1.0000
  C   C1255     1.0  0.23459  0.94196  0.14791  1.0000
  C   C1256     1.0  0.27225  0.91475  0.10430  1.0000
  C   C1257     1.0  0.20956  0.92067  0.11336  1.0000
  C   C1258     1.0  0.23842  0.94687  0.08625  1.0000
  H   H2116     1.0  0.24908  0.91453  0.14470  1.0000
  H   H2117     1.0  0.26010  0.93258  0.13074  1.0000
  H   H2118     1.0  0.24745  0.91167  0.09785  1.0000
  H   H2119     1.0  0.25163  0.89891  0.11949  1.0000
  H   H2120     1.0  0.22198  0.90832  0.13708  1.0000
  H   H2121     1.0  0.21078  0.93171  0.13555  1.0000
  H   H2122     1.0  0.22327  0.95508  0.11168  1.0000
  H   H2123     1.0  0.24729  0.95374  0.10742  1.0000
  C   C1259     1.0  0.26489  0.67796  0.98058  1.0000
  C   C1260     1.0  0.35350  0.76011  0.19368  1.0000
  H   H2124     1.0  0.23020  0.69197  0.20372  1.0000
  H   H2125     1.0  0.27930  0.90985  0.11619  1.0000
  H   H2126     1.0  0.27972  0.90612  0.09398  1.0000
  H   H2127     1.0  0.27375  0.92912  0.09806  1.0000
  C   C1261     1.0  0.32250  0.83245  0.02943  1.0000
  H   H2128     1.0  0.28569  0.71833  0.44808  1.0000
  H   H2129     1.0  0.33509  0.89595  0.18549  1.0000
  H   H2130     1.0  0.25273  0.94147  0.07955  1.0000
  N   N85       1.0  0.21576  0.73087  0.19705  1.0000
  H   H2131     1.0  0.22892  0.93951  0.08361  1.0000
  C   C1262     1.0  0.28513  0.62223  0.12506  1.0000
  C   C1263     1.0  0.32022  0.76641  0.19601  1.0000
  N   N86       1.0  0.33828  0.76960  0.18323  1.0000
  Fe  Fe191     1.0  0.37169  0.69907  0.28801  1.0000
  H   H2132     1.0  0.32383  0.66699  0.18802  1.0000
  H   H2133     1.0  0.21585  0.70317  0.33233  1.0000
  H   H2134     1.0  0.29798  0.83633  0.08260  1.0000
  C   C1264     1.0  0.36868  0.90006  0.16482  1.0000
  H   H2135     1.0  0.21712  0.59827  0.04089  1.0000
  H   H2136     1.0  0.24600  0.74726  0.19755  1.0000
  C   C1265     1.0  0.33745  0.66230  0.21100  1.0000
  C   C1266     1.0  0.29337  0.58021  0.12871  1.0000
  H   H2137     1.0  0.32669  0.79639  0.16870  1.0000
  H   H2138     1.0  0.18843  0.50132  0.41690  1.0000
  H   H2139     1.0  0.33218  0.77024  0.15693  1.0000
  C   C1267     1.0  0.34058  0.76108  0.16681  1.0000
  H   H2140     1.0  0.26548  0.64915  0.12081  1.0000
  H   H2141     1.0  0.36738  0.76116  0.18510  1.0000
  C   C1268     1.0  0.33721  0.79011  0.17740  1.0000
  H   H2142     1.0  0.30977  0.55441  0.30728  1.0000
  H   H2143     1.0  0.31834  0.69799  0.97060  1.0000
  C   C1269     1.0  0.23611  0.75564  0.32243  1.0000
  C   C1270     1.0  0.31855  0.70775  0.97913  1.0000
  H   H2144     1.0  0.33517  0.74810  0.17107  1.0000
  S   S379      1.0  0.18865  0.54519  0.45904  1.0000
  C   C1271     1.0  0.35241  0.76676  0.21138  1.0000
  H   H2145     1.0  0.34013  0.89150  0.01838  1.0000
  H   H2146     1.0  0.31410  0.59318  0.34725  1.0000
  H   H2147     1.0  0.21019  0.75857  0.20213  1.0000
  C   C1272     1.0  0.20616  0.48068  0.40219  1.0000
  C   C1273     1.0  0.34636  0.63328  0.23299  1.0000
  H   H2148     1.0  0.29583  0.96281  0.07379  1.0000
  H   H2149     1.0  0.32078  0.92120  0.20217  1.0000
  H   H2150     1.0  0.34070  0.79358  0.04650  1.0000
  C   C1274     1.0  0.23811  0.75405  0.18659  1.0000
  H   H2151     1.0  0.24163  0.69151  0.18040  1.0000
  H   H2152     1.0  0.32166  0.63340  0.26613  1.0000
  C   C1275     1.0  0.33628  0.62056  0.22820  1.0000
  C   C1276     1.0  0.31669  0.74014  0.97984  1.0000
  S   S380      1.0  0.35136  0.71347  0.22766  1.0000
  Fe  Fe192     1.0  0.36984  0.88160  0.11227  1.0000
  C   C1277     1.0  0.32012  0.92321  0.18748  1.0000
  H   H2153     1.0  0.19237  0.67968  0.07849  1.0000
  H   H2154     1.0  0.20410  0.70090  0.10277  1.0000
  C   C1278     1.0  0.20117  0.77073  0.14470  1.0000
  H   H2155     1.0  0.31282  0.68890  0.00542  1.0000
  C   C1279     1.0  0.36622  0.84833  0.01934  1.0000
  H   H2156     1.0  0.36089  0.76655  0.45105  1.0000
  C   C1280     1.0  0.30768  0.47672  0.23666  1.0000
  H   H2157     1.0  0.33622  0.49637  0.26745  1.0000
  C   C1281     1.0  0.34290  0.49937  0.30626  1.0000
  H   H2158     1.0  0.19560  0.67932  0.13804  1.0000
  C   C1282     1.0  0.35843  0.62580  0.28470  1.0000
  H   H2159     1.0  0.34036  0.80217  0.08008  1.0000
  H   H2160     1.0  0.19396  0.71630  0.19912  1.0000
  C   C1283     1.0  0.33059  0.49309  0.25682  1.0000
  H   H2161     1.0  0.30024  0.78707  0.18097  1.0000
  H   H2162     1.0  0.31675  0.51152  0.23453  1.0000
  C   C1284     1.0  0.20384  0.59927  0.03768  1.0000
  H   H2163     1.0  0.29411  0.58562  0.14058  1.0000
  C   C1285     1.0  0.18607  0.76225  0.14758  1.0000
  H   H2164     1.0  0.33190  0.79710  0.18933  1.0000
  H   H2165     1.0  0.19893  0.73258  0.38122  1.0000
  C   C1286     1.0  0.28010  0.64344  0.12169  1.0000
  H   H2166     1.0  0.37774  0.70186  0.32779  1.0000
  H   H2167     1.0  0.33856  0.56696  0.34202  1.0000
  H   H2168     1.0  0.22249  0.93661  0.15709  1.0000
  H   H2169     1.0  0.31168  0.80399  0.05201  1.0000
  C   C1287     1.0  0.20078  0.65159  0.00765  1.0000
  C   C1288     1.0  0.31622  0.64842  0.26321  1.0000
  H   H2170     1.0  0.35771  0.54365  0.32594  1.0000
  H   H2171     1.0  0.28902  0.64968  0.10907  1.0000
  C   C1289     1.0  0.34001  0.81106  0.06620  1.0000
  H   H2172     1.0  0.24487  0.63137  0.13353  1.0000
  C   C1290     1.0  0.30679  0.79276  0.08080  1.0000
  C   C1291     1.0  0.34112  0.48418  0.32085  1.0000
  H   H2173     1.0  0.33231  0.84438  0.04667  1.0000
  H   H2174     1.0  0.38062  0.91141  0.20825  1.0000
  C   C1292     1.0  0.20208  0.49687  0.40912  1.0000
  S   S381      1.0  0.21175  0.52658  0.41591  1.0000
  H   H2175     1.0  0.19194  0.62940  0.97805  1.0000
  S   S382      1.0  0.24434  0.67496  0.99658  1.0000
  C   C1293     1.0  0.28312  0.47997  0.28239  1.0000
  H   H2176     1.0  0.28114  0.57369  0.13208  1.0000
  N   N87       1.0  0.27985  0.61303  0.11237  1.0000
  C   C1294     1.0  0.31293  0.83008  0.08181  1.0000
  C   C1295     1.0  0.35299  0.60923  0.28617  1.0000
  H   H2177     1.0  0.37316  0.73376  0.45224  1.0000
  H   H2178     1.0  0.25104  0.48079  0.38099  1.0000
  H   H2179     1.0  0.34045  0.60632  0.23588  1.0000
  C   C1296     1.0  0.23332  0.50139  0.39577  1.0000
  H   H2180     1.0  0.27360  0.55780  0.35193  1.0000
  Fe  Fe193     1.0  0.20325  0.69835  0.41772  1.0000
  H   H2181     1.0  0.27134  0.63825  0.09315  1.0000
  H   H2182     1.0  0.31883  0.64728  0.20515  1.0000
  N   N88       1.0  0.22408  0.47806  0.46265  1.0000
  H   H2183     1.0  0.28037  0.95364  0.14187  1.0000
  S   S383      1.0  0.38293  0.52882  0.20000  1.0000
  H   H2184     1.0  0.36038  0.63138  0.22408  1.0000
  C   C1297     1.0  0.30610  0.70240  0.99811  1.0000
  H   H2185     1.0  0.31232  0.67157  0.24081  1.0000
  H   H2186     1.0  0.38265  0.91680  0.11330  1.0000
  C   C1298     1.0  0.32105  0.66142  0.20310  1.0000
  C   C1299     1.0  0.19543  0.66651  0.97584  1.0000
  H   H2187     1.0  0.31355  0.52109  0.25461  1.0000
  C   C1300     1.0  0.32333  0.51214  0.24556  1.0000
  H   H2188     1.0  0.29750  0.78462  0.07883  1.0000
  C   C1301     1.0  0.30782  0.49271  0.32496  1.0000
  H   H2189     1.0  0.37850  0.64263  0.27056  1.0000
  H   H2190     1.0  0.35954  0.75185  0.14307  1.0000
  C   C1302     1.0  0.32238  0.84510  0.08348  1.0000
  C   C1303     1.0  0.37952  0.91122  0.19412  1.0000
  C   C1304     1.0  0.37396  0.63009  0.27158  1.0000
  C   C1305     1.0  0.22949  0.69868  0.18924  1.0000
  H   H2191     1.0  0.20732  0.75294  0.31217  1.0000
  H   H2192     1.0  0.19723  0.91474  0.12099  1.0000
  H   H2193     1.0  0.30325  0.56177  0.35648  1.0000
  H   H2194     1.0  0.30032  0.61868  0.12445  1.0000
  C   C1306     1.0  0.23903  0.72339  0.45543  1.0000
  S   S384      1.0  0.21772  0.68505  0.44150  1.0000
  N   N89       1.0  0.20493  0.74731  0.34194  1.0000
  H   H2195     1.0  0.35376  0.74506  0.19763  1.0000
  H   H2196     1.0  0.20641  0.68511  0.98626  1.0000
  H   H2197     1.0  0.35336  0.47495  0.32481  1.0000
  H   H2198     1.0  0.30812  0.67031  0.20894  1.0000
  H   H2199     1.0  0.36821  0.49706  0.22190  1.0000
  N   N90       1.0  0.33749  0.65339  0.23098  1.0000
  C   C1307     1.0  0.27244  0.96922  0.11647  1.0000
  C   C1308     1.0  0.19646  0.59613  0.44421  1.0000
  H   H2200     1.0  0.32818  0.53805  0.34907  1.0000
  C   C1309     1.0  0.23879  0.48340  0.44614  1.0000
  H   H2201     1.0  0.33514  0.51918  0.23886  1.0000
  H   H2202     1.0  0.32800  0.73338  0.98754  1.0000
  H   H2203     1.0  0.33293  0.91042  0.16394  1.0000
  H   H2204     1.0  0.37533  0.67093  0.23284  1.0000
  N   N91       1.0  0.35506  0.91372  0.17518  1.0000
  C   C1310     1.0  0.22007  0.63981  0.98086  1.0000
  H   H2205     1.0  0.21248  0.65800  0.00724  1.0000
  H   H2206     1.0  0.36503  0.75971  0.21698  1.0000
  H   H2207     1.0  0.38387  0.87176  0.16917  1.0000
  H   H2208     1.0  0.33289  0.70451  0.98159  1.0000
  H   H2209     1.0  0.29426  0.49023  0.33218  1.0000
  H   H2210     1.0  0.32081  0.85748  0.07234  1.0000
  H   H2211     1.0  0.29272  0.48209  0.24097  1.0000
  H   H2212     1.0  0.36844  0.74373  0.16369  1.0000
  N   N92       1.0  0.31707  0.48032  0.26573  1.0000
  H   H2213     1.0  0.29261  0.70049  0.99664  1.0000
  H   H2214     1.0  0.33371  0.60083  0.33183  1.0000
  H   H2215     1.0  0.24884  0.75886  0.32435  1.0000
  H   H2216     1.0  0.35422  0.92889  0.13731  1.0000
  H   H2217     1.0  0.23465  0.71465  0.32824  1.0000
  C   C1311     1.0  0.32360  0.48070  0.33009  1.0000
  C   C1312     1.0  0.30301  0.77220  0.18717  1.0000
  H   H2218     1.0  0.36790  0.76729  0.15137  1.0000
  H   H2219     1.0  0.31443  0.48753  0.22691  1.0000
  H   H2220     1.0  0.21025  0.71064  0.22240  1.0000
  H   H2221     1.0  0.33740  0.67725  0.20864  1.0000
  H   H2222     1.0  0.34011  0.62048  0.21325  1.0000
  C   C1313     1.0  0.34892  0.93895  0.14648  1.0000
  H   H2223     1.0  0.28449  0.72947  0.98135  1.0000
  H   H2224     1.0  0.35067  0.65574  0.25213  1.0000
  S   S385      1.0  0.33184  0.48324  0.18461  1.0000
  C   C1314     1.0  0.34805  0.53605  0.32383  1.0000
  H   H2225     1.0  0.32390  0.84500  0.01855  1.0000
  H   H2226     1.0  0.30410  0.76406  0.17673  1.0000
  H   H2227     1.0  0.33719  0.83989  0.08397  1.0000
  H   H2228     1.0  0.24580  0.74968  0.17356  1.0000
  H   H2229     1.0  0.20364  0.48670  0.44555  1.0000
  C   C1315     1.0  0.36272  0.59719  0.27428  1.0000
  S   S386      1.0  0.36788  0.49524  0.09280  1.0000
  Fe  Fe194     1.0  0.37170  0.83761  0.97648  1.0000
  H   H2230     1.0  0.21710  0.72080  0.35675  1.0000
  H   H2231     1.0  0.30988  0.82825  0.02859  1.0000
  S   S387      1.0  0.37183  0.68139  0.26859  1.0000
  H   H2232     1.0  0.29360  0.57948  0.33999  1.0000
  H   H2233     1.0  0.34096  0.60597  0.29621  1.0000
  H   H2234     1.0  0.30422  0.74328  0.99067  1.0000
  H   H2235     1.0  0.29363  0.81775  0.06479  1.0000
  H   H2236     1.0  0.22986  0.95574  0.13979  1.0000
  H   H2237     1.0  0.32999  0.56323  0.29956  1.0000
  C   C1316     1.0  0.30567  0.58405  0.30121  1.0000
  N   N93       1.0  0.32210  0.70928  0.37133  1.0000
  C   C1317     1.0  0.33631  0.71356  0.35400  1.0000
  C   C1318     1.0  0.32102  0.68928  0.37447  1.0000
  C   C1319     1.0  0.32721  0.71253  0.38782  1.0000
  C   C1320     1.0  0.30389  0.72178  0.36890  1.0000
  C   C1321     1.0  0.34096  0.73290  0.34941  1.0000
  C   C1322     1.0  0.31132  0.68447  0.36141  1.0000
  C   C1323     1.0  0.34634  0.70200  0.39161  1.0000
  C   C1324     1.0  0.28719  0.71856  0.38478  1.0000
  H   H2238     1.0  0.34951  0.70337  0.35433  1.0000
  H   H2239     1.0  0.33168  0.71230  0.34179  1.0000
  H   H2240     1.0  0.31405  0.68416  0.38883  1.0000
  H   H2241     1.0  0.33510  0.68048  0.37299  1.0000
  H   H2242     1.0  0.32655  0.72743  0.38675  1.0000
  H   H2243     1.0  0.31692  0.70858  0.40055  1.0000
  H   H2244     1.0  0.30471  0.73638  0.36742  1.0000
  H   H2245     1.0  0.30047  0.72163  0.35574  1.0000
  H   H2246     1.0  0.34703  0.73528  0.36011  1.0000
  H   H2247     1.0  0.35146  0.73422  0.33639  1.0000
  H   H2248     1.0  0.32885  0.74395  0.34685  1.0000
  H   H2249     1.0  0.31762  0.68886  0.34673  1.0000
  H   H2250     1.0  0.31259  0.66932  0.36408  1.0000
  H   H2251     1.0  0.29633  0.69048  0.36382  1.0000
  H   H2252     1.0  0.34841  0.70532  0.40416  1.0000
  H   H2253     1.0  0.35769  0.70614  0.38025  1.0000
  H   H2254     1.0  0.34747  0.68690  0.39428  1.0000
  H   H2255     1.0  0.28579  0.72686  0.39523  1.0000
  H   H2256     1.0  0.28782  0.70402  0.39186  1.0000
  H   H2257     1.0  0.27434  0.72253  0.37922  1.0000
  C   C1325     1.0  0.29342  0.59511  0.11090  1.0000
  H   H2258     1.0  0.29104  0.58887  0.10034  1.0000
  H   H2259     1.0  0.30785  0.59741  0.10614  1.0000
  H   H2260     1.0  0.27442  0.61800  0.08495  1.0000
  H   H2261     1.0  0.25774  0.60057  0.11124  1.0000
  H   H2262     1.0  0.30562  0.56898  0.12652  1.0000
  H   H2263     1.0  0.30717  0.61485  0.07623  1.0000
  H   H2264     1.0  0.32111  0.62388  0.23258  1.0000
  H   H2265     1.0  0.31566  0.84970  0.09665  1.0000
  H   H2266     1.0  0.35405  0.81103  0.16798  1.0000
  H   H2267     1.0  0.35085  0.92370  0.20029  1.0000
  H   H2268     1.0  0.24458  0.71960  0.18619  1.0000
  C   C1326     1.0  0.21573  0.50714  0.40610  1.0000
  H   H2269     1.0  0.30795  0.63050  0.09010  1.0000
  C   C1327     1.0  0.34108  0.47876  0.06328  1.0000
  S   S388      1.0  0.37504  0.83123  0.00607  1.0000
  H   H2270     1.0  0.21818  0.76861  0.34376  1.0000
  H   H2271     1.0  0.35628  0.79749  0.15124  1.0000
  H   H2272     1.0  0.31419  0.60125  0.32292  1.0000
  N   N94       1.0  0.31892  0.56174  0.32871  1.0000
  C   C1328     1.0  0.32801  0.54179  0.33408  1.0000
  C   C1329     1.0  0.30078  0.56488  0.34217  1.0000
  C   C1330     1.0  0.33152  0.57352  0.33019  1.0000
  C   C1331     1.0  0.31636  0.56503  0.30919  1.0000
  H   H2273     1.0  0.18966  0.65787  0.13956  1.0000
  C   C1332     1.0  0.28656  0.55366  0.34209  1.0000
  C   C1333     1.0  0.35917  0.91192  0.19388  1.0000
  C   C1334     1.0  0.29803  0.49127  0.27162  1.0000
  H   H2274     1.0  0.35821  0.58462  0.27518  1.0000
  H   H2275     1.0  0.33485  0.82196  0.02576  1.0000
  N   N95       1.0  0.32072  0.82166  0.06490  1.0000
  H   H2276     1.0  0.21579  0.72384  0.31614  1.0000
  H   H2277     1.0  0.22521  0.61726  0.00472  1.0000
  C   C1335     1.0  0.25765  0.71804  0.44756  1.0000
  H   H2278     1.0  0.33362  0.94167  0.14946  1.0000
  H   H2279     1.0  0.37745  0.64980  0.22613  1.0000
  H   H2280     1.0  0.19819  0.58173  0.44409  1.0000
  C   C1336     1.0  0.33601  0.91010  0.17750  1.0000
  H   H2281     1.0  0.34175  0.67701  0.23894  1.0000
  H   H2282     1.0  0.30388  0.71253  0.00693  1.0000
  H   H2283     1.0  0.30855  0.65096  0.23762  1.0000
  S   S389      1.0  0.18793  0.96698  0.13691  1.0000
  C   C1337     1.0  0.18888  0.72885  0.09861  1.0000
  S   S390      1.0  0.37905  0.54096  0.27725  1.0000
  C   C1338     1.0  0.19035  0.70854  0.10869  1.0000
  C   C1339     1.0  0.21544  0.72375  0.21733  1.0000
  H   H2284     1.0  0.22844  0.72011  0.45040  1.0000
  H   H2285     1.0  0.18693  0.66963  0.02693  1.0000
  H   H2286     1.0  0.34856  0.47898  0.21530  1.0000
  C   C1340     1.0  0.36985  0.87955  0.17412  1.0000
  C   C1341     1.0  0.19220  0.63346  0.44445  1.0000
  C   C1342     1.0  0.19601  0.74771  0.37678  1.0000
  C   C1343     1.0  0.37022  0.84505  0.03692  1.0000
  C   C1344     1.0  0.20197  0.58781  0.02682  1.0000
  H   H2287     1.0  0.29265  0.50049  0.25961  1.0000
  H   H2288     1.0  0.35309  0.95207  0.13861  1.0000
  H   H2289     1.0  0.21704  0.69660  0.18567  1.0000
  H   H2290     1.0  0.33762  0.49066  0.07018  1.0000
  H   H2291     1.0  0.20514  0.73327  0.22547  1.0000
  H   H2292     1.0  0.38099  0.78493  0.43218  1.0000
  H   H2293     1.0  0.36451  0.53440  0.17023  1.0000
  H   H2294     1.0  0.35947  0.87376  0.17067  1.0000
  C   C1345     1.0  0.19045  0.75355  0.35784  1.0000
  H   H2295     1.0  0.20301  0.73148  0.09221  1.0000
  H   H2296     1.0  0.20790  0.75341  0.37709  1.0000
  H   H2297     1.0  0.19479  0.67312  0.10767  1.0000
  H   H2298     1.0  0.35986  0.79616  0.46119  1.0000
  C   C1346     1.0  0.37350  0.79957  0.45408  1.0000
  Fe  Fe195     1.0  0.38338  0.55978  0.24959  1.0000
  C   C1347     1.0  0.38359  0.61820  0.25956  1.0000
  H   H2299     1.0  0.26942  0.48938  0.28413  1.0000
  H   H2300     1.0  0.37108  0.49011  0.15337  1.0000
  H   H2301     1.0  0.37876  0.83214  0.04205  1.0000
  H   H2302     1.0  0.25022  0.48696  0.45019  1.0000
  H   H2303     1.0  0.18609  0.76883  0.35508  1.0000
  H   H2304     1.0  0.35485  0.89961  0.20367  1.0000
  C   C1348     1.0  0.18850  0.61184  0.04450  1.0000
  H   H2305     1.0  0.19049  0.64779  0.44493  1.0000
  H   H2306     1.0  0.31091  0.65976  0.97109  1.0000
  H   H2307     1.0  0.37085  0.52058  0.13664  1.0000
  C   C1349     1.0  0.18799  0.63582  0.99039  1.0000
  H   H2308     1.0  0.32153  0.47658  0.29336  1.0000
  C   C1350     1.0  0.38085  0.49101  0.13999  1.0000
  H   H2309     1.0  0.23093  0.51594  0.45815  1.0000
  C   C1351     1.0  0.36882  0.73902  0.46521  1.0000
  C   C1352     1.0  0.36934  0.75965  0.46173  1.0000
  H   H2310     1.0  0.36846  0.67161  0.21219  1.0000
  C   C1353     1.0  0.18742  0.69480  0.07567  1.0000
  C   C1354     1.0  0.20727  0.68100  0.97314  1.0000
  C   C1355     1.0  0.32169  0.75874  0.96878  1.0000
  C   C1356     1.0  0.29781  0.66877  0.96929  1.0000
  H   H2311     1.0  0.38485  0.75331  0.42571  1.0000
  C   C1357     1.0  0.38426  0.51086  0.13410  1.0000
  H   H2312     1.0  0.21497  0.47467  0.32033  1.0000
  C   C1358     1.0  0.22384  0.47478  0.39212  1.0000
  C   C1359     1.0  0.20877  0.47444  0.45565  1.0000
  C   C1360     1.0  0.29375  0.73103  0.96753  1.0000
  C   C1361     1.0  0.19110  0.51596  0.54673  1.0000
  H   H2313     1.0  0.28122  0.90713  0.63397  1.0000
  Fe  Fe196     1.0  0.21102  0.87701  0.61745  1.0000
  S   S391      1.0  0.21573  0.89625  0.77194  1.0000
  C   C1362     1.0  0.33796  0.83452  0.55167  1.0000
  Fe  Fe197     1.0  0.24279  0.86232  0.58892  1.0000
  S   S392      1.0  0.23827  0.88829  0.56781  1.0000
  S   S393      1.0  0.26636  0.84005  0.57949  1.0000
  Fe  Fe198     1.0  0.23430  0.90291  0.59085  1.0000
  S   S394      1.0  0.24428  0.92950  0.58588  1.0000
  H   H2314     1.0  0.31285  0.85072  0.91390  1.0000
  H   H2315     1.0  0.25924  0.90003  0.66294  1.0000
  S   S395      1.0  0.24142  0.87701  0.61143  1.0000
  H   H2316     1.0  0.19970  0.65325  0.75848  1.0000
  Fe  Fe199     1.0  0.33787  0.72358  0.87444  1.0000
  S   S396      1.0  0.33880  0.72522  0.90298  1.0000
  H   H2317     1.0  0.26142  0.92075  0.76602  1.0000
  Fe  Fe200     1.0  0.29601  0.73067  0.88174  1.0000
  S   S397      1.0  0.29328  0.73319  0.91091  1.0000
  S   S398      1.0  0.26973  0.73561  0.87110  1.0000
  Fe  Fe201     1.0  0.31565  0.74968  0.89972  1.0000
  S   S399      1.0  0.31145  0.77601  0.90988  1.0000
  Fe  Fe202     1.0  0.31637  0.70865  0.91204  1.0000
  S   S400      1.0  0.31712  0.68503  0.93654  1.0000
  S   S401      1.0  0.31629  0.74946  0.87035  1.0000
  S   S402      1.0  0.31760  0.70471  0.88364  1.0000
  S   S403      1.0  0.26031  0.67869  0.82845  1.0000
  H   H2318     1.0  0.25899  0.69297  0.47986  1.0000
  H   H2319     1.0  0.27773  0.91885  0.92958  1.0000
  H   H2320     1.0  0.29635  0.93953  0.73970  1.0000
  H   H2321     1.0  0.29215  0.68244  0.49172  1.0000
  H   H2322     1.0  0.23212  0.69465  0.54214  1.0000
  Fe  Fe203     1.0  0.34814  0.85595  0.94791  1.0000
  S   S404      1.0  0.31986  0.87181  0.94383  1.0000
  C   C1363     1.0  0.20389  0.60865  0.49349  1.0000
  H   H2323     1.0  0.32369  0.94060  0.80161  1.0000
  N   N96       1.0  0.26253  0.94686  0.92395  1.0000
  H   H2324     1.0  0.26194  0.64861  0.54796  1.0000
  C   C1364     1.0  0.21660  0.91198  0.63957  1.0000
  C   C1365     1.0  0.19228  0.86387  0.68251  1.0000
  Fe  Fe204     1.0  0.30432  0.59987  0.66876  1.0000
  S   S405      1.0  0.27656  0.59182  0.67622  1.0000
  S   S406      1.0  0.32815  0.58029  0.68037  1.0000
  Fe  Fe205     1.0  0.28978  0.63768  0.64745  1.0000
  S   S407      1.0  0.26070  0.63317  0.65372  1.0000
  S   S408      1.0  0.29838  0.66450  0.63264  1.0000
  Fe  Fe206     1.0  0.26569  0.62023  0.68228  1.0000
  Fe  Fe207     1.0  0.27402  0.60519  0.64703  1.0000
  S   S409      1.0  0.26372  0.59570  0.62624  1.0000
  S   S410      1.0  0.29352  0.62736  0.67657  1.0000
  S   S411      1.0  0.30299  0.61071  0.63893  1.0000
  Fe  Fe208     1.0  0.26154  0.75627  0.54958  1.0000
  S   S412      1.0  0.29119  0.74241  0.54935  1.0000
  S   S413      1.0  0.24293  0.76875  0.57310  1.0000
  Fe  Fe209     1.0  0.26140  0.74681  0.51305  1.0000
  S   S414      1.0  0.29108  0.73244  0.50952  1.0000
  C   C1366     1.0  0.24532  0.57354  0.61751  1.0000
  Fe  Fe210     1.0  0.28412  0.72010  0.53969  1.0000
  S   S415      1.0  0.29003  0.68935  0.54971  1.0000
  Fe  Fe211     1.0  0.29563  0.75602  0.51932  1.0000
  S   S416      1.0  0.31808  0.77197  0.50409  1.0000
  S   S417      1.0  0.25409  0.73286  0.54254  1.0000
  S   S418      1.0  0.26631  0.77159  0.52033  1.0000
  H   H2325     1.0  0.24131  0.65850  0.49204  1.0000
  H   H2326     1.0  0.23722  0.86359  0.79135  1.0000
  H   H2327     1.0  0.21417  0.78922  0.76458  1.0000
  H   H2328     1.0  0.27253  0.96959  0.92806  1.0000
  H   H2329     1.0  0.23742  0.70343  0.65517  1.0000
  S   S419      1.0  0.24093  0.74796  0.49578  1.0000
  C   C1367     1.0  0.20596  0.78417  0.73372  1.0000
  H   H2330     1.0  0.29438  0.92097  0.76858  1.0000
  C   C1368     1.0  0.21694  0.96816  0.89184  1.0000
  C   C1369     1.0  0.20673  0.83795  0.56157  1.0000
  H   H2331     1.0  0.20141  0.91575  0.64059  1.0000
  H   H2332     1.0  0.29733  0.77776  0.82726  1.0000
  H   H2333     1.0  0.22302  0.91656  0.62494  1.0000
  S   S420      1.0  0.22456  0.51407  0.59457  1.0000
  H   H2334     1.0  0.23814  0.95991  0.75583  1.0000
  H   H2335     1.0  0.24180  0.50004  0.47602  1.0000
  Fe  Fe212     1.0  0.21468  0.48737  0.60501  1.0000
  H   H2336     1.0  0.29326  0.95496  0.88320  1.0000
  C   C1370     1.0  0.32557  0.95325  0.80488  1.0000
  H   H2337     1.0  0.25088  0.92037  0.91166  1.0000
  S   S421      1.0  0.20410  0.49114  0.63413  1.0000
  H   H2338     1.0  0.33622  0.96670  0.86267  1.0000
  H   H2339     1.0  0.23328  0.79969  0.70655  1.0000
  H   H2340     1.0  0.22974  0.76629  0.80962  1.0000
  C   C1371     1.0  0.31406  0.79319  0.57683  1.0000
  H   H2341     1.0  0.20629  0.72926  0.63644  1.0000
  C   C1372     1.0  0.28757  0.60316  0.73724  1.0000
  C   C1373     1.0  0.31232  0.82889  0.88111  1.0000
  C   C1374     1.0  0.33721  0.76904  0.51410  1.0000
  C   C1375     1.0  0.34977  0.78081  0.50627  1.0000
  H   H2342     1.0  0.29726  0.94810  0.70892  1.0000
  H   H2343     1.0  0.33830  0.93637  0.82672  1.0000
  C   C1376     1.0  0.18832  0.50818  0.53312  1.0000
  C   C1377     1.0  0.34022  0.75524  0.52952  1.0000
  N   N97       1.0  0.20041  0.58936  0.50077  1.0000
  H   H2344     1.0  0.33065  0.74603  0.53557  1.0000
  C   C1378     1.0  0.25230  0.57701  0.63138  1.0000
  C   C1379     1.0  0.25068  0.56518  0.64861  1.0000
  C   C1380     1.0  0.24238  0.54988  0.65184  1.0000
  C   C1381     1.0  0.23560  0.54629  0.63792  1.0000
  C   C1382     1.0  0.23697  0.55826  0.62076  1.0000
  H   H2345     1.0  0.21914  0.70660  0.63589  1.0000
  H   H2346     1.0  0.25599  0.56771  0.65937  1.0000
  H   H2347     1.0  0.24137  0.54066  0.66515  1.0000
  C   C1383     1.0  0.34406  0.59051  0.68546  1.0000
  C   C1384     1.0  0.35656  0.57964  0.69640  1.0000
  H   H2348     1.0  0.38381  0.63251  0.82036  1.0000
  C   C1385     1.0  0.37050  0.60573  0.69332  1.0000
  C   C1386     1.0  0.35767  0.61680  0.68282  1.0000
  C   C1387     1.0  0.34457  0.60916  0.67874  1.0000
  H   H2349     1.0  0.37798  0.65603  0.83536  1.0000
  C   C1388     1.0  0.21716  0.74293  0.74520  1.0000
  H   H2350     1.0  0.35801  0.63123  0.67760  1.0000
  H   H2351     1.0  0.33505  0.61766  0.67020  1.0000
  C   C1389     1.0  0.29839  0.66986  0.60898  1.0000
  C   C1390     1.0  0.29137  0.65916  0.60108  1.0000
  C   C1391     1.0  0.28941  0.66494  0.58264  1.0000
  C   C1392     1.0  0.29421  0.68153  0.57216  1.0000
  C   C1393     1.0  0.30180  0.69189  0.57988  1.0000
  C   C1394     1.0  0.30401  0.68599  0.59823  1.0000
  H   H2352     1.0  0.28701  0.64669  0.60930  1.0000
  H   H2353     1.0  0.28366  0.65680  0.57668  1.0000
  H   H2354     1.0  0.30587  0.70450  0.57174  1.0000
  H   H2355     1.0  0.30959  0.69420  0.60426  1.0000
  H   H2356     1.0  0.27870  0.64581  0.74134  1.0000
  H   H2357     1.0  0.26839  0.65403  0.51640  1.0000
  H   H2358     1.0  0.19773  0.95943  0.91658  1.0000
  C   C1395     1.0  0.36133  0.95634  0.83135  1.0000
  H   H2359     1.0  0.25661  0.85999  0.81419  1.0000
  Fe  Fe213     1.0  0.23728  0.68528  0.81267  1.0000
  C   C1396     1.0  0.28582  0.75013  0.95708  1.0000
  H   H2360     1.0  0.28240  0.92468  0.73827  1.0000
  S   S422      1.0  0.24519  0.69055  0.74397  1.0000
  C   C1397     1.0  0.31926  0.88534  0.92175  1.0000
  C   C1398     1.0  0.30254  0.89069  0.91565  1.0000
  C   C1399     1.0  0.30164  0.90158  0.89809  1.0000
  C   C1400     1.0  0.31746  0.90717  0.88656  1.0000
  C   C1401     1.0  0.33424  0.90171  0.89261  1.0000
  C   C1402     1.0  0.33516  0.89073  0.91017  1.0000
  H   H2361     1.0  0.29028  0.88631  0.92452  1.0000
  C   C1403     1.0  0.22515  0.81913  0.53853  1.0000
  H   H2362     1.0  0.34657  0.90591  0.88372  1.0000
  H   H2363     1.0  0.34814  0.88659  0.91481  1.0000
  C   C1404     1.0  0.25456  0.65664  0.70822  1.0000
  H   H2364     1.0  0.26043  0.68292  0.70773  1.0000
  H   H2365     1.0  0.26113  0.65657  0.69397  1.0000
  C   C1405     1.0  0.18809  0.61667  0.78187  1.0000
  H   H2366     1.0  0.26590  0.51220  0.58494  1.0000
  H   H2367     1.0  0.21759  0.58216  0.47540  1.0000
  H   H2368     1.0  0.24739  0.93532  0.66270  1.0000
  H   H2369     1.0  0.21322  0.93920  0.68054  1.0000
  C   C1406     1.0  0.35586  0.75315  0.53694  1.0000
  C   C1407     1.0  0.25755  0.67966  0.48949  1.0000
  H   H2370     1.0  0.21477  0.58131  0.52374  1.0000
  H   H2371     1.0  0.26879  0.96567  0.61502  1.0000
  C   C1408     1.0  0.22277  0.92162  0.65177  1.0000
  C   C1409     1.0  0.32977  0.77996  0.91759  1.0000
  C   C1410     1.0  0.32671  0.79477  0.92636  1.0000
  C   C1411     1.0  0.34119  0.79851  0.93224  1.0000
  C   C1412     1.0  0.35879  0.78736  0.92947  1.0000
  C   C1413     1.0  0.36174  0.77235  0.92099  1.0000
  C   C1414     1.0  0.34732  0.76873  0.91496  1.0000
  H   H2372     1.0  0.31312  0.80342  0.92859  1.0000
  H   H2373     1.0  0.33876  0.81002  0.93891  1.0000
  H   H2374     1.0  0.22359  0.68383  0.51591  1.0000
  H   H2375     1.0  0.34989  0.75742  0.90803  1.0000
  C   C1415     1.0  0.26771  0.72043  0.85817  1.0000
  C   C1416     1.0  0.28208  0.70571  0.85426  1.0000
  C   C1417     1.0  0.27969  0.69313  0.84494  1.0000
  C   C1418     1.0  0.26311  0.69540  0.83910  1.0000
  C   C1419     1.0  0.24887  0.71035  0.84265  1.0000
  C   C1420     1.0  0.25113  0.72274  0.85230  1.0000
  H   H2376     1.0  0.29497  0.70392  0.85850  1.0000
  H   H2377     1.0  0.29075  0.68161  0.84218  1.0000
  H   H2378     1.0  0.23991  0.73402  0.85537  1.0000
  C   C1421     1.0  0.25969  0.82014  0.57815  1.0000
  C   C1422     1.0  0.27003  0.81009  0.56474  1.0000
  C   C1423     1.0  0.26519  0.79407  0.56341  1.0000
  C   C1424     1.0  0.24979  0.78810  0.57544  1.0000
  C   C1425     1.0  0.23941  0.79806  0.58894  1.0000
  C   C1426     1.0  0.24434  0.81409  0.59029  1.0000
  H   H2379     1.0  0.28158  0.81491  0.55508  1.0000
  H   H2380     1.0  0.27319  0.78653  0.55287  1.0000
  H   H2381     1.0  0.22749  0.79344  0.59830  1.0000
  H   H2382     1.0  0.23640  0.82164  0.60083  1.0000
  C   C1427     1.0  0.24142  0.93825  0.74130  1.0000
  C   C1428     1.0  0.29777  0.51969  0.61202  1.0000
  H   H2383     1.0  0.23875  0.93994  0.94490  1.0000
  H   H2384     1.0  0.23186  0.55560  0.60993  1.0000
  H   H2385     1.0  0.25619  0.78143  0.74939  1.0000
  N   N98       1.0  0.25329  0.68210  0.50920  1.0000
  C   C1429     1.0  0.29830  0.62154  0.75252  1.0000
  C   C1430     1.0  0.28270  0.93942  0.73701  1.0000
  C   C1431     1.0  0.24353  0.78247  0.76029  1.0000
  C   C1432     1.0  0.20278  0.86274  0.66481  1.0000
  C   C1433     1.0  0.22121  0.85343  0.66272  1.0000
  H   H2386     1.0  0.22934  0.85239  0.64912  1.0000
  C   C1434     1.0  0.22570  0.78815  0.75251  1.0000
  H   H2387     1.0  0.33568  0.82028  0.85924  1.0000
  C   C1435     1.0  0.25822  0.94962  0.60202  1.0000
  C   C1436     1.0  0.25652  0.93198  0.60143  1.0000
  C   C1437     1.0  0.26479  0.91667  0.61303  1.0000
  H   H2388     1.0  0.33926  0.79339  0.54102  1.0000
  C   C1438     1.0  0.22915  0.84556  0.67830  1.0000
  N   N99       1.0  0.30312  0.61271  0.73596  1.0000
  H   H2389     1.0  0.26384  0.90301  0.61243  1.0000
  S   S423      1.0  0.24490  0.93935  0.83559  1.0000
  C   C1439     1.0  0.21614  0.76857  0.80670  1.0000
  H   H2390     1.0  0.20367  0.74766  0.74088  1.0000
  C   C1440     1.0  0.29689  0.68256  0.95336  1.0000
  C   C1441     1.0  0.27993  0.69411  0.95116  1.0000
  S   S424      1.0  0.36776  0.86594  0.95882  1.0000
  H   H2391     1.0  0.24346  0.83854  0.67664  1.0000
  C   C1442     1.0  0.24092  0.90616  0.80794  1.0000
  H   H2392     1.0  0.27903  0.70477  0.93899  1.0000
  H   H2393     1.0  0.36235  0.95990  0.66504  1.0000
  H   H2394     1.0  0.25963  0.69168  0.65930  1.0000
  C   C1443     1.0  0.24541  0.67188  0.73442  1.0000
  H   H2395     1.0  0.20054  0.85222  0.56369  1.0000
  H   H2396     1.0  0.34683  0.81355  0.52724  1.0000
  H   H2397     1.0  0.29531  0.54920  0.60162  1.0000
  H   H2398     1.0  0.20153  0.65855  0.72635  1.0000
  C   C1444     1.0  0.28150  0.92566  0.77814  1.0000
  H   H2399     1.0  0.18551  0.83154  0.58569  1.0000
  S   S425      1.0  0.18714  0.49843  0.59710  1.0000
  H   H2400     1.0  0.23476  0.75036  0.75865  1.0000
  H   H2401     1.0  0.25203  0.92942  0.73276  1.0000
  C   C1445     1.0  0.25033  0.88875  0.81512  1.0000
  C   C1446     1.0  0.20906  0.75348  0.80630  1.0000
  C   C1447     1.0  0.23375  0.69288  0.51319  1.0000
  H   H2402     1.0  0.25188  0.76441  0.73075  1.0000
  C   C1448     1.0  0.33797  0.60446  0.73723  1.0000
  H   H2403     1.0  0.19796  0.56886  0.52593  1.0000
  C   C1449     1.0  0.32047  0.59813  0.73684  1.0000
  C   C1450     1.0  0.24906  0.87342  0.80899  1.0000
  H   H2404     1.0  0.27872  0.91358  0.78925  1.0000
  H   H2405     1.0  0.22289  0.92177  0.78944  1.0000
  S   S426      1.0  0.22732  0.84525  0.76367  1.0000
  H   H2406     1.0  0.32211  0.84892  0.53007  1.0000
  H   H2407     1.0  0.31200  0.76671  0.95974  1.0000
  C   C1451     1.0  0.28736  0.68362  0.50635  1.0000
  H   H2408     1.0  0.34924  0.96811  0.68514  1.0000
  H   H2409     1.0  0.37825  0.92604  0.61678  1.0000
  H   H2410     1.0  0.28431  0.59436  0.75115  1.0000
  H   H2411     1.0  0.36436  0.92619  0.83907  1.0000
  C   C1452     1.0  0.23024  0.90825  0.79482  1.0000
  H   H2412     1.0  0.20498  0.77690  0.72322  1.0000
  C   C1453     1.0  0.23817  0.87546  0.79601  1.0000
  H   H2413     1.0  0.24262  0.94107  0.68467  1.0000
  C   C1454     1.0  0.26917  0.79367  0.83167  1.0000
  C   C1455     1.0  0.28325  0.77534  0.83425  1.0000
  C   C1456     1.0  0.26402  0.79660  0.87043  1.0000
  H   H2414     1.0  0.27560  0.80433  0.83352  1.0000
  H   H2415     1.0  0.35434  0.73723  0.47108  1.0000
  H   H2416     1.0  0.30974  0.90907  0.59232  1.0000
  C   C1457     1.0  0.29620  0.93542  0.92921  1.0000
  H   H2417     1.0  0.25675  0.83071  0.83519  1.0000
  H   H2418     1.0  0.25742  0.80034  0.88403  1.0000
  H   H2419     1.0  0.26846  0.80902  0.86129  1.0000
  H   H2420     1.0  0.27635  0.78574  0.87296  1.0000
  H   H2421     1.0  0.33098  0.96153  0.55356  1.0000
  Fe  Fe214     1.0  0.28956  0.92698  0.85540  1.0000
  H   H2422     1.0  0.21351  0.54927  0.50832  1.0000
  H   H2423     1.0  0.37533  0.76369  0.91882  1.0000
  H   H2424     1.0  0.25144  0.83778  0.53580  1.0000
  S   S427      1.0  0.26602  0.91239  0.86808  1.0000
  H   H2425     1.0  0.25636  0.78712  0.70164  1.0000
  C   C1458     1.0  0.36538  0.77871  0.51368  1.0000
  H   H2426     1.0  0.20163  0.62391  0.75393  1.0000
  Fe  Fe215     1.0  0.26477  0.91226  0.83920  1.0000
  H   H2427     1.0  0.22115  0.51637  0.48183  1.0000
  H   H2428     1.0  0.24380  0.76943  0.77066  1.0000
  H   H2429     1.0  0.22705  0.79014  0.53958  1.0000
  H   H2430     1.0  0.36048  0.93015  0.54897  1.0000
  H   H2431     1.0  0.23330  0.89060  0.69075  1.0000
  S   S428      1.0  0.31667  0.92077  0.86450  1.0000
  C   C1459     1.0  0.36989  0.58714  0.70013  1.0000
  H   H2432     1.0  0.25282  0.91800  0.68279  1.0000
  H   H2433     1.0  0.22415  0.88349  0.67539  1.0000
  Fe  Fe216     1.0  0.21214  0.51889  0.62332  1.0000
  H   H2434     1.0  0.31447  0.78671  0.56529  1.0000
  Fe  Fe217     1.0  0.24823  0.94064  0.86352  1.0000
  H   H2435     1.0  0.34815  0.93819  0.85585  1.0000
  H   H2436     1.0  0.20106  0.84073  0.51734  1.0000
  H   H2437     1.0  0.36340  0.67279  0.80756  1.0000
  H   H2438     1.0  0.19612  0.66378  0.96204  1.0000
  H   H2439     1.0  0.26497  0.49484  0.66822  1.0000
  H   H2440     1.0  0.26077  0.96876  0.76711  1.0000
  C   C1460     1.0  0.25377  0.66203  0.54214  1.0000
  C   C1461     1.0  0.31438  0.64266  0.71652  1.0000
  H   H2441     1.0  0.20314  0.61290  0.47869  1.0000
  S   S429      1.0  0.29000  0.92441  0.82688  1.0000
  H   H2442     1.0  0.35050  0.70720  0.95126  1.0000
  H   H2443     1.0  0.31213  0.94617  0.60404  1.0000
  H   H2444     1.0  0.30878  0.84961  0.55341  1.0000
  C   C1462     1.0  0.32566  0.72896  0.95002  1.0000
  H   H2445     1.0  0.23553  0.92950  0.75431  1.0000
  H   H2446     1.0  0.30633  0.48497  0.60644  1.0000
  H   H2447     1.0  0.27746  0.54350  0.62074  1.0000
  H   H2448     1.0  0.18587  0.47972  0.47943  1.0000
  H   H2449     1.0  0.33011  0.92923  0.55903  1.0000
  S   S430      1.0  0.19168  0.64584  0.81735  1.0000
  H   H2450     1.0  0.29718  0.96641  0.58508  1.0000
  H   H2451     1.0  0.23302  0.84129  0.83676  1.0000
  C   C1463     1.0  0.22313  0.92578  0.68244  1.0000
  H   H2452     1.0  0.27569  0.96302  0.71375  1.0000
  H   H2453     1.0  0.28974  0.50827  0.58478  1.0000
  C   C1464     1.0  0.22165  0.75706  0.75381  1.0000
  H   H2454     1.0  0.30748  0.52052  0.62032  1.0000
  H   H2455     1.0  0.32926  0.91284  0.61093  1.0000
  S   S431      1.0  0.21537  0.80526  0.80246  1.0000
  H   H2456     1.0  0.25981  0.67233  0.54519  1.0000
  C   C1465     1.0  0.25525  0.66322  0.52143  1.0000
  C   C1466     1.0  0.21578  0.57671  0.49052  1.0000
  H   H2457     1.0  0.33009  0.80234  0.87832  1.0000
  H   H2458     1.0  0.19619  0.90208  0.67146  1.0000
  S   S432      1.0  0.26381  0.88590  0.83164  1.0000
  H   H2459     1.0  0.20193  0.69359  0.96358  1.0000
  S   S433      1.0  0.20691  0.68871  0.82517  1.0000
  H   H2460     1.0  0.22981  0.68193  0.48404  1.0000
  Fe  Fe218     1.0  0.23134  0.68875  0.77392  1.0000
  C   C1467     1.0  0.30454  0.96622  0.57071  1.0000
  H   H2461     1.0  0.33980  0.83811  0.56424  1.0000
  H   H2462     1.0  0.24391  0.79322  0.76752  1.0000
  H   H2463     1.0  0.30217  0.92194  0.57189  1.0000
  H   H2464     1.0  0.27879  0.71823  0.59720  1.0000
  H   H2465     1.0  0.30441  0.92394  0.93775  1.0000
  C   C1468     1.0  0.21661  0.72059  0.62744  1.0000
  H   H2466     1.0  0.22035  0.77570  0.86395  1.0000
  C   C1469     1.0  0.36686  0.95512  0.61098  1.0000
  S   S434      1.0  0.20371  0.90406  0.59839  1.0000
  H   H2467     1.0  0.21905  0.83430  0.56795  1.0000
  H   H2468     1.0  0.20929  0.80465  0.52844  1.0000
  H   H2469     1.0  0.28870  0.90560  0.89356  1.0000
  S   S435      1.0  0.23697  0.66452  0.79661  1.0000
  H   H2470     1.0  0.30380  0.65549  0.71747  1.0000
  C   C1470     1.0  0.21610  0.80273  0.54019  1.0000
  H   H2471     1.0  0.35074  0.83632  0.54111  1.0000
  C   C1471     1.0  0.24428  0.94054  0.92987  1.0000
  H   H2472     1.0  0.26791  0.62880  0.75885  1.0000
  H   H2473     1.0  0.28043  0.76512  0.82783  1.0000
  C   C1472     1.0  0.35301  0.53586  0.66145  1.0000
  C   C1473     1.0  0.35557  0.97259  0.67044  1.0000
  C   C1474     1.0  0.18846  0.78927  0.79863  1.0000
  H   H2474     1.0  0.26498  0.70656  0.50140  1.0000
  H   H2475     1.0  0.23601  0.71215  0.83824  1.0000
  H   H2476     1.0  0.24820  0.86223  0.52960  1.0000
  H   H2477     1.0  0.33021  0.85146  0.85008  1.0000
  H   H2478     1.0  0.22509  0.80248  0.74438  1.0000
  C   C1475     1.0  0.18706  0.62456  0.76144  1.0000
  N   N100      1.0  0.22318  0.77557  0.74144  1.0000
  C   C1476     1.0  0.21877  0.84721  0.69594  1.0000
  H   H2479     1.0  0.23619  0.79343  0.87204  1.0000
  H   H2480     1.0  0.23403  0.73837  0.62886  1.0000
  H   H2481     1.0  0.37438  0.81797  0.55336  1.0000
  C   C1477     1.0  0.24632  0.64198  0.71885  1.0000
  H   H2482     1.0  0.25115  0.76519  0.84280  1.0000
  C   C1478     1.0  0.23734  0.65713  0.74508  1.0000
  H   H2483     1.0  0.20224  0.89212  0.70462  1.0000
  S   S436      1.0  0.27564  0.97086  0.79784  1.0000
  C   C1479     1.0  0.33377  0.92471  0.61296  1.0000
  H   H2484     1.0  0.23422  0.82067  0.52455  1.0000
  H   H2485     1.0  0.23920  0.66297  0.54968  1.0000
  C   C1480     1.0  0.24261  0.82876  0.84224  1.0000
  H   H2486     1.0  0.35328  0.55031  0.65415  1.0000
  C   C1481     1.0  0.24476  0.79079  0.71302  1.0000
  H   H2487     1.0  0.35093  0.78807  0.56661  1.0000
  C   C1482     1.0  0.26677  0.69282  0.51071  1.0000
  H   H2488     1.0  0.22924  0.57595  0.49409  1.0000
  S   S437      1.0  0.28806  0.93911  0.64173  1.0000
  Fe  Fe219     1.0  0.20376  0.71106  0.80009  1.0000
  H   H2489     1.0  0.21237  0.78909  0.84318  1.0000
  C   C1483     1.0  0.32571  0.96084  0.56855  1.0000
  H   H2490     1.0  0.20972  0.72063  0.61626  1.0000
  H   H2491     1.0  0.20641  0.79860  0.72627  1.0000
  C   C1484     1.0  0.36871  0.97200  0.59913  1.0000
  H   H2492     1.0  0.23749  0.92221  0.64596  1.0000
  N   N101      1.0  0.21965  0.91308  0.67203  1.0000
  C   C1485     1.0  0.22260  0.77736  0.84882  1.0000
  H   H2493     1.0  0.29040  0.67004  0.51556  1.0000
  C   C1486     1.0  0.32605  0.84617  0.90468  1.0000
  H   H2494     1.0  0.29751  0.61083  0.76543  1.0000
  H   H2495     1.0  0.30681  0.51679  0.59880  1.0000
  Fe  Fe220     1.0  0.20822  0.88716  0.57715  1.0000
  C   C1487     1.0  0.23938  0.77299  0.72568  1.0000
  H   H2496     1.0  0.19213  0.85741  0.71161  1.0000
  H   H2497     1.0  0.21623  0.73003  0.75569  1.0000
  C   C1488     1.0  0.24426  0.92169  0.92602  1.0000
  H   H2498     1.0  0.26822  0.79748  0.81684  1.0000
  H   H2499     1.0  0.33996  0.84984  0.87629  1.0000
  C   C1489     1.0  0.30511  0.62640  0.71791  1.0000
  C   C1490     1.0  0.29075  0.59091  0.72307  1.0000
  H   H2500     1.0  0.19126  0.68333  0.74670  1.0000
  C   C1491     1.0  0.30893  0.92273  0.58286  1.0000
  H   H2501     1.0  0.31294  0.61923  0.70650  1.0000
  H   H2502     1.0  0.29124  0.63281  0.71452  1.0000
  H   H2503     1.0  0.30057  0.57780  0.72644  1.0000
  H   H2504     1.0  0.27744  0.58728  0.72333  1.0000
  H   H2505     1.0  0.29567  0.59798  0.70884  1.0000
  H   H2506     1.0  0.25805  0.87627  0.66969  1.0000
  C   C1492     1.0  0.37058  0.67926  0.81437  1.0000
  C   C1493     1.0  0.37091  0.80480  0.55318  1.0000
  H   H2507     1.0  0.22972  0.92021  0.92804  1.0000
  C   C1494     1.0  0.24147  0.85068  0.53797  1.0000
  H   H2508     1.0  0.23727  0.81478  0.82360  1.0000
  H   H2509     1.0  0.32433  0.59146  0.72471  1.0000
  H   H2510     1.0  0.32581  0.49198  0.62462  1.0000
  C   C1495     1.0  0.32853  0.92684  0.57424  1.0000
  N   N102      1.0  0.25017  0.79355  0.84368  1.0000
  C   C1496     1.0  0.22878  0.89293  0.78885  1.0000
  H   H2511     1.0  0.34215  0.81832  0.88098  1.0000
  H   H2512     1.0  0.26111  0.72144  0.63855  1.0000
  H   H2513     1.0  0.28479  0.95936  0.76138  1.0000
  S   S438      1.0  0.22702  0.52588  0.64214  1.0000
  N   N103      1.0  0.34432  0.96348  0.82304  1.0000
  C   C1497     1.0  0.25115  0.70057  0.60832  1.0000
  H   H2514     1.0  0.21485  0.86598  0.53409  1.0000
  H   H2515     1.0  0.24448  0.65613  0.52068  1.0000
  S   S439      1.0  0.22932  0.83850  0.71509  1.0000
  H   H2516     1.0  0.24973  0.88961  0.64977  1.0000
  C   C1498     1.0  0.23783  0.64221  0.73731  1.0000
  H   H2517     1.0  0.24925  0.96459  0.73263  1.0000
  C   C1499     1.0  0.32710  0.96927  0.83683  1.0000
  H   H2518     1.0  0.21048  0.48841  0.48771  1.0000
  C   C1500     1.0  0.25111  0.69649  0.64854  1.0000
  H   H2519     1.0  0.24336  0.78161  0.82402  1.0000
  H   H2520     1.0  0.23078  0.70372  0.50093  1.0000
  C   C1501     1.0  0.26534  0.72738  0.60115  1.0000
  C   C1502     1.0  0.24562  0.70526  0.58942  1.0000
  H   H2521     1.0  0.28358  0.76928  0.84891  1.0000
  H   H2522     1.0  0.37061  0.50896  0.66311  1.0000
  H   H2523     1.0  0.18672  0.79343  0.75806  1.0000
  S   S440      1.0  0.36305  0.72023  0.85175  1.0000
  S   S441      1.0  0.24631  0.62320  0.70956  1.0000
  C   C1503     1.0  0.27184  0.96359  0.75594  1.0000
  H   H2524     1.0  0.32350  0.74324  0.94193  1.0000
  H   H2525     1.0  0.25527  0.96181  0.94610  1.0000
  H   H2526     1.0  0.32169  0.72076  0.94205  1.0000
  C   C1504     1.0  0.31632  0.48222  0.63094  1.0000
  H   H2527     1.0  0.25189  0.96150  0.59303  1.0000
  S   S442      1.0  0.36962  0.84564  0.92492  1.0000
  C   C1505     1.0  0.26958  0.74389  0.60634  1.0000
  H   H2528     1.0  0.21342  0.70863  0.53185  1.0000
  C   C1506     1.0  0.31767  0.81409  0.53107  1.0000
  S   S443      1.0  0.21292  0.86004  0.59671  1.0000
  N   N104      1.0  0.33348  0.94246  0.57946  1.0000
  C   C1507     1.0  0.25408  0.67158  0.71600  1.0000
  C   C1508     1.0  0.22857  0.70326  0.52915  1.0000
  C   C1509     1.0  0.33571  0.80866  0.53859  1.0000
  C   C1510     1.0  0.36703  0.52098  0.70104  1.0000
  S   S444      1.0  0.19264  0.87379  0.64567  1.0000
  H   H2529     1.0  0.34940  0.59224  0.73839  1.0000
  C   C1511     1.0  0.34147  0.94823  0.81545  1.0000
  N   N105      1.0  0.31148  0.84935  0.87668  1.0000
  C   C1512     1.0  0.32577  0.85419  0.88415  1.0000
  C   C1513     1.0  0.31532  0.85585  0.85603  1.0000
  C   C1514     1.0  0.29260  0.85858  0.88543  1.0000
  S   S445      1.0  0.37732  0.79183  0.93638  1.0000
  C   C1515     1.0  0.31048  0.87682  0.84906  1.0000
  C   C1516     1.0  0.27612  0.85591  0.87874  1.0000
  H   H2530     1.0  0.32386  0.86935  0.88238  1.0000
  H   H2531     1.0  0.30803  0.84933  0.84928  1.0000
  H   H2532     1.0  0.30219  0.82546  0.87491  1.0000
  H   H2533     1.0  0.28982  0.85334  0.90057  1.0000
  H   H2534     1.0  0.29170  0.87356  0.88417  1.0000
  H   H2535     1.0  0.25081  0.91013  0.93579  1.0000
  C   C1517     1.0  0.35133  0.80292  0.56437  1.0000
  H   H2536     1.0  0.19385  0.94731  0.54936  1.0000
  H   H2537     1.0  0.31742  0.88441  0.85495  1.0000
  H   H2538     1.0  0.31514  0.88004  0.83386  1.0000
  H   H2539     1.0  0.29536  0.88209  0.85192  1.0000
  H   H2540     1.0  0.23514  0.71543  0.52525  1.0000
  H   H2541     1.0  0.27083  0.84357  0.88735  1.0000
  H   H2542     1.0  0.27937  0.85464  0.86416  1.0000
  H   H2543     1.0  0.26483  0.86824  0.87958  1.0000
  H   H2544     1.0  0.19108  0.93351  0.53468  1.0000
  C   C1518     1.0  0.24267  0.93007  0.67758  1.0000
  H   H2545     1.0  0.23469  0.81460  0.54833  1.0000
  S   S446      1.0  0.19221  0.89232  0.55465  1.0000
  Fe  Fe221     1.0  0.21235  0.84654  0.74157  1.0000
  H   H2546     1.0  0.30909  0.62865  0.75295  1.0000
  H   H2547     1.0  0.32328  0.64537  0.70261  1.0000
  H   H2548     1.0  0.25603  0.95540  0.89680  1.0000
  H   H2549     1.0  0.27460  0.61336  0.73543  1.0000
  C   C1519     1.0  0.24770  0.73701  0.47680  1.0000
  C   C1520     1.0  0.32256  0.84960  0.54422  1.0000
  H   H2550     1.0  0.27530  0.70265  0.62878  1.0000
  C   C1521     1.0  0.20591  0.78649  0.80276  1.0000
  H   H2551     1.0  0.35042  0.80564  0.57823  1.0000
  S   S447      1.0  0.32134  0.96658  0.64651  1.0000
  H   H2552     1.0  0.33033  0.97207  0.57201  1.0000
  H   H2553     1.0  0.35839  0.95141  0.57907  1.0000
  H   H2554     1.0  0.35521  0.95424  0.62233  1.0000
  N   N106      1.0  0.33536  0.81489  0.55588  1.0000
  C   C1522     1.0  0.32731  0.94271  0.59975  1.0000
  H   H2555     1.0  0.21708  0.73971  0.80925  1.0000
  H   H2556     1.0  0.24184  0.91805  0.81244  1.0000
  C   C1523     1.0  0.27630  0.93223  0.93340  1.0000
  H   H2557     1.0  0.25757  0.70824  0.57823  1.0000
  H   H2558     1.0  0.30803  0.82380  0.89619  1.0000
  H   H2559     1.0  0.37726  0.73025  0.47513  1.0000
  H   H2560     1.0  0.29400  0.75379  0.94305  1.0000
  N   N107      1.0  0.26213  0.67417  0.91036  1.0000
  C   C1524     1.0  0.24895  0.68773  0.92127  1.0000
  C   C1525     1.0  0.26229  0.65531  0.92254  1.0000
  C   C1526     1.0  0.25461  0.67545  0.89352  1.0000
  C   C1527     1.0  0.28082  0.67946  0.90500  1.0000
  C   C1528     1.0  0.24595  0.70807  0.91122  1.0000
  C   C1529     1.0  0.26995  0.65200  0.94020  1.0000
  C   C1530     1.0  0.26194  0.65935  0.88324  1.0000
  C   C1531     1.0  0.29744  0.66573  0.89670  1.0000
  H   H2561     1.0  0.23509  0.68391  0.92620  1.0000
  H   H2562     1.0  0.25376  0.68754  0.93382  1.0000
  H   H2563     1.0  0.27039  0.64423  0.91518  1.0000
  H   H2564     1.0  0.24806  0.65238  0.92678  1.0000
  H   H2565     1.0  0.23930  0.67680  0.89711  1.0000
  H   H2566     1.0  0.25717  0.68806  0.88315  1.0000
  H   H2567     1.0  0.28043  0.69261  0.89467  1.0000
  H   H2568     1.0  0.28448  0.68278  0.91681  1.0000
  H   H2569     1.0  0.25872  0.71366  0.90815  1.0000
  H   H2570     1.0  0.24070  0.71032  0.89842  1.0000
  H   H2571     1.0  0.23543  0.71640  0.92040  1.0000
  H   H2572     1.0  0.28394  0.65517  0.93728  1.0000
  H   H2573     1.0  0.26054  0.65980  0.95046  1.0000
  H   H2574     1.0  0.27120  0.63722  0.94693  1.0000
  H   H2575     1.0  0.25732  0.64658  0.89148  1.0000
  H   H2576     1.0  0.27709  0.65675  0.87856  1.0000
  H   H2577     1.0  0.25608  0.66295  0.87061  1.0000
  H   H2578     1.0  0.30051  0.66977  0.88143  1.0000
  H   H2579     1.0  0.29597  0.65124  0.90064  1.0000
  H   H2580     1.0  0.30983  0.66595  0.90173  1.0000
  N   N108      1.0  0.25225  0.71674  0.61560  1.0000
  H   H2581     1.0  0.22329  0.81189  0.84608  1.0000
  C   C1532     1.0  0.25027  0.78891  0.86402  1.0000
  C   C1533     1.0  0.27995  0.63568  0.75432  1.0000
  H   H2582     1.0  0.35132  0.72697  0.95967  1.0000
  C   C1534     1.0  0.23378  0.72953  0.61943  1.0000
  H   H2583     1.0  0.26466  0.69090  0.60706  1.0000
  C   C1535     1.0  0.26066  0.70982  0.63253  1.0000
  H   H2584     1.0  0.23368  0.95053  0.92288  1.0000
  H   H2585     1.0  0.25021  0.68389  0.64447  1.0000
  C   C1536     1.0  0.19296  0.90483  0.69914  1.0000
  H   H2586     1.0  0.35433  0.94279  0.80609  1.0000
  H   H2587     1.0  0.27979  0.47794  0.65602  1.0000
  H   H2588     1.0  0.23380  0.71700  0.58831  1.0000
  H   H2589     1.0  0.24655  0.58265  0.60415  1.0000
  S   S448      1.0  0.23417  0.70922  0.78898  1.0000
  C   C1537     1.0  0.24264  0.77912  0.83913  1.0000
  C   C1538     1.0  0.27459  0.91903  0.62524  1.0000
  H   H2590     1.0  0.24149  0.69217  0.61790  1.0000
  C   C1539     1.0  0.23776  0.81189  0.83850  1.0000
  H   H2591     1.0  0.37002  0.51762  0.71511  1.0000
  H   H2592     1.0  0.24048  0.82822  0.85720  1.0000
  H   H2593     1.0  0.25366  0.77372  0.86878  1.0000
  C   C1540     1.0  0.33125  0.81705  0.87442  1.0000
  H   H2594     1.0  0.24171  0.69310  0.58712  1.0000
  H   H2595     1.0  0.25998  0.73298  0.58824  1.0000
  H   H2596     1.0  0.34730  0.79171  0.49456  1.0000
  H   H2597     1.0  0.21967  0.76491  0.84610  1.0000
  H   H2598     1.0  0.25686  0.75370  0.61093  1.0000
  H   H2599     1.0  0.29943  0.93298  0.59041  1.0000
  H   H2600     1.0  0.23097  0.73917  0.60641  1.0000
  C   C1541     1.0  0.36139  0.93818  0.84576  1.0000
  H   H2601     1.0  0.27761  0.75163  0.59391  1.0000
  H   H2602     1.0  0.37251  0.93609  0.85350  1.0000
  H   H2603     1.0  0.29916  0.95735  0.56474  1.0000
  C   C1542     1.0  0.28273  0.94846  0.71649  1.0000
  C   C1543     1.0  0.24330  0.67219  0.48369  1.0000
  H   H2604     1.0  0.37484  0.78798  0.50768  1.0000
  H   H2605     1.0  0.37643  0.69062  0.80436  1.0000
  C   C1544     1.0  0.36855  0.76479  0.52892  1.0000
  H   H2606     1.0  0.29705  0.94828  0.93277  1.0000
  C   C1545     1.0  0.20074  0.58299  0.52099  1.0000
  H   H2607     1.0  0.20170  0.81155  0.57928  1.0000
  H   H2608     1.0  0.35432  0.72809  0.93548  1.0000
  C   C1546     1.0  0.21346  0.55656  0.49386  1.0000
  H   H2609     1.0  0.27136  0.92992  0.94863  1.0000
  H   H2610     1.0  0.33681  0.85110  0.90846  1.0000
  C   C1547     1.0  0.31791  0.81288  0.57015  1.0000
  H   H2611     1.0  0.36124  0.76473  0.47438  1.0000
  C   C1548     1.0  0.18527  0.94644  0.53996  1.0000
  H   H2612     1.0  0.37390  0.95406  0.82035  1.0000
  S   S449      1.0  0.19182  0.83021  0.76010  1.0000
  C   C1549     1.0  0.26476  0.93308  0.76864  1.0000
  C   C1550     1.0  0.25962  0.96440  0.93080  1.0000
  H   H2613     1.0  0.37915  0.93689  0.55392  1.0000
  C   C1551     1.0  0.22252  0.61185  0.49514  1.0000
  C   C1552     1.0  0.25063  0.89010  0.66385  1.0000
  H   H2614     1.0  0.20622  0.79989  0.55332  1.0000
  H   H2615     1.0  0.37696  0.97181  0.63729  1.0000
  H   H2616     1.0  0.38108  0.64678  0.79882  1.0000
  H   H2617     1.0  0.22163  0.64029  0.96590  1.0000
  H   H2618     1.0  0.30549  0.82159  0.56531  1.0000
  H   H2619     1.0  0.27829  0.73940  0.61688  1.0000
  N   N109      1.0  0.28717  0.50459  0.62173  1.0000
  C   C1553     1.0  0.27929  0.50692  0.64133  1.0000
  H   H2620     1.0  0.33845  0.91380  0.57801  1.0000
  C   C1554     1.0  0.30011  0.48629  0.62095  1.0000
  C   C1555     1.0  0.27145  0.50553  0.61270  1.0000
  C   C1556     1.0  0.27005  0.49135  0.65436  1.0000
  H   H2621     1.0  0.36097  0.92714  0.58286  1.0000
  H   H2622     1.0  0.21102  0.75863  0.76651  1.0000
  C   C1557     1.0  0.27684  0.50356  0.59235  1.0000
  H   H2623     1.0  0.29000  0.50882  0.64783  1.0000
  H   H2624     1.0  0.26859  0.51970  0.64168  1.0000
  H   H2625     1.0  0.22067  0.92002  0.69750  1.0000
  H   H2626     1.0  0.28406  0.76089  0.96504  1.0000
  C   C1558     1.0  0.19451  0.64875  0.72365  1.0000
  H   H2627     1.0  0.19916  0.50765  0.55674  1.0000
  H   H2628     1.0  0.26374  0.49438  0.62003  1.0000
  H   H2629     1.0  0.26069  0.51822  0.61401  1.0000
  H   H2630     1.0  0.23429  0.60473  0.48595  1.0000
  H   H2631     1.0  0.25774  0.49000  0.64999  1.0000
  H   H2632     1.0  0.32006  0.95752  0.84384  1.0000
  H   H2633     1.0  0.19044  0.92529  0.67425  1.0000
  H   H2634     1.0  0.26413  0.69607  0.52454  1.0000
  H   H2635     1.0  0.32377  0.78426  0.58555  1.0000
  H   H2636     1.0  0.36109  0.53581  0.69868  1.0000
  H   H2637     1.0  0.35823  0.74238  0.54880  1.0000
  H   H2638     1.0  0.27835  0.48900  0.59138  1.0000
  C   C1559     1.0  0.28260  0.96186  0.89350  1.0000
  H   H2639     1.0  0.32984  0.83100  0.90756  1.0000
  H   H2640     1.0  0.34264  0.61380  0.72419  1.0000
  H   H2641     1.0  0.27715  0.54050  0.59809  1.0000
  H   H2642     1.0  0.18829  0.82941  0.53758  1.0000
  H   H2643     1.0  0.33210  0.95392  0.60299  1.0000
  H   H2644     1.0  0.32329  0.64060  0.72647  1.0000
  H   H2645     1.0  0.34889  0.92151  0.61201  1.0000
  H   H2646     1.0  0.37956  0.57857  0.70848  1.0000
  H   H2647     1.0  0.19243  0.65362  0.70924  1.0000
  H   H2648     1.0  0.29578  0.69237  0.50877  1.0000
  C   C1560     1.0  0.21593  0.49372  0.47290  1.0000
  H   H2649     1.0  0.35652  0.51327  0.70093  1.0000
  S   S450      1.0  0.35013  0.82856  0.96747  1.0000
  C   C1561     1.0  0.22320  0.85233  0.53189  1.0000
  C   C1562     1.0  0.26832  0.94941  0.90326  1.0000
  H   H2650     1.0  0.22457  0.60785  0.50953  1.0000
  H   H2651     1.0  0.25090  0.70082  0.96297  1.0000
  H   H2652     1.0  0.24848  0.67058  0.46914  1.0000
  H   H2653     1.0  0.31809  0.81794  0.58252  1.0000
  H   H2654     1.0  0.31156  0.48216  0.64586  1.0000
  C   C1563     1.0  0.27597  0.93668  0.62607  1.0000
  H   H2655     1.0  0.23092  0.65715  0.75937  1.0000
  H   H2656     1.0  0.31811  0.58697  0.74918  1.0000
  C   C1564     1.0  0.38153  0.70191  0.85610  1.0000
  C   C1565     1.0  0.28603  0.53921  0.60798  1.0000
  H   H2657     1.0  0.27914  0.64347  0.76502  1.0000
  S   S451      1.0  0.20060  0.69255  0.78304  1.0000
  Fe  Fe222     1.0  0.20625  0.66995  0.80713  1.0000
  H   H2658     1.0  0.28360  0.93590  0.78498  1.0000
  Fe  Fe223     1.0  0.27040  0.95160  0.82524  1.0000
  H   H2659     1.0  0.22273  0.62676  0.49041  1.0000
  H   H2660     1.0  0.23183  0.63071  0.74568  1.0000
  H   H2661     1.0  0.29996  0.79377  0.58557  1.0000
  C   C1566     1.0  0.36396  0.94049  0.55468  1.0000
  H   H2662     1.0  0.35588  0.56541  0.70213  1.0000
  H   H2663     1.0  0.36373  0.96654  0.83806  1.0000
  H   H2664     1.0  0.30743  0.82569  0.53593  1.0000
  H   H2665     1.0  0.24969  0.79883  0.72032  1.0000
  S   S452      1.0  0.22467  0.94585  0.88732  1.0000
  H   H2666     1.0  0.19800  0.60329  0.78290  1.0000
  C   C1567     1.0  0.19951  0.91173  0.67831  1.0000
  C   C1568     1.0  0.26781  0.95200  0.61442  1.0000
  H   H2667     1.0  0.27103  0.67017  0.48628  1.0000
  H   H2668     1.0  0.33641  0.61073  0.74921  1.0000
  C   C1569     1.0  0.23134  0.89407  0.67625  1.0000
  C   C1570     1.0  0.34663  0.72242  0.94928  1.0000
  Fe  Fe224     1.0  0.20732  0.87115  0.76882  1.0000
  C   C1571     1.0  0.35428  0.94031  0.57499  1.0000
  H   H2669     1.0  0.38121  0.79366  0.55954  1.0000
  H   H2670     1.0  0.20085  0.55547  0.48986  1.0000
  H   H2671     1.0  0.31102  0.80200  0.53402  1.0000
  H   H2672     1.0  0.22657  0.85326  0.51669  1.0000
  H   H2673     1.0  0.23908  0.85198  0.55252  1.0000
  N   N110      1.0  0.21248  0.83723  0.54140  1.0000
  H   H2674     1.0  0.20381  0.63505  0.72414  1.0000
  H   H2675     1.0  0.22068  0.89682  0.64317  1.0000
  S   S453      1.0  0.18630  0.85678  0.78984  1.0000
  C   C1572     1.0  0.20350  0.97090  0.90768  1.0000
  H   H2676     1.0  0.31228  0.95902  0.81325  1.0000
  H   H2677     1.0  0.32582  0.86322  0.54315  1.0000
  Fe  Fe225     1.0  0.37312  0.81889  0.94518  1.0000
  C   C1573     1.0  0.20028  0.85623  0.69804  1.0000
  H   H2678     1.0  0.19148  0.91555  0.70710  1.0000
  S   S454      1.0  0.27207  0.95536  0.85288  1.0000
  C   C1574     1.0  0.38413  0.97295  0.58462  1.0000
  H   H2679     1.0  0.22992  0.94459  0.73383  1.0000
  H   H2680     1.0  0.29013  0.96505  0.90246  1.0000
  H   H2681     1.0  0.21965  0.73713  0.47593  1.0000
  N   N111      1.0  0.26725  0.94754  0.75115  1.0000
  H   H2682     1.0  0.32752  0.92635  0.62735  1.0000
  C   C1575     1.0  0.24892  0.95358  0.74514  1.0000
  C   C1576     1.0  0.37993  0.93917  0.60784  1.0000
  H   H2683     1.0  0.21536  0.93624  0.64947  1.0000
  Fe  Fe226     1.0  0.20534  0.83089  0.78264  1.0000
  H   H2684     1.0  0.30304  0.93489  0.91470  1.0000
  H   H2685     1.0  0.36716  0.68871  0.88211  1.0000
  H   H2686     1.0  0.34637  0.53564  0.67606  1.0000
  H   H2687     1.0  0.27396  0.93587  0.89916  1.0000
  H   H2688     1.0  0.23658  0.76523  0.71654  1.0000
  H   H2689     1.0  0.27689  0.73499  0.47391  1.0000
  H   H2690     1.0  0.19330  0.62567  0.78783  1.0000
  C   C1577     1.0  0.18677  0.59432  0.53432  1.0000
  H   H2691     1.0  0.32112  0.81801  0.51581  1.0000
  C   C1578     1.0  0.19168  0.75626  0.80204  1.0000
  H   H2692     1.0  0.36001  0.68566  0.82508  1.0000
  C   C1579     1.0  0.37247  0.52351  0.65865  1.0000
  C   C1580     1.0  0.26400  0.69184  0.96474  1.0000
  S   S455      1.0  0.19413  0.87383  0.74490  1.0000
  H   H2693     1.0  0.25284  0.93840  0.77906  1.0000
  C   C1581     1.0  0.37993  0.68808  0.87195  1.0000
  H   H2694     1.0  0.22813  0.73926  0.73338  1.0000
  Fe  Fe227     1.0  0.29484  0.96690  0.63869  1.0000
  H   H2695     1.0  0.18670  0.95771  0.52778  1.0000
  H   H2696     1.0  0.37743  0.52575  0.64342  1.0000
  H   H2697     1.0  0.32859  0.96286  0.79152  1.0000
  H   H2698     1.0  0.37080  0.55332  0.67313  1.0000
  H   H2699     1.0  0.33588  0.75695  0.96029  1.0000
  H   H2700     1.0  0.22535  0.54900  0.48515  1.0000
  H   H2701     1.0  0.34385  0.53092  0.65536  1.0000
  C   C1582     1.0  0.19371  0.82522  0.57384  1.0000
  H   H2702     1.0  0.38175  0.91347  0.95077  1.0000
  H   H2703     1.0  0.27703  0.94033  0.70992  1.0000
  C   C1583     1.0  0.18749  0.78513  0.74789  1.0000
  H   H2704     1.0  0.19394  0.49377  0.53298  1.0000
  H   H2705     1.0  0.36119  0.95435  0.54587  1.0000
  H   H2706     1.0  0.27179  0.75008  0.95538  1.0000
  H   H2707     1.0  0.22193  0.67624  0.96692  1.0000
  C   C1584     1.0  0.38503  0.51577  0.68727  1.0000
  Fe  Fe228     1.0  0.19587  0.52556  0.58895  1.0000
  H   H2708     1.0  0.18764  0.87095  0.52685  1.0000
  H   H2709     1.0  0.29160  0.72069  0.96076  1.0000
  C   C1585     1.0  0.19619  0.84063  0.53235  1.0000
  H   H2710     1.0  0.37282  0.80326  0.53879  1.0000
  C   C1586     1.0  0.23409  0.73301  0.46989  1.0000
  H   H2711     1.0  0.19223  0.59211  0.54702  1.0000
  H   H2712     1.0  0.19302  0.61888  0.50013  1.0000
  C   C1587     1.0  0.22843  0.50707  0.47209  1.0000
  H   H2713     1.0  0.38337  0.74399  0.49471  1.0000
  S   S456      1.0  0.18767  0.54498  0.56343  1.0000
  C   C1588     1.0  0.38481  0.54686  0.66669  1.0000
  C   C1589     1.0  0.26632  0.73180  0.46880  1.0000
  H   H2714     1.0  0.35905  0.97417  0.79583  1.0000
  H   H2715     1.0  0.29255  0.47485  0.62658  1.0000
  H   H2716     1.0  0.49239  0.34300  0.45125  1.0000
  H   H2717     1.0  0.39178  0.03864  0.12678  1.0000
  H   H2718     1.0  0.39609  0.16110  0.35179  1.0000
  N   N112      1.0  0.58304  0.42206  0.40924  1.0000
  H   H2719     1.0  0.53411  0.05648  0.41735  1.0000
  H   H2720     1.0  0.38697  0.44984  0.17489  1.0000
  H   H2721     1.0  0.45690  0.45519  0.96977  1.0000
  H   H2722     1.0  0.52691  0.36796  0.35356  1.0000
  C   C1590     1.0  0.39294  0.44175  0.09438  1.0000
  S   S457      1.0  0.52957  0.39404  0.43627  1.0000
  S   S458      1.0  0.56063  0.42863  0.15814  1.0000
  Fe  Fe229     1.0  0.39921  0.35176  0.44005  1.0000
  Fe  Fe230     1.0  0.48925  0.41651  0.07350  1.0000
  S   S459      1.0  0.46850  0.44201  0.06553  1.0000
  S   S460      1.0  0.49876  0.41227  0.10017  1.0000
  Fe  Fe231     1.0  0.48673  0.39976  0.04221  1.0000
  S   S461      1.0  0.46573  0.42380  0.03192  1.0000
  S   S462      1.0  0.49739  0.37538  0.02831  1.0000
  Fe  Fe232     1.0  0.48374  0.44067  0.03650  1.0000
  H   H2723     1.0  0.46281  0.46757  0.23669  1.0000
  Fe  Fe233     1.0  0.45258  0.42278  0.06178  1.0000
  S   S463      1.0  0.50589  0.41670  0.04478  1.0000
  S   S464      1.0  0.47223  0.39724  0.07171  1.0000
  Fe  Fe234     1.0  0.49462  0.12435  0.32940  1.0000
  S   S465      1.0  0.50101  0.14433  0.30262  1.0000
  S   S466      1.0  0.51378  0.09655  0.33206  1.0000
  Fe  Fe235     1.0  0.46138  0.15131  0.34473  1.0000
  S   S467      1.0  0.46515  0.17317  0.31937  1.0000
  S   S468      1.0  0.43918  0.15573  0.36999  1.0000
  Fe  Fe236     1.0  0.47050  0.15053  0.30387  1.0000
  S   S469      1.0  0.45833  0.15770  0.27831  1.0000
  Fe  Fe237     1.0  0.49523  0.16516  0.32032  1.0000
  S   S470      1.0  0.46434  0.12897  0.32928  1.0000
  S   S471      1.0  0.49122  0.14480  0.34702  1.0000
  Fe  Fe238     1.0  0.43592  0.32826  0.99718  1.0000
  S   S472      1.0  0.45746  0.30236  0.00000  1.0000
  S   S473      1.0  0.44045  0.35735  0.99132  1.0000
  S   S474      1.0  0.42326  0.27990  0.00832  1.0000
  Fe  Fe239     1.0  0.43666  0.29183  0.02436  1.0000
  S   S475      1.0  0.44336  0.27847  0.05234  1.0000
  C   C1591     1.0  0.58353  0.06311  0.38890  1.0000
  Fe  Fe240     1.0  0.42785  0.09977  0.22583  1.0000
  S   S476      1.0  0.44710  0.08062  0.20824  1.0000
  S   S477      1.0  0.43291  0.09618  0.25444  1.0000
  Fe  Fe241     1.0  0.40290  0.11563  0.19795  1.0000
  S   S478      1.0  0.42025  0.09798  0.17822  1.0000
  Fe  Fe242     1.0  0.42145  0.07534  0.20315  1.0000
  S   S479      1.0  0.41497  0.04763  0.20524  1.0000
  Fe  Fe243     1.0  0.44425  0.10510  0.18494  1.0000
  S   S480      1.0  0.46871  0.11000  0.16188  1.0000
  S   S481      1.0  0.40224  0.09255  0.22254  1.0000
  S   S482      1.0  0.42685  0.12476  0.20288  1.0000
  Fe  Fe244     1.0  0.55621  0.17402  0.09444  1.0000
  S   S483      1.0  0.52626  0.17637  0.09470  1.0000
  H   H2724     1.0  0.50740  0.44789  0.38616  1.0000
  Fe  Fe245     1.0  0.55038  0.21192  0.10284  1.0000
  S   S484      1.0  0.51988  0.21797  0.10361  1.0000
  S   S485      1.0  0.51347  0.47018  0.35005  1.0000
  Fe  Fe246     1.0  0.52080  0.18888  0.11958  1.0000
  S   S486      1.0  0.49809  0.18408  0.14462  1.0000
  Fe  Fe247     1.0  0.52738  0.20518  0.07878  1.0000
  S   S487      1.0  0.51534  0.21593  0.05316  1.0000
  S   S488      1.0  0.55071  0.18390  0.12091  1.0000
  S   S489      1.0  0.55789  0.20168  0.07641  1.0000
  H   H2725     1.0  0.40633  0.18622  0.31530  1.0000
  H   H2726     1.0  0.38561  0.41966  0.05136  1.0000
  H   H2727     1.0  0.48596  0.31174  0.40175  1.0000
  C   C1592     1.0  0.49283  0.29869  0.03567  1.0000
  C   C1593     1.0  0.40087  0.04432  0.13225  1.0000
  H   H2728     1.0  0.45972  0.29652  0.45086  1.0000
  C   C1594     1.0  0.45738  0.30623  0.09250  1.0000
  C   C1595     1.0  0.51107  0.40227  0.98249  1.0000
  H   H2729     1.0  0.58220  0.15746  0.13981  1.0000
  H   H2730     1.0  0.46121  0.99661  0.25234  1.0000
  H   H2731     1.0  0.41898  0.11090  0.36054  1.0000
  S   S490      1.0  0.52015  0.98213  0.40690  1.0000
  N   N113      1.0  0.48261  0.31083  0.44096  1.0000
  C   C1596     1.0  0.47523  0.32259  0.45530  1.0000
  H   H2732     1.0  0.56807  0.09809  0.37298  1.0000
  H   H2733     1.0  0.58102  0.02584  0.37370  1.0000
  S   S491      1.0  0.52041  0.36220  0.41939  1.0000
  H   H2734     1.0  0.48196  0.37740  0.41961  1.0000
  Fe  Fe248     1.0  0.54221  0.37912  0.41294  1.0000
  S   S492      1.0  0.55448  0.39139  0.38389  1.0000
  S   S493      1.0  0.56163  0.35740  0.42830  1.0000
  H   H2735     1.0  0.54733  0.45776  0.05938  1.0000
  H   H2736     1.0  0.51021  0.29769  0.44581  1.0000
  H   H2737     1.0  0.53607  0.44449  0.02968  1.0000
  H   H2738     1.0  0.42507  0.15727  0.33092  1.0000
  H   H2739     1.0  0.42725  0.06839  0.12560  1.0000
  H   H2740     1.0  0.48880  0.28615  0.04512  1.0000
  H   H2741     1.0  0.45994  0.36881  0.40572  1.0000
  H   H2742     1.0  0.45682  0.32840  0.41713  1.0000
  C   C1597     1.0  0.54347  0.41359  0.37488  1.0000
  C   C1598     1.0  0.55007  0.42188  0.35669  1.0000
  C   C1599     1.0  0.54111  0.43940  0.34900  1.0000
  C   C1600     1.0  0.41838  0.15636  0.31996  1.0000
  C   C1601     1.0  0.51935  0.44064  0.37794  1.0000
  C   C1602     1.0  0.52819  0.42303  0.38557  1.0000
  H   H2743     1.0  0.56193  0.41460  0.34840  1.0000
  H   H2744     1.0  0.43039  0.08313  0.13927  1.0000
  H   H2745     1.0  0.56681  0.33537  0.11769  1.0000
  H   H2746     1.0  0.52306  0.41675  0.39963  1.0000
  Fe  Fe249     1.0  0.40447  0.30763  0.00461  1.0000
  H   H2747     1.0  0.45429  0.44472  0.99388  1.0000
  H   H2748     1.0  0.57044  0.22475  0.26006  1.0000
  H   H2749     1.0  0.39428  0.03513  0.17724  1.0000
  C   C1603     1.0  0.53418  0.20983  0.34289  1.0000
  C   C1604     1.0  0.54801  0.28196  0.39917  1.0000
  H   H2750     1.0  0.55580  0.09370  0.35746  1.0000
  H   H2751     1.0  0.46477  0.37617  0.36876  1.0000
  H   H2752     1.0  0.47829  0.36127  0.35373  1.0000
  H   H2753     1.0  0.41419  0.06730  0.16743  1.0000
  H   H2754     1.0  0.41652  0.04779  0.15854  1.0000
  H   H2755     1.0  0.57596  0.27938  0.27410  1.0000
  C   C1605     1.0  0.39244  0.45759  0.14463  1.0000
  H   H2756     1.0  0.40392  0.13124  0.36665  1.0000
  H   H2757     1.0  0.56637  0.19507  0.25903  1.0000
  H   H2758     1.0  0.49786  0.17127  0.39248  1.0000
  C   C1606     1.0  0.47658  0.13075  0.15715  1.0000
  C   C1607     1.0  0.46686  0.14519  0.16603  1.0000
  C   C1608     1.0  0.47373  0.16143  0.16228  1.0000
  C   C1609     1.0  0.49018  0.16340  0.14942  1.0000
  C   C1610     1.0  0.49975  0.14910  0.14031  1.0000
  C   C1611     1.0  0.49296  0.13280  0.14420  1.0000
  H   H2759     1.0  0.45410  0.14384  0.17583  1.0000
  H   H2760     1.0  0.46617  0.17257  0.16919  1.0000
  H   H2761     1.0  0.51248  0.15048  0.13042  1.0000
  H   H2762     1.0  0.50052  0.12168  0.13726  1.0000
  C   C1612     1.0  0.46344  0.26121  0.05242  1.0000
  C   C1613     1.0  0.47291  0.25479  0.03640  1.0000
  C   C1614     1.0  0.48893  0.24101  0.03676  1.0000
  C   C1615     1.0  0.49572  0.23379  0.05304  1.0000
  C   C1616     1.0  0.48639  0.24044  0.06899  1.0000
  C   C1617     1.0  0.47016  0.25396  0.06874  1.0000
  H   H2763     1.0  0.46781  0.26031  0.02375  1.0000
  H   H2764     1.0  0.49609  0.23589  0.02439  1.0000
  H   H2765     1.0  0.49161  0.23506  0.08153  1.0000
  H   H2766     1.0  0.46285  0.25885  0.08119  1.0000
  H   H2767     1.0  0.52877  0.41604  0.32807  1.0000
  H   H2768     1.0  0.54542  0.44068  0.46436  1.0000
  S   S494      1.0  0.56666  0.24279  0.34088  1.0000
  C   C1618     1.0  0.49790  0.31340  0.40652  1.0000
  Fe  Fe250     1.0  0.54571  0.97674  0.38516  1.0000
  C   C1619     1.0  0.56788  0.35033  0.13854  1.0000
  C   C1620     1.0  0.57804  0.40361  0.41865  1.0000
  H   H2769     1.0  0.40138  0.20910  0.33674  1.0000
  C   C1621     1.0  0.54909  0.43972  0.41620  1.0000
  H   H2770     1.0  0.52194  0.39564  0.32764  1.0000
  C   C1622     1.0  0.43033  0.03293  0.19146  1.0000
  C   C1623     1.0  0.44631  0.03797  0.17970  1.0000
  H   H2771     1.0  0.43394  0.99157  0.18066  1.0000
  H   H2772     1.0  0.44970  0.05098  0.17932  1.0000
  C   C1624     1.0  0.41929  0.17300  0.36766  1.0000
  C   C1625     1.0  0.40417  0.17380  0.38252  1.0000
  C   C1626     1.0  0.54834  0.31343  0.38319  1.0000
  H   H2773     1.0  0.42899  0.14717  0.31164  1.0000
  C   C1627     1.0  0.40212  0.19922  0.34954  1.0000
  C   C1628     1.0  0.41826  0.18586  0.35122  1.0000
  H   H2774     1.0  0.40490  0.16391  0.39531  1.0000
  H   H2775     1.0  0.46940  0.00037  0.20084  1.0000
  H   H2776     1.0  0.53327  0.39010  0.14548  1.0000
  H   H2777     1.0  0.42985  0.18560  0.33979  1.0000
  C   C1629     1.0  0.45074  0.14063  0.27223  1.0000
  C   C1630     1.0  0.44248  0.14522  0.25682  1.0000
  C   C1631     1.0  0.43681  0.13172  0.25128  1.0000
  C   C1632     1.0  0.43931  0.11360  0.26120  1.0000
  C   C1633     1.0  0.44711  0.10915  0.27689  1.0000
  C   C1634     1.0  0.45290  0.12260  0.28236  1.0000
  H   H2778     1.0  0.44056  0.15923  0.24909  1.0000
  H   H2779     1.0  0.43052  0.13530  0.23935  1.0000
  H   H2780     1.0  0.44899  0.09514  0.28465  1.0000
  H   H2781     1.0  0.45928  0.11894  0.29423  1.0000
  N   N114      1.0  0.56587  0.06028  0.38558  1.0000
  C   C1635     1.0  0.41372  0.25562  0.97531  1.0000
  C   C1636     1.0  0.54494  0.30553  0.41644  1.0000
  C   C1637     1.0  0.40694  0.12868  0.33775  1.0000
  H   H2782     1.0  0.53508  0.39592  0.34444  1.0000
  C   C1638     1.0  0.44641  0.37445  0.45650  1.0000
  S   S495      1.0  0.55010  0.19711  0.37329  1.0000
  C   C1639     1.0  0.41447  0.12586  0.35538  1.0000
  C   C1640     1.0  0.58370  0.22847  0.15845  1.0000
  H   H2783     1.0  0.56034  0.21820  0.31127  1.0000
  C   C1641     1.0  0.50648  0.46271  0.99590  1.0000
  N   N115      1.0  0.39384  0.07002  0.15129  1.0000
  C   C1642     1.0  0.51847  0.44569  0.99548  1.0000
  H   H2784     1.0  0.51781  0.43479  0.00754  1.0000
  C   C1643     1.0  0.48129  0.37000  0.01863  1.0000
  C   C1644     1.0  0.48712  0.35659  0.00775  1.0000
  C   C1645     1.0  0.47445  0.35203  0.99997  1.0000
  C   C1646     1.0  0.45597  0.36114  0.00278  1.0000
  C   C1647     1.0  0.45019  0.37466  0.01351  1.0000
  C   C1648     1.0  0.46275  0.37887  0.02167  1.0000
  H   H2785     1.0  0.50148  0.34974  0.00529  1.0000
  H   H2786     1.0  0.48039  0.00369  0.23574  1.0000
  H   H2787     1.0  0.43593  0.38184  0.01559  1.0000
  H   H2788     1.0  0.45804  0.38899  0.03029  1.0000
  H   H2789     1.0  0.57431  0.34179  0.23688  1.0000
  C   C1649     1.0  0.45344  0.00939  0.16852  1.0000
  S   S496      1.0  0.55337  0.28850  0.36138  1.0000
  H   H2790     1.0  0.48565  0.36064  0.37431  1.0000
  H   H2791     1.0  0.46544  0.30622  0.10272  1.0000
  C   C1650     1.0  0.56736  0.44914  0.21439  1.0000
  C   C1651     1.0  0.56801  0.44647  0.23306  1.0000
  H   H2792     1.0  0.57822  0.07642  0.98548  1.0000
  H   H2793     1.0  0.49183  0.32042  0.08553  1.0000
  C   C1652     1.0  0.43754  0.00437  0.18041  1.0000
  C   C1653     1.0  0.44948  0.98109  0.22968  1.0000
  C   C1654     1.0  0.58242  0.07048  0.40621  1.0000
  H   H2794     1.0  0.47357  0.40678  0.98974  1.0000
  H   H2795     1.0  0.48763  0.34501  0.08233  1.0000
  C   C1655     1.0  0.51274  0.46306  0.05687  1.0000
  S   S497      1.0  0.55892  0.47031  0.18159  1.0000
  S   S498      1.0  0.55325  0.00394  0.38224  1.0000
  N   N116      1.0  0.47315  0.31907  0.05887  1.0000
  H   H2796     1.0  0.58263  0.22355  0.30401  1.0000
  H   H2797     1.0  0.56921  0.05565  0.99039  1.0000
  C   C1656     1.0  0.42893  0.06905  0.13933  1.0000
  C   C1657     1.0  0.56042  0.46657  0.20486  1.0000
  C   C1658     1.0  0.58164  0.19615  0.31986  1.0000
  H   H2798     1.0  0.44033  0.98383  0.24296  1.0000
  C   C1659     1.0  0.55077  0.43053  0.10208  1.0000
  C   C1660     1.0  0.54909  0.42635  0.08584  1.0000
  C   C1661     1.0  0.53317  0.42075  0.08504  1.0000
  C   C1662     1.0  0.51889  0.41926  0.10053  1.0000
  C   C1663     1.0  0.52078  0.42298  0.11689  1.0000
  C   C1664     1.0  0.53662  0.42872  0.11765  1.0000
  H   H2799     1.0  0.56025  0.42725  0.07392  1.0000
  H   H2800     1.0  0.53205  0.41730  0.07257  1.0000
  H   H2801     1.0  0.50982  0.42167  0.12897  1.0000
  H   H2802     1.0  0.53778  0.43193  0.13021  1.0000
  C   C1665     1.0  0.50043  0.07088  0.38568  1.0000
  C   C1666     1.0  0.50105  0.08444  0.36936  1.0000
  H   H2803     1.0  0.49233  0.07441  0.39853  1.0000
  H   H2804     1.0  0.49344  0.09833  0.36966  1.0000
  Fe  Fe251     1.0  0.57415  0.44797  0.16555  1.0000
  N   N117      1.0  0.49269  0.13299  0.22064  1.0000
  C   C1667     1.0  0.49233  0.12042  0.23936  1.0000
  C   C1668     1.0  0.47896  0.12861  0.21207  1.0000
  C   C1669     1.0  0.48696  0.15265  0.22337  1.0000
  C   C1670     1.0  0.51214  0.12945  0.20960  1.0000
  C   C1671     1.0  0.50271  0.12476  0.25218  1.0000
  C   C1672     1.0  0.48299  0.10891  0.20861  1.0000
  C   C1673     1.0  0.47900  0.16733  0.20796  1.0000
  C   C1674     1.0  0.51548  0.13904  0.18911  1.0000
  H   H2805     1.0  0.47786  0.12047  0.24702  1.0000
  H   H2806     1.0  0.49827  0.10587  0.23809  1.0000
  H   H2807     1.0  0.47755  0.13790  0.19872  1.0000
  H   H2808     1.0  0.46488  0.13102  0.22080  1.0000
  H   H2809     1.0  0.47605  0.15372  0.23603  1.0000
  H   H2810     1.0  0.49873  0.15733  0.22572  1.0000
  H   H2811     1.0  0.52166  0.13386  0.21573  1.0000
  H   H2812     1.0  0.51783  0.11447  0.21041  1.0000
  H   H2813     1.0  0.51760  0.12410  0.24615  1.0000
  H   H2814     1.0  0.49643  0.13827  0.25613  1.0000
  H   H2815     1.0  0.50167  0.11429  0.26521  1.0000
  H   H2816     1.0  0.47260  0.10789  0.20124  1.0000
  H   H2817     1.0  0.49671  0.10546  0.19966  1.0000
  H   H2818     1.0  0.48159  0.09853  0.22164  1.0000
  H   H2819     1.0  0.46502  0.16577  0.20755  1.0000
  H   H2820     1.0  0.48801  0.16730  0.19420  1.0000
  H   H2821     1.0  0.47733  0.18117  0.21096  1.0000
  H   H2822     1.0  0.51827  0.15300  0.18733  1.0000
  H   H2823     1.0  0.50418  0.13991  0.18216  1.0000
  H   H2824     1.0  0.52766  0.13075  0.18140  1.0000
  H   H2825     1.0  0.54563  0.03466  0.42761  1.0000
  C   C1675     1.0  0.51034  0.05281  0.38542  1.0000
  C   C1676     1.0  0.55921  0.04423  0.39946  1.0000
  H   H2826     1.0  0.53836  0.16627  0.36831  1.0000
  C   C1677     1.0  0.58256  0.14411  0.06776  1.0000
  C   C1678     1.0  0.39106  0.14866  0.31364  1.0000
  H   H2827     1.0  0.42672  0.13210  0.35276  1.0000
  H   H2828     1.0  0.57039  0.44767  0.39319  1.0000
  H   H2829     1.0  0.55449  0.34888  0.14795  1.0000
  H   H2830     1.0  0.50733  0.97993  0.46011  1.0000
  H   H2831     1.0  0.57904  0.00619  0.43344  1.0000
  H   H2832     1.0  0.44657  0.31882  0.09135  1.0000
  C   C1679     1.0  0.52565  0.44876  0.35958  1.0000
  S   S499      1.0  0.46814  0.99482  0.15414  1.0000
  C   C1680     1.0  0.56354  0.38355  0.13711  1.0000
  C   C1681     1.0  0.54561  0.38499  0.15183  1.0000
  C   C1682     1.0  0.56667  0.43454  0.40182  1.0000
  C   C1683     1.0  0.57086  0.22668  0.27381  1.0000
  H   H2833     1.0  0.40397  0.03435  0.14479  1.0000
  H   H2834     1.0  0.57844  0.39333  0.09225  1.0000
  C   C1684     1.0  0.40263  0.13962  0.29741  1.0000
  C   C1685     1.0  0.58436  0.24215  0.12614  1.0000
  C   C1686     1.0  0.52148  0.06191  0.35252  1.0000
  C   C1687     1.0  0.55066  0.07718  0.38567  1.0000
  C   C1688     1.0  0.42650  0.46288  0.11735  1.0000
  H   H2835     1.0  0.46461  0.46481  0.98446  1.0000
  H   H2836     1.0  0.40138  0.09637  0.13707  1.0000
  C   C1689     1.0  0.58174  0.06115  0.98860  1.0000
  C   C1690     1.0  0.39126  0.06411  0.13490  1.0000
  H   H2837     1.0  0.50993  0.41795  0.35834  1.0000
  H   H2838     1.0  0.55455  0.98650  0.08638  1.0000
  H   H2839     1.0  0.41347  0.14727  0.28908  1.0000
  C   C1691     1.0  0.45781  0.02622  0.16818  1.0000
  H   H2840     1.0  0.54260  0.41005  0.46128  1.0000
  C   C1692     1.0  0.50854  0.46605  0.23709  1.0000
  H   H2841     1.0  0.58304  0.30725  0.41036  1.0000
  Fe  Fe252     1.0  0.52919  0.00842  0.40542  1.0000
  C   C1693     1.0  0.48973  0.32997  0.46078  1.0000
  Fe  Fe253     1.0  0.54736  0.37096  0.45232  1.0000
  H   H2842     1.0  0.48543  0.43220  0.99260  1.0000
  C   C1694     1.0  0.56166  0.46116  0.24234  1.0000
  N   N118      1.0  0.56719  0.36897  0.12587  1.0000
  C   C1695     1.0  0.54097  0.47262  0.05715  1.0000
  H   H2843     1.0  0.52186  0.46685  0.22712  1.0000
  H   H2844     1.0  0.38547  0.45673  0.13381  1.0000
  C   C1696     1.0  0.55318  0.37313  0.11379  1.0000
  H   H2845     1.0  0.56923  0.40005  0.41102  1.0000
  H   H2846     1.0  0.54600  0.08097  0.39936  1.0000
  H   H2847     1.0  0.42207  0.45071  0.11576  1.0000
  C   C1697     1.0  0.53474  0.36649  0.12249  1.0000
  H   H2848     1.0  0.54850  0.26783  0.39899  1.0000
  H   H2849     1.0  0.41050  0.17616  0.29526  1.0000
  N   N119      1.0  0.57628  0.20863  0.28652  1.0000
  C   C1698     1.0  0.39024  0.09081  0.14779  1.0000
  H   H2850     1.0  0.41803  0.12101  0.32834  1.0000
  H   H2851     1.0  0.54597  0.44553  0.33480  1.0000
  H   H2852     1.0  0.54975  0.38817  0.10829  1.0000
  H   H2853     1.0  0.55922  0.36669  0.10152  1.0000
  C   C1699     1.0  0.49178  0.32225  0.42363  1.0000
  C   C1700     1.0  0.47919  0.36992  0.36302  1.0000
  C   C1701     1.0  0.46525  0.21110  0.11191  1.0000
  C   C1702     1.0  0.55517  0.09470  0.37181  1.0000
  H   H2854     1.0  0.42022  0.24602  0.98648  1.0000
  H   H2855     1.0  0.52144  0.21943  0.31919  1.0000
  C   C1703     1.0  0.46680  0.30429  0.43779  1.0000
  H   H2856     1.0  0.53811  0.07434  0.38285  1.0000
  H   H2857     1.0  0.45988  0.02400  0.21506  1.0000
  H   H2858     1.0  0.52349  0.37661  0.11652  1.0000
  C   C1704     1.0  0.56991  0.05574  0.36669  1.0000
  H   H2859     1.0  0.53507  0.35338  0.11861  1.0000
  N   N120      1.0  0.49641  0.39496  0.36311  1.0000
  C   C1705     1.0  0.47906  0.40435  0.37445  1.0000
  C   C1706     1.0  0.49040  0.38478  0.35186  1.0000
  C   C1707     1.0  0.50595  0.40983  0.35038  1.0000
  C   C1708     1.0  0.50849  0.38243  0.37594  1.0000
  C   C1709     1.0  0.48173  0.41683  0.38618  1.0000
  C   C1710     1.0  0.57808  0.02170  0.98373  1.0000
  H   H2860     1.0  0.56232  0.42811  0.39254  1.0000
  H   H2861     1.0  0.57658  0.34201  0.19346  1.0000
  H   H2862     1.0  0.46929  0.41290  0.36550  1.0000
  H   H2863     1.0  0.47150  0.39409  0.38437  1.0000
  Fe  Fe254     1.0  0.53880  0.34169  0.43670  1.0000
  H   H2864     1.0  0.43552  0.46760  0.10398  1.0000
  H   H2865     1.0  0.49636  0.41983  0.34202  1.0000
  H   H2866     1.0  0.50031  0.97924  0.24565  1.0000
  H   H2867     1.0  0.51598  0.39055  0.38066  1.0000
  H   H2868     1.0  0.49972  0.37589  0.38863  1.0000
  H   H2869     1.0  0.46842  0.42074  0.39567  1.0000
  H   H2870     1.0  0.49203  0.40981  0.39491  1.0000
  H   H2871     1.0  0.48544  0.42987  0.37753  1.0000
  H   H2872     1.0  0.45005  0.29457  0.09859  1.0000
  H   H2873     1.0  0.53716  0.22303  0.34238  1.0000
  H   H2874     1.0  0.52389  0.44745  0.25708  1.0000
  H   H2875     1.0  0.42914  0.18011  0.30276  1.0000
  H   H2876     1.0  0.55705  0.05427  0.36329  1.0000
  H   H2877     1.0  0.42377  0.46107  0.05910  1.0000
  S   S500      1.0  0.54301  0.31144  0.43764  1.0000
  S   S501      1.0  0.40269  0.32462  0.45965  1.0000
  C   C1711     1.0  0.46674  0.00014  0.23723  1.0000
  H   H2878     1.0  0.50892  0.40945  0.99395  1.0000
  S   S502      1.0  0.42335  0.36224  0.41995  1.0000
  C   C1712     1.0  0.45813  0.32419  0.04786  1.0000
  C   C1713     1.0  0.43829  0.33052  0.05802  1.0000
  H   H2879     1.0  0.54909  0.45614  0.00943  1.0000
  H   H2880     1.0  0.46118  0.33533  0.03578  1.0000
  H   H2881     1.0  0.45748  0.31242  0.04220  1.0000
  H   H2882     1.0  0.50202  0.46412  0.04895  1.0000
  H   H2883     1.0  0.44358  0.32779  0.44045  1.0000
  H   H2884     1.0  0.42917  0.33530  0.04781  1.0000
  H   H2885     1.0  0.43679  0.34233  0.06450  1.0000
  H   H2886     1.0  0.43303  0.31888  0.06813  1.0000
  H   H2887     1.0  0.57964  0.27874  0.43238  1.0000
  H   H2888     1.0  0.57192  0.43761  0.20751  1.0000
  H   H2889     1.0  0.51291  0.46135  0.08610  1.0000
  H   H2890     1.0  0.54550  0.39535  0.15972  1.0000
  H   H2891     1.0  0.49413  0.45398  0.08235  1.0000
  N   N121      1.0  0.46868  0.98403  0.22838  1.0000
  H   H2892     1.0  0.49080  0.99452  0.20723  1.0000
  H   H2893     1.0  0.58150  0.23516  0.27099  1.0000
  C   C1714     1.0  0.49131  0.28338  0.46693  1.0000
  H   H2894     1.0  0.56938  0.08000  0.41027  1.0000
  H   H2895     1.0  0.46121  0.34029  0.07532  1.0000
  C   C1715     1.0  0.38863  0.15974  0.34164  1.0000
  S   S503      1.0  0.54613  0.99621  0.42738  1.0000
  C   C1716     1.0  0.57131  0.21790  0.15788  1.0000
  H   H2896     1.0  0.50293  0.30946  0.05345  1.0000
  H   H2897     1.0  0.39531  0.12122  0.34137  1.0000
  C   C1717     1.0  0.52387  0.40360  0.33698  1.0000
  H   H2898     1.0  0.46375  0.38917  0.97231  1.0000
  H   H2899     1.0  0.55005  0.03862  0.39394  1.0000
  C   C1718     1.0  0.54957  0.29499  0.38269  1.0000
  H   H2900     1.0  0.50437  0.32558  0.42583  1.0000
  H   H2901     1.0  0.50221  0.37795  0.34257  1.0000
  H   H2902     1.0  0.50742  0.29467  0.02867  1.0000
  C   C1719     1.0  0.47269  0.41292  0.97510  1.0000
  C   C1720     1.0  0.46352  0.45153  0.98182  1.0000
  H   H2903     1.0  0.51937  0.47081  0.25924  1.0000
  C   C1721     1.0  0.46739  0.46714  0.24944  1.0000
  C   C1722     1.0  0.41177  0.46011  0.07013  1.0000
  C   C1723     1.0  0.43877  0.36782  0.43027  1.0000
  H   H2904     1.0  0.51839  0.35311  0.37475  1.0000
  C   C1724     1.0  0.41558  0.17579  0.30769  1.0000
  H   H2905     1.0  0.53733  0.44605  0.40907  1.0000
  C   C1725     1.0  0.57225  0.23132  0.12549  1.0000
  S   S504      1.0  0.58119  0.37945  0.18215  1.0000
  H   H2906     1.0  0.57538  0.18415  0.32122  1.0000
  C   C1726     1.0  0.52580  0.17581  0.34446  1.0000
  H   H2907     1.0  0.55662  0.45181  0.03063  1.0000
  C   C1727     1.0  0.53905  0.19484  0.35670  1.0000
  H   H2908     1.0  0.55344  0.24591  0.29117  1.0000
  C   C1728     1.0  0.56553  0.21938  0.14147  1.0000
  C   C1729     1.0  0.56403  0.19516  0.28857  1.0000
  C   C1730     1.0  0.49665  0.29412  0.44709  1.0000
  H   H2909     1.0  0.52060  0.44872  0.05752  1.0000
  H   H2910     1.0  0.44145  0.31280  0.42715  1.0000
  H   H2911     1.0  0.39673  0.07338  0.12200  1.0000
  H   H2912     1.0  0.50331  0.33412  0.06491  1.0000
  C   C1731     1.0  0.42602  0.01611  0.19184  1.0000
  C   C1732     1.0  0.53466  0.17788  0.35759  1.0000
  H   H2913     1.0  0.50749  0.29997  0.40893  1.0000
  Fe  Fe255     1.0  0.50939  0.37501  0.44426  1.0000
  H   H2914     1.0  0.39061  0.42842  0.10235  1.0000
  H   H2915     1.0  0.40905  0.12503  0.30193  1.0000
  H   H2916     1.0  0.54377  0.10650  0.37471  1.0000
  H   H2917     1.0  0.54880  0.18417  0.27479  1.0000
  C   C1733     1.0  0.38796  0.18718  0.38083  1.0000
  C   C1734     1.0  0.45618  0.37044  0.41986  1.0000
  H   H2918     1.0  0.49462  0.32641  0.03534  1.0000
  H   H2919     1.0  0.40478  0.44623  0.14443  1.0000
  H   H2920     1.0  0.54115  0.23050  0.28691  1.0000
  H   H2921     1.0  0.45469  0.46837  0.26040  1.0000
  H   H2922     1.0  0.50391  0.45443  0.23450  1.0000
  C   C1735     1.0  0.49018  0.33340  0.07517  1.0000
  S   S505      1.0  0.56256  0.45714  0.26581  1.0000
  S   S506      1.0  0.48948  0.46633  0.01567  1.0000
  Fe  Fe256     1.0  0.57825  0.43484  0.12993  1.0000
  C   C1736     1.0  0.55586  0.19597  0.27181  1.0000
  H   H2923     1.0  0.41363  0.01220  0.20090  1.0000
  S   S507      1.0  0.41615  0.31856  0.02277  1.0000
  C   C1737     1.0  0.47044  0.30257  0.07419  1.0000
  H   H2924     1.0  0.58076  0.02458  0.99620  1.0000
  H   H2925     1.0  0.47014  0.03016  0.15902  1.0000
  H   H2926     1.0  0.44222  0.05982  0.14174  1.0000
  C   C1738     1.0  0.49133  0.31413  0.04593  1.0000
  H   H2927     1.0  0.49330  0.44833  0.97358  1.0000
  H   H2928     1.0  0.38915  0.40625  0.39897  1.0000
  C   C1739     1.0  0.45423  0.01826  0.22961  1.0000
  C   C1740     1.0  0.46381  0.37715  0.44607  1.0000
  H   H2929     1.0  0.52793  0.03446  0.36821  1.0000
  H   H2930     1.0  0.47186  0.29435  0.42838  1.0000
  H   H2931     1.0  0.44292  0.99104  0.21873  1.0000
  C   C1741     1.0  0.51170  0.07997  0.35274  1.0000
  H   H2932     1.0  0.46530  0.33507  0.45029  1.0000
  N   N122      1.0  0.46608  0.18288  0.09882  1.0000
  C   C1742     1.0  0.45624  0.17437  0.11760  1.0000
  C   C1743     1.0  0.47679  0.19562  0.10181  1.0000
  C   C1744     1.0  0.47948  0.16750  0.09062  1.0000
  C   C1745     1.0  0.45190  0.19266  0.08715  1.0000
  C   C1746     1.0  0.44626  0.15891  0.11835  1.0000
  C   C1747     1.0  0.49113  0.17288  0.07128  1.0000
  C   C1748     1.0  0.45739  0.20818  0.07074  1.0000
  H   H2933     1.0  0.46610  0.16852  0.12703  1.0000
  H   H2934     1.0  0.44558  0.18494  0.12411  1.0000
  H   H2935     1.0  0.48488  0.20223  0.08881  1.0000
  H   H2936     1.0  0.48735  0.18766  0.11003  1.0000
  H   H2937     1.0  0.48923  0.15987  0.09994  1.0000
  H   H2938     1.0  0.47215  0.15724  0.08922  1.0000
  H   H2939     1.0  0.44762  0.18260  0.08161  1.0000
  H   H2940     1.0  0.43913  0.19924  0.09581  1.0000
  H   H2941     1.0  0.45623  0.14586  0.11664  1.0000
  H   H2942     1.0  0.43736  0.15596  0.13224  1.0000
  H   H2943     1.0  0.43724  0.16276  0.10813  1.0000
  H   H2944     1.0  0.48249  0.17758  0.06068  1.0000
  H   H2945     1.0  0.50133  0.16052  0.06770  1.0000
  H   H2946     1.0  0.49924  0.18328  0.07041  1.0000
  H   H2947     1.0  0.45115  0.20811  0.05914  1.0000
  H   H2948     1.0  0.47234  0.20713  0.06518  1.0000
  H   H2949     1.0  0.45141  0.22191  0.07433  1.0000
  C   C1749     1.0  0.52299  0.36639  0.36866  1.0000
  Fe  Fe257     1.0  0.56884  0.25933  0.36052  1.0000
  H   H2950     1.0  0.54777  0.24943  0.26916  1.0000
  H   H2951     1.0  0.45818  0.42065  0.97570  1.0000
  S   S508      1.0  0.57057  0.43818  0.10239  1.0000
  C   C1750     1.0  0.57527  0.15689  0.05352  1.0000
  H   H2952     1.0  0.41378  0.04452  0.12159  1.0000
  C   C1751     1.0  0.54802  0.04793  0.41841  1.0000
  C   C1752     1.0  0.53114  0.44257  0.97926  1.0000
  H   H2953     1.0  0.47904  0.34177  0.99146  1.0000
  H   H2954     1.0  0.42059  0.36747  0.45683  1.0000
  H   H2955     1.0  0.54525  0.42762  0.42655  1.0000
  C   C1753     1.0  0.52112  0.19076  0.33053  1.0000
  C   C1754     1.0  0.55214  0.23865  0.28083  1.0000
  H   H2956     1.0  0.52288  0.16258  0.34494  1.0000
  H   H2957     1.0  0.58423  0.28415  0.39898  1.0000
  H   H2958     1.0  0.54579  0.33282  0.40024  1.0000
  H   H2959     1.0  0.53595  0.36493  0.37350  1.0000
  H   H2960     1.0  0.56408  0.02877  0.98145  1.0000
  C   C1755     1.0  0.54565  0.28723  0.41599  1.0000
  C   C1756     1.0  0.43397  0.36960  0.44868  1.0000
  H   H2961     1.0  0.54460  0.27702  0.42866  1.0000
  H   H2962     1.0  0.56295  0.39744  0.12816  1.0000
  H   H2963     1.0  0.57514  0.38153  0.14424  1.0000
  H   H2964     1.0  0.54516  0.20857  0.26933  1.0000
  H   H2965     1.0  0.57751  0.20024  0.33347  1.0000
  H   H2966     1.0  0.45351  0.02877  0.23759  1.0000
  C   C1757     1.0  0.54419  0.45556  0.02448  1.0000
  H   H2967     1.0  0.57499  0.06704  0.35583  1.0000
  H   H2968     1.0  0.41503  0.26958  0.97573  1.0000
  S   S509      1.0  0.42255  0.42247  0.07423  1.0000
  Fe  Fe258     1.0  0.56726  0.21910  0.36509  1.0000
  H   H2969     1.0  0.46532  0.29256  0.06944  1.0000
  H   H2970     1.0  0.57145  0.18076  0.29260  1.0000
  C   C1758     1.0  0.46871  0.37504  0.42776  1.0000
  H   H2971     1.0  0.48180  0.39464  0.34240  1.0000
  C   C1759     1.0  0.52067  0.04837  0.36873  1.0000
  C   C1760     1.0  0.47833  0.98884  0.20857  1.0000
  H   H2972     1.0  0.57097  0.03269  0.40209  1.0000
  H   H2973     1.0  0.50115  0.45760  0.26742  1.0000
  N   N123      1.0  0.46923  0.19944  0.37483  1.0000
  C   C1761     1.0  0.46909  0.18128  0.38837  1.0000
  C   C1762     1.0  0.45182  0.21257  0.38126  1.0000
  C   C1763     1.0  0.48602  0.20632  0.37523  1.0000
  C   C1764     1.0  0.47015  0.19597  0.35605  1.0000
  C   C1765     1.0  0.48754  0.16714  0.38719  1.0000
  C   C1766     1.0  0.43361  0.20741  0.38099  1.0000
  C   C1767     1.0  0.48624  0.22692  0.36762  1.0000
  C   C1768     1.0  0.46788  0.21287  0.34023  1.0000
  H   H2974     1.0  0.46499  0.18342  0.40283  1.0000
  H   H2975     1.0  0.45864  0.17421  0.38679  1.0000
  H   H2976     1.0  0.45145  0.22671  0.37300  1.0000
  H   H2977     1.0  0.45121  0.21397  0.39554  1.0000
  H   H2978     1.0  0.48807  0.20371  0.38965  1.0000
  H   H2979     1.0  0.49870  0.19859  0.36760  1.0000
  H   H2980     1.0  0.48358  0.18713  0.35129  1.0000
  H   H2981     1.0  0.45993  0.18762  0.35653  1.0000
  H   H2982     1.0  0.48505  0.15367  0.39590  1.0000
  H   H2983     1.0  0.49359  0.16490  0.37306  1.0000
  H   H2984     1.0  0.43264  0.20738  0.36682  1.0000
  H   H2985     1.0  0.43172  0.19398  0.39008  1.0000
  H   H2986     1.0  0.42178  0.21791  0.38609  1.0000
  H   H2987     1.0  0.47608  0.23565  0.37663  1.0000
  H   H2988     1.0  0.48415  0.23160  0.35333  1.0000
  H   H2989     1.0  0.50008  0.22931  0.36748  1.0000
  H   H2990     1.0  0.48155  0.21600  0.33262  1.0000
  H   H2991     1.0  0.45884  0.22535  0.34453  1.0000
  H   H2992     1.0  0.46115  0.20981  0.33037  1.0000
  S   S510      1.0  0.51045  0.18857  0.31361  1.0000
  C   C1769     1.0  0.47398  0.33568  0.06562  1.0000
  H   H2993     1.0  0.49969  0.28410  0.43790  1.0000
  H   H2994     1.0  0.52959  0.05833  0.33968  1.0000
  H   H2995     1.0  0.39017  0.09559  0.16041  1.0000
  H   H2996     1.0  0.48270  0.33586  0.41996  1.0000
  H   H2997     1.0  0.55601  0.21116  0.14115  1.0000
  H   H2998     1.0  0.47408  0.22095  0.11105  1.0000
  S   S511      1.0  0.56679  0.23623  0.38505  1.0000
  H   H2999     1.0  0.53040  0.36508  0.13756  1.0000
  S   S512      1.0  0.52618  0.35307  0.46226  1.0000
  H   H3000     1.0  0.48395  0.29511  0.07789  1.0000
  C   C1770     1.0  0.48300  0.43931  0.97864  1.0000
  C   C1771     1.0  0.55361  0.41122  0.46718  1.0000
  H   H3001     1.0  0.48458  0.30339  0.02472  1.0000
  C   C1772     1.0  0.40847  0.44288  0.08011  1.0000
  C   C1773     1.0  0.45151  0.31937  0.43015  1.0000
  Fe  Fe259     1.0  0.56969  0.98999  0.40408  1.0000
  H   H3002     1.0  0.47492  0.34771  0.05396  1.0000
  H   H3003     1.0  0.55055  0.45015  0.42323  1.0000
  C   C1774     1.0  0.38689  0.19984  0.36425  1.0000
  H   H3004     1.0  0.50308  0.32018  0.46102  1.0000
  H   H3005     1.0  0.50360  0.39073  0.98716  1.0000
  C   C1775     1.0  0.51327  0.46037  0.25640  1.0000
  S   S513      1.0  0.51020  0.03628  0.40620  1.0000
  H   H3006     1.0  0.45320  0.21889  0.10578  1.0000
  H   H3007     1.0  0.56942  0.40425  0.43258  1.0000
  H   H3008     1.0  0.54956  0.32356  0.37047  1.0000
  Fe  Fe260     1.0  0.44233  0.29272  0.98356  1.0000
  H   H3009     1.0  0.52602  0.39607  0.97954  1.0000
  S   S514      1.0  0.56671  0.23222  0.10429  1.0000
  H   H3010     1.0  0.56628  0.16969  0.05618  1.0000
  C   C1776     1.0  0.54614  0.31869  0.40003  1.0000
  H   H3011     1.0  0.46066  0.20563  0.12680  1.0000
  C   C1777     1.0  0.52521  0.20779  0.32985  1.0000
  C   C1778     1.0  0.57404  0.33366  0.12905  1.0000
  C   C1779     1.0  0.41311  0.06297  0.15501  1.0000
  H   H3012     1.0  0.43982  0.01677  0.23104  1.0000
  H   H3013     1.0  0.57750  0.34849  0.14785  1.0000
  H   H3014     1.0  0.55518  0.05418  0.42536  1.0000
  C   C1780     1.0  0.57486  0.21265  0.30520  1.0000
  H   H3015     1.0  0.55188  0.19694  0.30003  1.0000
  S   S515      1.0  0.57874  0.14930  0.08971  1.0000
  H   H3016     1.0  0.57485  0.16360  0.02453  1.0000
  H   H3017     1.0  0.50548  0.32254  0.39505  1.0000
  N   N124      1.0  0.40123  0.14837  0.32825  1.0000
  H   H3018     1.0  0.54460  0.37202  0.16207  1.0000
  H   H3019     1.0  0.40566  0.47394  0.18349  1.0000
  S   S516      1.0  0.42254  0.31963  0.97866  1.0000
  S   S517      1.0  0.47914  0.38323  0.45616  1.0000
  H   H3020     1.0  0.43499  0.45883  0.12806  1.0000
  H   H3021     1.0  0.57328  0.43290  0.24040  1.0000
  H   H3022     1.0  0.57531  0.43318  0.43408  1.0000
  H   H3023     1.0  0.57826  0.00669  0.98674  1.0000
  H   H3024     1.0  0.56632  0.20842  0.17015  1.0000
  C   C1781     1.0  0.58012  0.15342  0.03558  1.0000
  H   H3025     1.0  0.57094  0.32114  0.13933  1.0000
  H   H3026     1.0  0.39353  0.13985  0.28806  1.0000
  H   H3027     1.0  0.47616  0.45359  0.25372  1.0000
  H   H3028     1.0  0.54021  0.42927  0.97898  1.0000
  C   C1782     1.0  0.50296  0.46447  0.07687  1.0000
  H   H3029     1.0  0.41880  0.46355  0.15691  1.0000
  H   H3030     1.0  0.49551  0.97661  0.18571  1.0000
  H   H3031     1.0  0.58091  0.25887  0.42303  1.0000
  C   C1783     1.0  0.39340  0.25368  0.97861  1.0000
  C   C1784     1.0  0.58454  0.03822  0.36369  1.0000
  H   H3032     1.0  0.39396  0.23912  0.97829  1.0000
  H   H3033     1.0  0.51475  0.47425  0.19552  1.0000
  H   H3034     1.0  0.58485  0.05895  0.41802  1.0000
  H   H3035     1.0  0.38692  0.25525  0.99303  1.0000
  H   H3036     1.0  0.46671  0.31563  0.46793  1.0000
  H   H3037     1.0  0.54514  0.40928  0.50607  1.0000
  C   C1785     1.0  0.51598  0.37904  0.86599  1.0000
  Fe  Fe261     1.0  0.53421  0.03288  0.78248  1.0000
  S   S518      1.0  0.50432  0.03590  0.79645  1.0000
  S   S519      1.0  0.55170  0.05378  0.77960  1.0000
  Fe  Fe262     1.0  0.53441  0.99796  0.76996  1.0000
  S   S520      1.0  0.50462  0.99783  0.78332  1.0000
  Fe  Fe263     1.0  0.49999  0.02813  0.77170  1.0000
  S   S521      1.0  0.47736  0.04368  0.75621  1.0000
  Fe  Fe264     1.0  0.51151  0.00534  0.80689  1.0000
  S   S522      1.0  0.52933  0.02777  0.75656  1.0000
  S   S523      1.0  0.54181  0.00283  0.79477  1.0000
  H   H3038     1.0  0.50241  0.98497  0.52568  1.0000
  S   S524      1.0  0.40653  0.00979  0.76831  1.0000
  S   S525      1.0  0.56690  0.45739  0.85335  1.0000
  S   S526      1.0  0.55686  0.12504  0.86018  1.0000
  H   H3039     1.0  0.41561  0.20965  0.87171  1.0000
  Fe  Fe265     1.0  0.56522  0.14493  0.83429  1.0000
  S   S527      1.0  0.54630  0.16904  0.82032  1.0000
  Fe  Fe266     1.0  0.46170  0.27375  0.83506  1.0000
  S   S528      1.0  0.46613  0.26219  0.86400  1.0000
  S   S529      1.0  0.47488  0.29512  0.81317  1.0000
  Fe  Fe267     1.0  0.42958  0.25450  0.84031  1.0000
  S   S530      1.0  0.43076  0.24173  0.86981  1.0000
  S   S531      1.0  0.41175  0.25094  0.82253  1.0000
  Fe  Fe268     1.0  0.43520  0.26896  0.87187  1.0000
  S   S532      1.0  0.41990  0.28465  0.89425  1.0000
  Fe  Fe269     1.0  0.46152  0.23578  0.85959  1.0000
  S   S533      1.0  0.47574  0.20706  0.87098  1.0000
  S   S534      1.0  0.43104  0.28236  0.84325  1.0000
  S   S535      1.0  0.46009  0.24668  0.82986  1.0000
  C   C1786     1.0  0.51094  0.39993  0.55405  1.0000
  Fe  Fe270     1.0  0.54670  0.39147  0.78416  1.0000
  S   S536      1.0  0.54285  0.38478  0.81495  1.0000
  Fe  Fe271     1.0  0.50619  0.39421  0.78454  1.0000
  S   S537      1.0  0.49903  0.38754  0.81541  1.0000
  S   S538      1.0  0.48244  0.40016  0.76989  1.0000
  Fe  Fe272     1.0  0.51729  0.40680  0.81417  1.0000
  S   S539      1.0  0.50673  0.42653  0.83358  1.0000
  Fe  Fe273     1.0  0.52499  0.36618  0.81346  1.0000
  S   S540      1.0  0.52632  0.33812  0.83179  1.0000
  S   S541      1.0  0.52250  0.41527  0.78339  1.0000
  S   S542      1.0  0.53077  0.37101  0.78261  1.0000
  H   H3040     1.0  0.46376  0.44644  0.73300  1.0000
  C   C1787     1.0  0.45877  0.98340  0.72675  1.0000
  S   S543      1.0  0.57229  0.42850  0.57061  1.0000
  H   H3041     1.0  0.55842  0.41617  0.54031  1.0000
  H   H3042     1.0  0.53391  0.40556  0.56111  1.0000
  C   C1788     1.0  0.49454  0.45243  0.71076  1.0000
  Fe  Fe274     1.0  0.44025  0.42887  0.65559  1.0000
  S   S544      1.0  0.44909  0.45137  0.63235  1.0000
  C   C1789     1.0  0.58008  0.39708  0.48133  1.0000
  Fe  Fe275     1.0  0.47748  0.41800  0.66696  1.0000
  S   S545      1.0  0.48940  0.43920  0.64415  1.0000
  S   S546      1.0  0.49746  0.40051  0.68490  1.0000
  H   H3043     1.0  0.46073  0.32962  0.90279  1.0000
  Fe  Fe276     1.0  0.47516  0.43070  0.62641  1.0000
  S   S547      1.0  0.48662  0.43043  0.59634  1.0000
  S   S548      1.0  0.45138  0.43755  0.67612  1.0000
  S   S549      1.0  0.46555  0.40752  0.64837  1.0000
  H   H3044     1.0  0.47279  0.40230  0.95075  1.0000
  C   C1790     1.0  0.51260  0.42203  0.89755  1.0000
  H   H3045     1.0  0.54337  0.00612  0.72626  1.0000
  C   C1791     1.0  0.55516  0.42852  0.46904  1.0000
  H   H3046     1.0  0.48460  0.33256  0.47499  1.0000
  Fe  Fe277     1.0  0.46253  0.45809  0.65195  1.0000
  C   C1792     1.0  0.55510  0.43968  0.83301  1.0000
  H   H3047     1.0  0.47811  0.27872  0.46935  1.0000
  H   H3048     1.0  0.51037  0.01488  0.70904  1.0000
  C   C1793     1.0  0.40460  0.41181  0.64896  1.0000
  H   H3049     1.0  0.53301  0.09446  0.77693  1.0000
  C   C1794     1.0  0.51787  0.44906  0.84930  1.0000
  H   H3050     1.0  0.44833  0.36184  0.88568  1.0000
  H   H3051     1.0  0.47694  0.44738  0.69439  1.0000
  H   H3052     1.0  0.53874  0.14330  0.91251  1.0000
  H   H3053     1.0  0.42623  0.30243  0.94880  1.0000
  H   H3054     1.0  0.41026  0.10727  0.77886  1.0000
  H   H3055     1.0  0.42604  0.39496  0.53997  1.0000
  H   H3056     1.0  0.56365  0.33431  0.80367  1.0000
  C   C1795     1.0  0.41809  0.40077  0.63808  1.0000
  H   H3057     1.0  0.42341  0.38090  0.62085  1.0000
  H   H3058     1.0  0.43254  0.40060  0.63691  1.0000
  H   H3059     1.0  0.50476  0.99023  0.54589  1.0000
  H   H3060     1.0  0.55655  0.45576  0.60099  1.0000
  C   C1796     1.0  0.42715  0.10945  0.79616  1.0000
  H   H3061     1.0  0.49057  0.29153  0.47726  1.0000
  C   C1797     1.0  0.54830  0.99481  0.70194  1.0000
  H   H3062     1.0  0.49039  0.45686  0.92396  1.0000
  H   H3063     1.0  0.43623  0.11684  0.78453  1.0000
  H   H3064     1.0  0.47103  0.07428  0.77406  1.0000
  H   H3065     1.0  0.48427  0.98544  0.48858  1.0000
  C   C1798     1.0  0.54843  0.42936  0.57773  1.0000
  C   C1799     1.0  0.53627  0.43937  0.56616  1.0000
  C   C1800     1.0  0.51729  0.43954  0.57197  1.0000
  C   C1801     1.0  0.51034  0.43013  0.58956  1.0000
  C   C1802     1.0  0.52241  0.42045  0.60132  1.0000
  C   C1803     1.0  0.54148  0.41989  0.59531  1.0000
  H   H3066     1.0  0.54148  0.44678  0.55268  1.0000
  H   H3067     1.0  0.50792  0.44711  0.56292  1.0000
  H   H3068     1.0  0.51709  0.41314  0.61492  1.0000
  H   H3069     1.0  0.57532  0.04991  0.94224  1.0000
  C   C1804     1.0  0.48718  0.40183  0.74595  1.0000
  C   C1805     1.0  0.50508  0.39638  0.73629  1.0000
  C   C1806     1.0  0.50814  0.39637  0.71743  1.0000
  C   C1807     1.0  0.49342  0.40225  0.70807  1.0000
  C   C1808     1.0  0.47564  0.40840  0.71760  1.0000
  C   C1809     1.0  0.47250  0.40795  0.73656  1.0000
  H   H3070     1.0  0.51647  0.39170  0.74344  1.0000
  H   H3071     1.0  0.52193  0.39162  0.71007  1.0000
  H   H3072     1.0  0.46420  0.41280  0.71053  1.0000
  H   H3073     1.0  0.45861  0.41211  0.74402  1.0000
  C   C1810     1.0  0.52324  0.43710  0.83691  1.0000
  C   C1811     1.0  0.54184  0.43269  0.82848  1.0000
  H   H3074     1.0  0.54606  0.42359  0.81879  1.0000
  C   C1812     1.0  0.38724  0.97875  0.63942  1.0000
  C   C1813     1.0  0.48877  0.30686  0.81924  1.0000
  C   C1814     1.0  0.48959  0.32496  0.80994  1.0000
  C   C1815     1.0  0.50112  0.33453  0.81377  1.0000
  C   C1816     1.0  0.51196  0.32604  0.82695  1.0000
  C   C1817     1.0  0.51097  0.30800  0.83653  1.0000
  C   C1818     1.0  0.49934  0.29840  0.83269  1.0000
  H   H3075     1.0  0.48108  0.33171  0.79994  1.0000
  H   H3076     1.0  0.50155  0.34854  0.80655  1.0000
  H   H3077     1.0  0.51930  0.30142  0.84680  1.0000
  H   H3078     1.0  0.49883  0.28439  0.83984  1.0000
  C   C1819     1.0  0.43073  0.28226  0.91264  1.0000
  C   C1820     1.0  0.44627  0.26851  0.91540  1.0000
  C   C1821     1.0  0.45451  0.26695  0.93034  1.0000
  C   C1822     1.0  0.44726  0.27912  0.94252  1.0000
  C   C1823     1.0  0.43184  0.29294  0.93959  1.0000
  C   C1824     1.0  0.42355  0.29445  0.92474  1.0000
  H   H3079     1.0  0.45183  0.25897  0.90617  1.0000
  H   H3080     1.0  0.46646  0.25622  0.93255  1.0000
  H   H3081     1.0  0.42232  0.08052  0.74580  1.0000
  H   H3082     1.0  0.41155  0.30514  0.92262  1.0000
  C   C1825     1.0  0.52602  0.17908  0.83401  1.0000
  C   C1826     1.0  0.51736  0.19718  0.82768  1.0000
  C   C1827     1.0  0.50175  0.20587  0.83883  1.0000
  C   C1828     1.0  0.49463  0.19637  0.85626  1.0000
  C   C1829     1.0  0.50289  0.17803  0.86230  1.0000
  C   C1830     1.0  0.51860  0.16942  0.85124  1.0000
  H   H3083     1.0  0.52305  0.20468  0.81432  1.0000
  H   H3084     1.0  0.49550  0.22002  0.83407  1.0000
  H   H3085     1.0  0.49727  0.17054  0.87569  1.0000
  H   H3086     1.0  0.52504  0.15538  0.85610  1.0000
  H   H3087     1.0  0.44756  0.07319  0.80212  1.0000
  C   C1831     1.0  0.55580  0.05893  0.79923  1.0000
  C   C1832     1.0  0.54640  0.05239  0.81695  1.0000
  C   C1833     1.0  0.51593  0.19646  0.89771  1.0000
  N   N125      1.0  0.48607  0.42569  0.96652  1.0000
  C   C1834     1.0  0.49112  0.44670  0.75164  1.0000
  C   C1835     1.0  0.57370  0.38943  0.54915  1.0000
  H   H3088     1.0  0.55083  0.41219  0.60436  1.0000
  H   H3089     1.0  0.49527  0.44832  0.76395  1.0000
  C   C1836     1.0  0.45810  0.03371  0.75939  1.0000
  C   C1837     1.0  0.44573  0.04103  0.74738  1.0000
  C   C1838     1.0  0.42973  0.03393  0.75014  1.0000
  C   C1839     1.0  0.42626  0.01920  0.76470  1.0000
  C   C1840     1.0  0.43889  0.01158  0.77641  1.0000
  C   C1841     1.0  0.45469  0.01893  0.77388  1.0000
  H   H3090     1.0  0.44841  0.05236  0.73604  1.0000
  H   H3091     1.0  0.42018  0.03973  0.74091  1.0000
  H   H3092     1.0  0.43629  0.00014  0.78766  1.0000
  H   H3093     1.0  0.46409  0.01327  0.78327  1.0000
  H   H3094     1.0  0.55663  0.00102  0.84970  1.0000
  H   H3095     1.0  0.51562  0.22458  0.90069  1.0000
  C   C1842     1.0  0.39449  0.23769  0.83145  1.0000
  C   C1843     1.0  0.50137  0.97922  0.71596  1.0000
  H   H3096     1.0  0.51553  0.42503  0.96018  1.0000
  H   H3097     1.0  0.57331  0.35508  0.77459  1.0000
  C   C1844     1.0  0.38796  0.23255  0.85040  1.0000
  Fe  Fe278     1.0  0.58404  0.45379  0.50164  1.0000
  H   H3098     1.0  0.42234  0.38263  0.51351  1.0000
  H   H3099     1.0  0.47901  0.97669  0.76126  1.0000
  C   C1845     1.0  0.44981  0.33182  0.89485  1.0000
  H   H3100     1.0  0.48622  0.46365  0.94547  1.0000
  C   C1846     1.0  0.52297  0.10376  0.80337  1.0000
  H   H3101     1.0  0.40302  0.99339  0.65820  1.0000
  H   H3102     1.0  0.45683  0.46327  0.71425  1.0000
  H   H3103     1.0  0.39910  0.01032  0.63861  1.0000
  H   H3104     1.0  0.47142  0.09428  0.75626  1.0000
  H   H3105     1.0  0.53327  0.09229  0.80928  1.0000
  H   H3106     1.0  0.56320  0.08407  0.94217  1.0000
  C   C1847     1.0  0.49240  0.45192  0.93838  1.0000
  Fe  Fe279     1.0  0.57485  0.10316  0.84512  1.0000
  H   H3107     1.0  0.54508  0.21066  0.89885  1.0000
  C   C1848     1.0  0.56063  0.07034  0.82969  1.0000
  H   H3108     1.0  0.50220  0.27089  0.46935  1.0000
  C   C1849     1.0  0.54701  0.19543  0.90143  1.0000
  S   S550      1.0  0.57084  0.45196  0.47900  1.0000
  H   H3109     1.0  0.50645  0.16719  0.78781  1.0000
  H   H3110     1.0  0.51710  0.10593  0.84037  1.0000
  H   H3111     1.0  0.51322  0.08634  0.79093  1.0000
  H   H3112     1.0  0.57170  0.17290  0.90030  1.0000
  H   H3113     1.0  0.49004  0.00535  0.74942  1.0000
  H   H3114     1.0  0.43232  0.32259  0.84516  1.0000
  H   H3115     1.0  0.39302  0.23736  0.85995  1.0000
  C   C1850     1.0  0.43961  0.35197  0.89430  1.0000
  C   C1851     1.0  0.49823  0.00073  0.73660  1.0000
  H   H3116     1.0  0.50898  0.45467  0.70779  1.0000
  H   H3117     1.0  0.51852  0.37360  0.85324  1.0000
  N   N126      1.0  0.48153  0.46629  0.72141  1.0000
  H   H3118     1.0  0.56955  0.43588  0.82683  1.0000
  N   N127      1.0  0.43533  0.18517  0.84806  1.0000
  C   C1852     1.0  0.43286  0.18231  0.86874  1.0000
  C   C1853     1.0  0.44999  0.16936  0.84209  1.0000
  C   C1854     1.0  0.41725  0.18440  0.84392  1.0000
  C   C1855     1.0  0.44056  0.20367  0.83954  1.0000
  C   C1856     1.0  0.41628  0.19502  0.87847  1.0000
  C   C1857     1.0  0.46922  0.16800  0.84592  1.0000
  C   C1858     1.0  0.41657  0.18620  0.82362  1.0000
  C   C1859     1.0  0.44993  0.20702  0.81887  1.0000
  H   H3119     1.0  0.43136  0.16792  0.87548  1.0000
  H   H3120     1.0  0.44527  0.18436  0.87256  1.0000
  H   H3121     1.0  0.45203  0.16960  0.82725  1.0000
  H   H3122     1.0  0.44558  0.15605  0.84899  1.0000
  H   H3123     1.0  0.41269  0.17138  0.85175  1.0000
  H   H3124     1.0  0.40617  0.19569  0.84851  1.0000
  H   H3125     1.0  0.42822  0.21487  0.84138  1.0000
  H   H3126     1.0  0.45021  0.20621  0.84696  1.0000
  H   H3127     1.0  0.41018  0.99088  0.62009  1.0000
  H   H3128     1.0  0.41771  0.19371  0.89285  1.0000
  H   H3129     1.0  0.56498  0.05601  0.96360  1.0000
  H   H3130     1.0  0.47460  0.18078  0.83951  1.0000
  H   H3131     1.0  0.46924  0.16459  0.86087  1.0000
  H   H3132     1.0  0.47911  0.15670  0.83995  1.0000
  H   H3133     1.0  0.41811  0.20011  0.81550  1.0000
  H   H3134     1.0  0.40462  0.36606  0.53801  1.0000
  H   H3135     1.0  0.42658  0.17538  0.81710  1.0000
  H   H3136     1.0  0.44309  0.22059  0.81180  1.0000
  H   H3137     1.0  0.44947  0.19686  0.81115  1.0000
  H   H3138     1.0  0.46456  0.20804  0.81722  1.0000
  H   H3139     1.0  0.49803  0.42944  0.90055  1.0000
  H   H3140     1.0  0.54390  0.36947  0.92395  1.0000
  H   H3141     1.0  0.50750  0.44834  0.93781  1.0000
  S   S551      1.0  0.45767  0.27673  0.96126  1.0000
  H   H3142     1.0  0.50352  0.15844  0.81177  1.0000
  H   H3143     1.0  0.55885  0.98093  0.88825  1.0000
  H   H3144     1.0  0.51397  0.36735  0.87768  1.0000
  H   H3145     1.0  0.42614  0.37233  0.55271  1.0000
  C   C1860     1.0  0.56615  0.39547  0.47323  1.0000
  H   H3146     1.0  0.40649  0.09340  0.80111  1.0000
  H   H3147     1.0  0.57681  0.29868  0.77577  1.0000
  H   H3148     1.0  0.53167  0.99568  0.87807  1.0000
  C   C1861     1.0  0.53319  0.43117  0.52075  1.0000
  C   C1862     1.0  0.54981  0.45104  0.84599  1.0000
  H   H3149     1.0  0.56193  0.37894  0.51678  1.0000
  H   H3150     1.0  0.50474  0.12908  0.83289  1.0000
  C   C1863     1.0  0.39416  0.38962  0.63042  1.0000
  H   H3151     1.0  0.49853  0.32912  0.86769  1.0000
  C   C1864     1.0  0.57037  0.07650  0.81203  1.0000
  H   H3152     1.0  0.47000  0.29841  0.90802  1.0000
  H   H3153     1.0  0.40454  0.07064  0.78691  1.0000
  H   H3154     1.0  0.39203  0.24731  0.94688  1.0000
  C   C1865     1.0  0.53595  0.38204  0.91642  1.0000
  H   H3155     1.0  0.40302  0.19103  0.87930  1.0000
  C   C1866     1.0  0.39003  0.26227  0.94655  1.0000
  C   C1867     1.0  0.56734  0.39355  0.87247  1.0000
  H   H3156     1.0  0.54643  0.43614  0.51642  1.0000
  H   H3157     1.0  0.43484  0.10131  0.80699  1.0000
  C   C1868     1.0  0.53270  0.38724  0.86557  1.0000
  H   H3158     1.0  0.40430  0.26491  0.94167  1.0000
  H   H3159     1.0  0.43604  0.35466  0.90850  1.0000
  C   C1869     1.0  0.53191  0.39588  0.55347  1.0000
  C   C1870     1.0  0.50063  0.01814  0.72170  1.0000
  H   H3160     1.0  0.40707  0.40453  0.51490  1.0000
  C   C1871     1.0  0.42539  0.05867  0.81372  1.0000
  H   H3161     1.0  0.55399  0.16333  0.88719  1.0000
  H   H3162     1.0  0.52281  0.40820  0.51906  1.0000
  H   H3163     1.0  0.50986  0.10334  0.81376  1.0000
  C   C1872     1.0  0.52148  0.00294  0.52152  1.0000
  H   H3164     1.0  0.49062  0.35364  0.86281  1.0000
  H   H3165     1.0  0.47795  0.44168  0.75665  1.0000
  H   H3166     1.0  0.52191  0.12498  0.84642  1.0000
  C   C1873     1.0  0.54760  0.99375  0.72067  1.0000
  H   H3167     1.0  0.51275  0.99025  0.68734  1.0000
  H   H3168     1.0  0.52427  0.43967  0.51103  1.0000
  H   H3169     1.0  0.52210  0.37152  0.90172  1.0000
  S   S552      1.0  0.54644  0.45102  0.94277  1.0000
  C   C1874     1.0  0.48294  0.43529  0.94746  1.0000
  H   H3170     1.0  0.41615  0.06909  0.82139  1.0000
  H   H3171     1.0  0.48933  0.30729  0.89238  1.0000
  H   H3172     1.0  0.42637  0.35475  0.88966  1.0000
  C   C1875     1.0  0.54074  0.19856  0.87026  1.0000
  C   C1876     1.0  0.51827  0.12059  0.83525  1.0000
  C   C1877     1.0  0.57692  0.33019  0.79422  1.0000
  H   H3173     1.0  0.51661  0.46161  0.61915  1.0000
  C   C1878     1.0  0.41869  0.38681  0.55262  1.0000
  C   C1879     1.0  0.51976  0.09861  0.78635  1.0000
  S   S553      1.0  0.41062  0.42532  0.66138  1.0000
  H   H3174     1.0  0.51224  0.99436  0.73937  1.0000
  H   H3175     1.0  0.48340  0.34121  0.88506  1.0000
  C   C1880     1.0  0.38825  0.37909  0.56930  1.0000
  H   H3176     1.0  0.52637  0.43362  0.53470  1.0000
  H   H3177     1.0  0.54136  0.05318  0.84579  1.0000
  C   C1881     1.0  0.53570  0.37066  0.52539  1.0000
  H   H3178     1.0  0.50694  0.39154  0.54647  1.0000
  H   H3179     1.0  0.54239  0.35775  0.52027  1.0000
  H   H3180     1.0  0.57069  0.38156  0.88352  1.0000
  N   N128      1.0  0.53623  0.18976  0.89048  1.0000
  H   H3181     1.0  0.46157  0.09659  0.77953  1.0000
  S   S554      1.0  0.50061  0.99344  0.83652  1.0000
  H   H3182     1.0  0.52265  0.98673  0.56443  1.0000
  H   H3183     1.0  0.49222  0.00507  0.69582  1.0000
  H   H3184     1.0  0.54571  0.15098  0.77231  1.0000
  H   H3185     1.0  0.57111  0.40505  0.52194  1.0000
  H   H3186     1.0  0.56131  0.36507  0.74736  1.0000
  N   N129      1.0  0.53215  0.39449  0.88237  1.0000
  H   H3187     1.0  0.38569  0.98601  0.57547  1.0000
  C   C1882     1.0  0.54772  0.40481  0.87769  1.0000
  H   H3188     1.0  0.52212  0.38550  0.92526  1.0000
  H   H3189     1.0  0.57539  0.07575  0.78319  1.0000
  C   C1883     1.0  0.41288  0.38962  0.62897  1.0000
  H   H3190     1.0  0.54576  0.45174  0.62446  1.0000
  H   H3191     1.0  0.39235  0.23594  0.80447  1.0000
  H   H3192     1.0  0.44256  0.37603  0.47069  1.0000
  C   C1884     1.0  0.39185  0.00355  0.65204  1.0000
  H   H3193     1.0  0.54512  0.37624  0.86304  1.0000
  C   C1885     1.0  0.56802  0.18812  0.89789  1.0000
  H   H3194     1.0  0.54563  0.41650  0.86599  1.0000
  H   H3195     1.0  0.38997  0.99314  0.61042  1.0000
  H   H3196     1.0  0.46796  0.44000  0.94728  1.0000
  Fe  Fe280     1.0  0.54882  0.47279  0.91667  1.0000
  H   H3197     1.0  0.54601  0.36715  0.89415  1.0000
  H   H3198     1.0  0.50691  0.02693  0.72692  1.0000
  H   H3199     1.0  0.51050  0.10980  0.77877  1.0000
  C   C1886     1.0  0.53946  0.16914  0.89286  1.0000
  H   H3200     1.0  0.50212  0.43606  0.74571  1.0000
  H   H3201     1.0  0.53380  0.01164  0.84634  1.0000
  H   H3202     1.0  0.41717  0.05056  0.81004  1.0000
  H   H3203     1.0  0.48936  0.46569  0.68261  1.0000
  H   H3204     1.0  0.43376  0.04888  0.82335  1.0000
  H   H3205     1.0  0.49387  0.22051  0.89983  1.0000
  H   H3206     1.0  0.58192  0.08423  0.95220  1.0000
  H   H3207     1.0  0.55931  0.19660  0.84375  1.0000
  H   H3208     1.0  0.55776  0.14285  0.79142  1.0000
  N   N130      1.0  0.52887  0.12192  0.80025  1.0000
  H   H3209     1.0  0.56700  0.34867  0.73233  1.0000
  C   C1887     1.0  0.53370  0.12275  0.81791  1.0000
  C   C1888     1.0  0.54599  0.12186  0.78520  1.0000
  C   C1889     1.0  0.51328  0.13727  0.79476  1.0000
  H   H3210     1.0  0.52880  0.37990  0.51438  1.0000
  N   N131      1.0  0.48958  0.98702  0.73234  1.0000
  H   H3211     1.0  0.54170  0.19108  0.91645  1.0000
  H   H3212     1.0  0.53118  0.16540  0.88480  1.0000
  H   H3213     1.0  0.41057  0.35667  0.57880  1.0000
  N   N132      1.0  0.54471  0.39704  0.53476  1.0000
  H   H3214     1.0  0.53814  0.13567  0.81697  1.0000
  H   H3215     1.0  0.54586  0.11175  0.82083  1.0000
  H   H3216     1.0  0.55700  0.10990  0.78907  1.0000
  H   H3217     1.0  0.54324  0.12021  0.77219  1.0000
  H   H3218     1.0  0.51332  0.13898  0.77988  1.0000
  H   H3219     1.0  0.49976  0.13363  0.80238  1.0000
  C   C1890     1.0  0.51272  0.15640  0.79841  1.0000
  H   H3220     1.0  0.48731  0.02662  0.71862  1.0000
  H   H3221     1.0  0.52626  0.15944  0.79780  1.0000
  H   H3222     1.0  0.44607  0.99205  0.72217  1.0000
  C   C1891     1.0  0.48912  0.46540  0.73806  1.0000
  C   C1892     1.0  0.57204  0.35898  0.73662  1.0000
  H   H3223     1.0  0.45178  0.47009  0.75339  1.0000
  H   H3224     1.0  0.52077  0.43261  0.88948  1.0000
  H   H3225     1.0  0.53534  0.38209  0.56236  1.0000
  H   H3226     1.0  0.54355  0.16038  0.92160  1.0000
  H   H3227     1.0  0.50264  0.39960  0.89361  1.0000
  H   H3228     1.0  0.54371  0.21249  0.86845  1.0000
  C   C1893     1.0  0.51378  0.40744  0.88636  1.0000
  C   C1894     1.0  0.58157  0.41436  0.48329  1.0000
  H   H3229     1.0  0.49488  0.43817  0.71893  1.0000
  H   H3230     1.0  0.45369  0.33025  0.83819  1.0000
  H   H3231     1.0  0.53700  0.04325  0.81889  1.0000
  C   C1895     1.0  0.54323  0.99813  0.84930  1.0000
  H   H3232     1.0  0.57961  0.31508  0.79613  1.0000
  H   H3233     1.0  0.56538  0.38583  0.56318  1.0000
  C   C1896     1.0  0.47010  0.99596  0.72999  1.0000
  H   H3234     1.0  0.54454  0.00803  0.69315  1.0000
  C   C1897     1.0  0.56797  0.07078  0.79686  1.0000
  H   H3235     1.0  0.40262  0.18468  0.82300  1.0000
  H   H3236     1.0  0.56793  0.13639  0.76988  1.0000
  C   C1898     1.0  0.54887  0.05805  0.83214  1.0000
  H   H3237     1.0  0.46959  0.00815  0.71863  1.0000
  H   H3238     1.0  0.58146  0.37331  0.80029  1.0000
  C   C1899     1.0  0.57759  0.05648  0.95270  1.0000
  H   H3239     1.0  0.57387  0.37039  0.72448  1.0000
  C   C1900     1.0  0.55457  0.13913  0.77968  1.0000
  H   H3240     1.0  0.51696  0.41613  0.91084  1.0000
  S   S555      1.0  0.56215  0.07834  0.84884  1.0000
  Fe  Fe281     1.0  0.58292  0.12673  0.86766  1.0000
  H   H3241     1.0  0.43714  0.39069  0.56826  1.0000
  C   C1901     1.0  0.51294  0.98628  0.53284  1.0000
  H   H3242     1.0  0.55286  0.17541  0.85598  1.0000
  C   C1902     1.0  0.39877  0.98436  0.62007  1.0000
  H   H3243     1.0  0.41634  0.38462  0.58254  1.0000
  C   C1903     1.0  0.53526  0.97591  0.56360  1.0000
  H   H3244     1.0  0.54796  0.41137  0.88893  1.0000
  H   H3245     1.0  0.41631  0.40764  0.56898  1.0000
  H   H3246     1.0  0.56204  0.33844  0.77209  1.0000
  C   C1904     1.0  0.38749  0.23183  0.81915  1.0000
  H   H3247     1.0  0.50946  0.40695  0.95402  1.0000
  H   H3248     1.0  0.40037  0.07482  0.75629  1.0000
  Fe  Fe282     1.0  0.58269  0.44501  0.54278  1.0000
  H   H3249     1.0  0.44009  0.32291  0.90365  1.0000
  C   C1905     1.0  0.53510  0.15823  0.91277  1.0000
  H   H3250     1.0  0.52065  0.98579  0.86627  1.0000
  H   H3251     1.0  0.56978  0.18357  0.86265  1.0000
  H   H3252     1.0  0.50958  0.41548  0.87327  1.0000
  H   H3253     1.0  0.51054  0.22368  0.87905  1.0000
  C   C1906     1.0  0.53176  0.45635  0.96326  1.0000
  H   H3254     1.0  0.52693  0.46495  0.86366  1.0000
  C   C1907     1.0  0.53113  0.45603  0.85383  1.0000
  H   H3255     1.0  0.55663  0.36782  0.54027  1.0000
  C   C1908     1.0  0.56912  0.43011  0.47712  1.0000
  H   H3256     1.0  0.52551  0.36685  0.53809  1.0000
  N   N133      1.0  0.47089  0.34699  0.75179  1.0000
  C   C1909     1.0  0.48988  0.35144  0.74375  1.0000
  C   C1910     1.0  0.46170  0.34921  0.73585  1.0000
  C   C1911     1.0  0.47351  0.32709  0.76160  1.0000
  C   C1912     1.0  0.46051  0.35962  0.76491  1.0000
  C   C1913     1.0  0.50225  0.34938  0.75762  1.0000
  C   C1914     1.0  0.45926  0.36853  0.72338  1.0000
  C   C1915     1.0  0.45591  0.31945  0.77129  1.0000
  C   C1916     1.0  0.43914  0.36294  0.76895  1.0000
  H   H3257     1.0  0.49774  0.34285  0.73344  1.0000
  H   H3258     1.0  0.48882  0.36592  0.73610  1.0000
  H   H3259     1.0  0.44787  0.34559  0.74041  1.0000
  H   H3260     1.0  0.46972  0.33937  0.72679  1.0000
  H   H3261     1.0  0.48185  0.31804  0.75187  1.0000
  H   H3262     1.0  0.48144  0.32455  0.77258  1.0000
  H   H3263     1.0  0.46501  0.35463  0.77834  1.0000
  H   H3264     1.0  0.46404  0.37350  0.75948  1.0000
  H   H3265     1.0  0.50719  0.33480  0.76377  1.0000
  H   H3266     1.0  0.51478  0.35503  0.75018  1.0000
  H   H3267     1.0  0.49536  0.35729  0.76862  1.0000
  H   H3268     1.0  0.47250  0.37108  0.71406  1.0000
  H   H3269     1.0  0.44956  0.36953  0.71436  1.0000
  H   H3270     1.0  0.45351  0.37961  0.73133  1.0000
  H   H3271     1.0  0.44661  0.32066  0.76187  1.0000
  H   H3272     1.0  0.44846  0.32580  0.78329  1.0000
  H   H3273     1.0  0.45998  0.30451  0.77697  1.0000
  H   H3274     1.0  0.43386  0.36390  0.78364  1.0000
  H   H3275     1.0  0.43321  0.35214  0.76670  1.0000
  H   H3276     1.0  0.43336  0.37649  0.76098  1.0000
  N   N134      1.0  0.42966  0.08120  0.78215  1.0000
  C   C1917     1.0  0.41733  0.07205  0.77622  1.0000
  C   C1918     1.0  0.43861  0.06728  0.79676  1.0000
  C   C1919     1.0  0.44432  0.08684  0.76566  1.0000
  C   C1920     1.0  0.41758  0.09769  0.78945  1.0000
  C   C1921     1.0  0.41090  0.08171  0.75794  1.0000
  H   H3277     1.0  0.52861  0.20082  0.86378  1.0000
  C   C1922     1.0  0.46295  0.08815  0.76936  1.0000
  H   H3278     1.0  0.52021  0.16125  0.91909  1.0000
  H   H3279     1.0  0.42425  0.05774  0.77483  1.0000
  H   H3280     1.0  0.52731  0.00163  0.50700  1.0000
  H   H3281     1.0  0.50346  0.45260  0.85573  1.0000
  H   H3282     1.0  0.44800  0.05567  0.79066  1.0000
  H   H3283     1.0  0.44834  0.07669  0.75648  1.0000
  H   H3284     1.0  0.43884  0.10021  0.75712  1.0000
  H   H3285     1.0  0.57511  0.32123  0.74926  1.0000
  H   H3286     1.0  0.56947  0.38910  0.85925  1.0000
  C   C1923     1.0  0.42203  0.39283  0.56911  1.0000
  C   C1924     1.0  0.46270  0.46130  0.72666  1.0000
  H   H3287     1.0  0.40444  0.09640  0.75755  1.0000
  H   H3288     1.0  0.49132  0.98378  0.69035  1.0000
  C   C1925     1.0  0.57528  0.34024  0.77437  1.0000
  H   H3289     1.0  0.50730  0.19056  0.89185  1.0000
  S   S556      1.0  0.57388  0.39403  0.76454  1.0000
  H   H3290     1.0  0.50103  0.44218  0.68535  1.0000
  H   H3291     1.0  0.50568  0.41469  0.54880  1.0000
  H   H3292     1.0  0.51221  0.19175  0.91289  1.0000
  C   C1926     1.0  0.55393  0.97888  0.69450  1.0000
  C   C1927     1.0  0.55667  0.18784  0.85772  1.0000
  N   N135      1.0  0.45734  0.32622  0.87645  1.0000
  C   C1928     1.0  0.44103  0.32812  0.86781  1.0000
  C   C1929     1.0  0.46700  0.30624  0.87905  1.0000
  C   C1930     1.0  0.46996  0.33833  0.86350  1.0000
  C   C1931     1.0  0.44547  0.32153  0.84944  1.0000
  C   C1932     1.0  0.47879  0.29909  0.89401  1.0000
  C   C1933     1.0  0.48650  0.34040  0.87039  1.0000
  H   H3293     1.0  0.43062  0.32044  0.87749  1.0000
  H   H3294     1.0  0.43374  0.34269  0.86485  1.0000
  H   H3295     1.0  0.45679  0.29709  0.88269  1.0000
  H   H3296     1.0  0.47615  0.30309  0.86598  1.0000
  H   H3297     1.0  0.47611  0.33300  0.85062  1.0000
  H   H3298     1.0  0.46221  0.35233  0.85848  1.0000
  H   H3299     1.0  0.50307  0.38963  0.86600  1.0000
  C   C1934     1.0  0.55070  0.37849  0.52934  1.0000
  H   H3300     1.0  0.45263  0.30694  0.85064  1.0000
  H   H3301     1.0  0.48618  0.28478  0.89316  1.0000
  H   H3302     1.0  0.51042  0.01550  0.52116  1.0000
  H   H3303     1.0  0.54485  0.99145  0.83755  1.0000
  H   H3304     1.0  0.53389  0.39830  0.85297  1.0000
  H   H3305     1.0  0.58110  0.37680  0.54387  1.0000
  C   C1935     1.0  0.50894  0.21754  0.89396  1.0000
  C   C1936     1.0  0.49000  0.45218  0.69227  1.0000
  C   C1937     1.0  0.53627  0.41078  0.51973  1.0000
  H   H3306     1.0  0.51847  0.98104  0.90507  1.0000
  H   H3307     1.0  0.50358  0.39684  0.56863  1.0000
  C   C1938     1.0  0.44786  0.47193  0.73997  1.0000
  C   C1939     1.0  0.56193  0.40280  0.53579  1.0000
  C   C1940     1.0  0.53422  0.37827  0.89814  1.0000
  H   H3308     1.0  0.41640  0.12016  0.80235  1.0000
  H   H3309     1.0  0.53212  0.00524  0.52777  1.0000
  H   H3310     1.0  0.54385  0.39284  0.91474  1.0000
  C   C1941     1.0  0.53447  0.98687  0.86777  1.0000
  S   S557      1.0  0.55425  0.98067  0.67109  1.0000
  S   S558      1.0  0.57549  0.46898  0.89592  1.0000
  C   C1942     1.0  0.57745  0.07697  0.94379  1.0000
  H   H3311     1.0  0.46216  0.00154  0.74239  1.0000
  H   H3312     1.0  0.48801  0.42556  0.93785  1.0000
  H   H3313     1.0  0.42198  0.25184  0.96219  1.0000
  H   H3314     1.0  0.39501  0.02657  0.66213  1.0000
  C   C1943     1.0  0.40764  0.38965  0.51668  1.0000
  H   H3315     1.0  0.39713  0.35009  0.56592  1.0000
  H   H3316     1.0  0.55129  0.97751  0.53583  1.0000
  S   S559      1.0  0.58115  0.13227  0.89574  1.0000
  S   S560      1.0  0.56464  0.37357  0.47123  1.0000
  S   S561      1.0  0.56527  0.46626  0.52490  1.0000
  C   C1944     1.0  0.54577  0.46227  0.61149  1.0000
  Fe  Fe283     1.0  0.55735  0.47424  0.87549  1.0000
  H   H3317     1.0  0.57969  0.08572  0.81004  1.0000
  H   H3318     1.0  0.54617  0.98234  0.56519  1.0000
  C   C1945     1.0  0.52652  0.46635  0.60647  1.0000
  H   H3319     1.0  0.57745  0.40250  0.87036  1.0000
  H   H3320     1.0  0.48814  0.38740  0.96547  1.0000
  C   C1946     1.0  0.39668  0.35863  0.57578  1.0000
  H   H3321     1.0  0.39622  0.28968  0.95650  1.0000
  H   H3322     1.0  0.57481  0.19419  0.88392  1.0000
  H   H3323     1.0  0.52771  0.45701  0.59712  1.0000
  S   S562      1.0  0.58141  0.12306  0.81858  1.0000
  C   C1947     1.0  0.49891  0.99046  0.69657  1.0000
  H   H3324     1.0  0.57394  0.19231  0.90769  1.0000
  H   H3325     1.0  0.43497  0.46653  0.74292  1.0000
  H   H3326     1.0  0.46647  0.97543  0.71601  1.0000
  H   H3327     1.0  0.49128  0.46453  0.60705  1.0000
  H   H3328     1.0  0.58130  0.00854  0.67067  1.0000
  H   H3329     1.0  0.39916  0.41774  0.53891  1.0000
  H   H3330     1.0  0.40048  0.38837  0.50622  1.0000
  N   N136      1.0  0.39874  0.38899  0.55174  1.0000
  C   C1948     1.0  0.39797  0.38088  0.53601  1.0000
  C   C1949     1.0  0.55230  0.97670  0.73211  1.0000
  H   H3331     1.0  0.50301  0.46916  0.73366  1.0000
  H   H3332     1.0  0.51627  0.97689  0.71637  1.0000
  H   H3333     1.0  0.57169  0.97690  0.86683  1.0000
  H   H3334     1.0  0.54925  0.47099  0.57204  1.0000
  C   C1950     1.0  0.47474  0.39715  0.96513  1.0000
  C   C1951     1.0  0.50582  0.41532  0.96483  1.0000
  H   H3335     1.0  0.38779  0.41420  0.56216  1.0000
  C   C1952     1.0  0.38588  0.41187  0.65031  1.0000
  H   H3336     1.0  0.38784  0.35316  0.58893  1.0000
  S   S563      1.0  0.38809  0.37508  0.61920  1.0000
  H   H3337     1.0  0.55006  0.47410  0.61378  1.0000
  H   H3338     1.0  0.38649  0.38612  0.58085  1.0000
  S   S564      1.0  0.55102  0.97470  0.75578  1.0000
  C   C1953     1.0  0.52010  0.47356  0.96375  1.0000
  C   C1954     1.0  0.38993  0.40917  0.54919  1.0000
  H   H3339     1.0  0.58448  0.39622  0.55041  1.0000
  H   H3340     1.0  0.45142  0.89597  0.08375  1.0000
  Fe  Fe284     1.0  0.52501  0.89666  0.32110  1.0000
  S   S565      1.0  0.51127  0.90817  0.34678  1.0000
  Fe  Fe285     1.0  0.53270  0.89928  0.28003  1.0000
  S   S566      1.0  0.55156  0.87151  0.28149  1.0000
  S   S567      1.0  0.52936  0.91617  0.25172  1.0000
  Fe  Fe286     1.0  0.52998  0.86224  0.30557  1.0000
  S   S568      1.0  0.52734  0.83288  0.30861  1.0000
  S   S569      1.0  0.51002  0.88943  0.30274  1.0000
  S   S570      1.0  0.54643  0.90836  0.29821  1.0000
  Fe  Fe287     1.0  0.43900  0.94047  0.15709  1.0000
  S   S571      1.0  0.46021  0.95442  0.13619  1.0000
  S   S572      1.0  0.41241  0.94208  0.14815  1.0000
  Fe  Fe288     1.0  0.46257  0.92971  0.18658  1.0000
  S   S573      1.0  0.48575  0.94242  0.16770  1.0000
  S   S574      1.0  0.46204  0.91695  0.21674  1.0000
  C   C1955     1.0  0.40249  0.75226  0.44510  1.0000
  H   H3341     1.0  0.49160  0.66800  0.35469  1.0000
  Fe  Fe289     1.0  0.48056  0.92984  0.14651  1.0000
  S   S575      1.0  0.50296  0.91452  0.12738  1.0000
  S   S576      1.0  0.44025  0.95408  0.17947  1.0000
  S   S577      1.0  0.45916  0.91493  0.16603  1.0000
  C   C1956     1.0  0.46235  0.70908  0.30521  1.0000
  Fe  Fe290     1.0  0.56322  0.87959  0.30163  1.0000
  S   S578      1.0  0.54274  0.86855  0.32587  1.0000
  Fe  Fe291     1.0  0.45519  0.77381  0.34338  1.0000
  S   S579      1.0  0.47986  0.75652  0.35464  1.0000
  S   S580      1.0  0.45236  0.80427  0.33152  1.0000
  Fe  Fe292     1.0  0.43411  0.74244  0.35463  1.0000
  S   S581      1.0  0.45698  0.72266  0.36703  1.0000
  S   S582      1.0  0.40754  0.73280  0.35753  1.0000
  Fe  Fe293     1.0  0.45888  0.74601  0.37877  1.0000
  S   S583      1.0  0.46385  0.74072  0.40762  1.0000
  Fe  Fe294     1.0  0.47589  0.73478  0.34195  1.0000
  S   S584      1.0  0.49859  0.71607  0.32628  1.0000
  S   S585      1.0  0.43439  0.76485  0.36859  1.0000
  S   S586      1.0  0.45289  0.75297  0.32846  1.0000
  C   C1957     1.0  0.57827  0.92922  0.31160  1.0000
  C   C1958     1.0  0.56346  0.97256  0.08819  1.0000
  C   C1959     1.0  0.49959  0.96841  0.23877  1.0000
  C   C1960     1.0  0.39386  0.88743  0.01533  1.0000
  H   H3342     1.0  0.41644  0.75539  0.44314  1.0000
  Fe  Fe295     1.0  0.54998  0.51023  0.29920  1.0000
  S   S587      1.0  0.52031  0.51381  0.31360  1.0000
  S   S588      1.0  0.57026  0.52689  0.30034  1.0000
  Fe  Fe296     1.0  0.51467  0.51018  0.28750  1.0000
  S   S589      1.0  0.49246  0.52969  0.27362  1.0000
  S   S590      1.0  0.54408  0.50915  0.27220  1.0000
  H   H3343     1.0  0.57826  0.94355  0.31209  1.0000
  H   H3344     1.0  0.47230  0.96478  0.25386  1.0000
  Fe  Fe297     1.0  0.56557  0.94925  0.03855  1.0000
  C   C1961     1.0  0.47187  0.52200  0.27608  1.0000
  C   C1962     1.0  0.46893  0.50508  0.28726  1.0000
  H   H3345     1.0  0.55759  0.54639  0.26659  1.0000
  C   C1963     1.0  0.43999  0.50905  0.27731  1.0000
  C   C1964     1.0  0.44261  0.52629  0.26668  1.0000
  C   C1965     1.0  0.45850  0.53273  0.26607  1.0000
  H   H3346     1.0  0.46984  0.93190  0.10642  1.0000
  H   H3347     1.0  0.52127  0.54969  0.26955  1.0000
  H   H3348     1.0  0.43254  0.53455  0.25868  1.0000
  H   H3349     1.0  0.46057  0.54592  0.25753  1.0000
  H   H3350     1.0  0.43661  0.66698  0.36587  1.0000
  C   C1966     1.0  0.40579  0.86834  0.98283  1.0000
  C   C1967     1.0  0.57343  0.91121  0.09760  1.0000
  H   H3351     1.0  0.50662  0.82870  0.27855  1.0000
  C   C1968     1.0  0.40359  0.72699  0.33820  1.0000
  C   C1969     1.0  0.57127  0.90760  0.35139  1.0000
  S   S591      1.0  0.56429  0.96223  0.40507  1.0000
  H   H3352     1.0  0.47783  0.52140  0.23254  1.0000
  C   C1970     1.0  0.41276  0.72451  0.30607  1.0000
  C   C1971     1.0  0.41470  0.73120  0.32079  1.0000
  C   C1972     1.0  0.54744  0.55782  0.26039  1.0000
  H   H3353     1.0  0.56727  0.62607  0.42443  1.0000
  H   H3354     1.0  0.42169  0.72746  0.29272  1.0000
  H   H3355     1.0  0.42498  0.73937  0.31873  1.0000
  C   C1973     1.0  0.45395  0.75818  0.42029  1.0000
  C   C1974     1.0  0.44253  0.77429  0.41312  1.0000
  C   C1975     1.0  0.43505  0.78821  0.42330  1.0000
  C   C1976     1.0  0.43829  0.78579  0.44103  1.0000
  C   C1977     1.0  0.44964  0.76964  0.44829  1.0000
  C   C1978     1.0  0.45755  0.75591  0.43787  1.0000
  H   H3356     1.0  0.43943  0.77606  0.39974  1.0000
  H   H3357     1.0  0.42624  0.80068  0.41766  1.0000
  H   H3358     1.0  0.57862  0.95073  0.12770  1.0000
  H   H3359     1.0  0.46638  0.74345  0.44349  1.0000
  C   C1979     1.0  0.54073  0.56535  0.33041  1.0000
  C   C1980     1.0  0.54547  0.55054  0.32125  1.0000
  C   C1981     1.0  0.56376  0.54496  0.31254  1.0000
  H   H3360     1.0  0.38883  0.94186  0.12464  1.0000
  H   H3361     1.0  0.52654  0.56967  0.33704  1.0000
  H   H3362     1.0  0.53496  0.54350  0.32092  1.0000
  N   N137      1.0  0.52523  0.47653  0.04724  1.0000
  C   C1982     1.0  0.54194  0.67893  0.35811  1.0000
  C   C1983     1.0  0.53136  0.69501  0.36388  1.0000
  C   C1984     1.0  0.51761  0.70622  0.35452  1.0000
  C   C1985     1.0  0.51475  0.70163  0.33905  1.0000
  C   C1986     1.0  0.52527  0.68551  0.33333  1.0000
  C   C1987     1.0  0.53865  0.67405  0.34300  1.0000
  H   H3363     1.0  0.53378  0.69883  0.37561  1.0000
  H   H3364     1.0  0.50950  0.71861  0.35904  1.0000
  H   H3365     1.0  0.52306  0.68189  0.32139  1.0000
  H   H3366     1.0  0.57716  0.67399  0.32676  1.0000
  H   H3367     1.0  0.46228  0.95694  0.08115  1.0000
  H   H3368     1.0  0.51012  0.97262  0.08383  1.0000
  C   C1988     1.0  0.47955  0.96744  0.23916  1.0000
  C   C1989     1.0  0.39000  0.71671  0.34059  1.0000
  H   H3369     1.0  0.53667  0.56016  0.40410  1.0000
  H   H3370     1.0  0.46163  0.93471  0.06319  1.0000
  C   C1990     1.0  0.52821  0.93807  0.33487  1.0000
  C   C1991     1.0  0.51157  0.92805  0.10631  1.0000
  C   C1992     1.0  0.52419  0.91945  0.09281  1.0000
  C   C1993     1.0  0.53178  0.92999  0.07610  1.0000
  C   C1994     1.0  0.52697  0.94919  0.07294  1.0000
  C   C1995     1.0  0.51391  0.95776  0.08623  1.0000
  C   C1996     1.0  0.50633  0.94722  0.10297  1.0000
  H   H3371     1.0  0.52821  0.90461  0.09530  1.0000
  H   H3372     1.0  0.54147  0.92325  0.06576  1.0000
  H   H3373     1.0  0.49256  0.93748  0.05169  1.0000
  H   H3374     1.0  0.49680  0.95399  0.11341  1.0000
  H   H3375     1.0  0.58140  0.92846  0.29681  1.0000
  H   H3376     1.0  0.40138  0.48046  0.11077  1.0000
  H   H3377     1.0  0.41545  0.49131  0.11793  1.0000
  H   H3378     1.0  0.56531  0.51392  0.36850  1.0000
  C   C1997     1.0  0.53360  0.86740  0.24183  1.0000
  C   C1998     1.0  0.48381  0.97362  0.19726  1.0000
  C   C1999     1.0  0.50623  0.82547  0.31539  1.0000
  C   C2000     1.0  0.48932  0.83775  0.31814  1.0000
  C   C2001     1.0  0.47274  0.83123  0.32266  1.0000
  C   C2002     1.0  0.47310  0.81242  0.32476  1.0000
  C   C2003     1.0  0.49003  0.80022  0.32205  1.0000
  C   C2004     1.0  0.50654  0.80674  0.31734  1.0000
  H   H3379     1.0  0.48903  0.85219  0.31688  1.0000
  H   H3380     1.0  0.45963  0.84069  0.32487  1.0000
  H   H3381     1.0  0.49041  0.78577  0.32335  1.0000
  H   H3382     1.0  0.51961  0.79724  0.31506  1.0000
  C   C2005     1.0  0.51034  0.91670  0.24232  1.0000
  C   C2006     1.0  0.51246  0.91983  0.22313  1.0000
  C   C2007     1.0  0.49771  0.92007  0.21514  1.0000
  C   C2008     1.0  0.48062  0.91747  0.22627  1.0000
  C   C2009     1.0  0.47834  0.91481  0.24545  1.0000
  C   C2010     1.0  0.49313  0.91449  0.25346  1.0000
  H   H3383     1.0  0.52569  0.92174  0.21443  1.0000
  H   H3384     1.0  0.49970  0.92195  0.20039  1.0000
  H   H3385     1.0  0.46506  0.91307  0.25412  1.0000
  H   H3386     1.0  0.49124  0.91256  0.26825  1.0000
  H   H3387     1.0  0.49398  0.82232  0.40866  1.0000
  H   H3388     1.0  0.49832  0.48998  0.98036  1.0000
  H   H3389     1.0  0.54923  0.49494  0.20665  1.0000
  H   H3390     1.0  0.48412  0.65146  0.34704  1.0000
  C   C2011     1.0  0.51937  0.92822  0.36785  1.0000
  C   C2012     1.0  0.52007  0.92613  0.34997  1.0000
  H   H3391     1.0  0.51293  0.91911  0.37958  1.0000
  H   H3392     1.0  0.45100  0.48536  0.29625  1.0000
  S   S592      1.0  0.55590  0.47949  0.30851  1.0000
  Fe  Fe298     1.0  0.54734  0.47873  0.28268  1.0000
  C   C2013     1.0  0.41005  0.92435  0.13860  1.0000
  C   C2014     1.0  0.42031  0.90648  0.14249  1.0000
  C   C2015     1.0  0.41673  0.89227  0.13612  1.0000
  C   C2016     1.0  0.56686  0.89072  0.34722  1.0000
  H   H3393     1.0  0.46727  0.87673  0.23888  1.0000
  S   S593      1.0  0.39814  0.87772  0.11870  1.0000
  H   H3394     1.0  0.43057  0.90348  0.15089  1.0000
  H   H3395     1.0  0.42441  0.87837  0.13949  1.0000
  H   H3396     1.0  0.44367  0.90572  0.97539  1.0000
  H   H3397     1.0  0.55637  0.93930  0.15026  1.0000
  H   H3398     1.0  0.50308  0.49701  0.18611  1.0000
  H   H3399     1.0  0.39797  0.49668  0.17223  1.0000
  H   H3400     1.0  0.50133  0.89713  0.46591  1.0000
  C   C2017     1.0  0.51135  0.58363  0.24102  1.0000
  H   H3401     1.0  0.49593  0.52165  0.21209  1.0000
  C   C2018     1.0  0.55435  0.48136  0.21404  1.0000
  H   H3402     1.0  0.55965  0.91928  0.34904  1.0000
  C   C2019     1.0  0.44760  0.96182  0.22863  1.0000
  Fe  Fe299     1.0  0.39907  0.51956  0.26291  1.0000
  C   C2020     1.0  0.42842  0.88820  0.96876  1.0000
  H   H3403     1.0  0.49009  0.90635  0.09732  1.0000
  H   H3404     1.0  0.50797  0.97021  0.22457  1.0000
  C   C2021     1.0  0.47181  0.89115  0.11767  1.0000
  C   C2022     1.0  0.49091  0.48650  0.21474  1.0000
  H   H3405     1.0  0.54022  0.48523  0.01946  1.0000
  C   C2023     1.0  0.57042  0.93237  0.09430  1.0000
  H   H3406     1.0  0.57666  0.69590  0.34421  1.0000
  N   N138      1.0  0.38813  0.76487  0.45623  1.0000
  H   H3407     1.0  0.51812  0.49436  0.20113  1.0000
  H   H3408     1.0  0.46539  0.68185  0.30082  1.0000
  S   S594      1.0  0.51744  0.47958  0.29609  1.0000
  C   C2024     1.0  0.44699  0.90783  0.09088  1.0000
  H   H3409     1.0  0.44215  0.69336  0.30684  1.0000
  C   C2025     1.0  0.55670  0.48326  0.04774  1.0000
  C   C2026     1.0  0.52058  0.58618  0.28778  1.0000
  C   C2027     1.0  0.48993  0.92903  0.06583  1.0000
  H   H3410     1.0  0.55171  0.49835  0.04560  1.0000
  H   H3411     1.0  0.50933  0.80079  0.40503  1.0000
  C   C2028     1.0  0.43907  0.69051  0.34203  1.0000
  C   C2029     1.0  0.40910  0.47689  0.15381  1.0000
  S   S595      1.0  0.53782  0.96276  0.05305  1.0000
  H   H3412     1.0  0.47181  0.85966  0.28737  1.0000
  H   H3413     1.0  0.39000  0.51429  0.11911  1.0000
  H   H3414     1.0  0.45913  0.71654  0.29160  1.0000
  H   H3415     1.0  0.53570  0.95221  0.14167  1.0000
  C   C2030     1.0  0.55448  0.96043  0.10589  1.0000
  C   C2031     1.0  0.54014  0.59027  0.28356  1.0000
  H   H3416     1.0  0.47895  0.49687  0.29533  1.0000
  N   N139      1.0  0.56508  0.94104  0.11107  1.0000
  H   H3417     1.0  0.49606  0.58593  0.24327  1.0000
  H   H3418     1.0  0.46552  0.65412  0.32203  1.0000
  C   C2032     1.0  0.43575  0.65923  0.32607  1.0000
  H   H3419     1.0  0.50201  0.49914  0.25020  1.0000
  C   C2033     1.0  0.49676  0.50168  0.04028  1.0000
  H   H3420     1.0  0.54051  0.96024  0.10403  1.0000
  H   H3421     1.0  0.56077  0.53633  0.35381  1.0000
  H   H3422     1.0  0.55552  0.72123  0.30307  1.0000
  H   H3423     1.0  0.40380  0.76533  0.41590  1.0000
  C   C2034     1.0  0.49116  0.56408  0.30076  1.0000
  H   H3424     1.0  0.42625  0.69297  0.33665  1.0000
  H   H3425     1.0  0.39066  0.87358  0.01813  1.0000
  H   H3426     1.0  0.52375  0.50595  0.03887  1.0000
  H   H3427     1.0  0.48048  0.95468  0.23439  1.0000
  H   H3428     1.0  0.46649  0.49605  0.24448  1.0000
  H   H3429     1.0  0.55163  0.89196  0.35027  1.0000
  S   S596      1.0  0.38912  0.58831  0.24429  1.0000
  H   H3430     1.0  0.54906  0.55435  0.37296  1.0000
  H   H3431     1.0  0.50150  0.91694  0.06647  1.0000
  H   H3432     1.0  0.45002  0.95162  0.24136  1.0000
  Fe  Fe300     1.0  0.53925  0.96952  0.42687  1.0000
  C   C2035     1.0  0.49625  0.57508  0.28100  1.0000
  C   C2036     1.0  0.58205  0.94215  0.11708  1.0000
  H   H3433     1.0  0.58306  0.67350  0.43365  1.0000
  H   H3434     1.0  0.45666  0.92509  0.46025  1.0000
  C   C2037     1.0  0.48104  0.93569  0.44641  1.0000
  H   H3435     1.0  0.51058  0.59935  0.28915  1.0000
  C   C2038     1.0  0.39667  0.92802  0.12784  1.0000
  H   H3436     1.0  0.54659  0.66162  0.33854  1.0000
  H   H3437     1.0  0.49234  0.56792  0.27201  1.0000
  H   H3438     1.0  0.47731  0.56077  0.30279  1.0000
  Fe  Fe301     1.0  0.57286  0.63822  0.36174  1.0000
  H   H3439     1.0  0.57292  0.87775  0.35582  1.0000
  H   H3440     1.0  0.58397  0.90408  0.10594  1.0000
  H   H3441     1.0  0.45239  0.76774  0.46187  1.0000
  H   H3442     1.0  0.58096  0.52012  0.34744  1.0000
  H   H3443     1.0  0.45537  0.71814  0.31511  1.0000
  H   H3444     1.0  0.40388  0.73769  0.45246  1.0000
  H   H3445     1.0  0.55596  0.54166  0.42258  1.0000
  H   H3446     1.0  0.47542  0.90826  0.45265  1.0000
  C   C2039     1.0  0.50758  0.47677  0.98012  1.0000
  H   H3447     1.0  0.41982  0.68706  0.36824  1.0000
  H   H3448     1.0  0.57104  0.88987  0.33256  1.0000
  H   H3449     1.0  0.49057  0.51624  0.04123  1.0000
  H   H3450     1.0  0.53178  0.84349  0.26377  1.0000
  H   H3451     1.0  0.56031  0.90629  0.10392  1.0000
  H   H3452     1.0  0.57806  0.64345  0.44005  1.0000
  C   C2040     1.0  0.55428  0.57448  0.33114  1.0000
  C   C2041     1.0  0.45598  0.69047  0.31048  1.0000
  H   H3453     1.0  0.53148  0.59275  0.24986  1.0000
  H   H3454     1.0  0.48501  0.67920  0.32353  1.0000
  H   H3455     1.0  0.43579  0.64443  0.32753  1.0000
  H   H3456     1.0  0.52969  0.84084  0.24201  1.0000
  H   H3457     1.0  0.53659  0.92927  0.15431  1.0000
  C   C2042     1.0  0.49561  0.86325  0.24140  1.0000
  N   N140      1.0  0.57239  0.54042  0.38605  1.0000
  C   C2043     1.0  0.49296  0.51890  0.22735  1.0000
  H   H3458     1.0  0.54273  0.96059  0.32583  1.0000
  H   H3459     1.0  0.49630  0.93143  0.44298  1.0000
  H   H3460     1.0  0.50624  0.95517  0.24656  1.0000
  C   C2044     1.0  0.56987  0.92620  0.96991  1.0000
  C   C2045     1.0  0.53613  0.95324  0.35543  1.0000
  C   C2046     1.0  0.56414  0.89527  0.97739  1.0000
  N   N141      1.0  0.45536  0.68038  0.33026  1.0000
  H   H3461     1.0  0.57569  0.93654  0.97259  1.0000
  H   H3462     1.0  0.44526  0.95975  0.10145  1.0000
  C   C2047     1.0  0.51738  0.59006  0.25577  1.0000
  S   S597      1.0  0.53421  0.94697  0.45203  1.0000
  C   C2048     1.0  0.54664  0.56816  0.39438  1.0000
  H   H3463     1.0  0.48669  0.58875  0.28017  1.0000
  H   H3464     1.0  0.55647  0.70855  0.32586  1.0000
  H   H3465     1.0  0.56163  0.67590  0.41576  1.0000
  H   H3466     1.0  0.47896  0.48291  0.26151  1.0000
  S   S598      1.0  0.56215  0.61278  0.37679  1.0000
  H   H3467     1.0  0.55206  0.96813  0.11709  1.0000
  H   H3468     1.0  0.43970  0.95208  0.08384  1.0000
  C   C2049     1.0  0.45304  0.49861  0.28784  1.0000
  H   H3469     1.0  0.48437  0.83659  0.27405  1.0000
  H   H3470     1.0  0.49375  0.47800  0.07787  1.0000
  H   H3471     1.0  0.53824  0.58077  0.38738  1.0000
  H   H3472     1.0  0.56690  0.47970  0.05682  1.0000
  C   C2050     1.0  0.45091  0.95093  0.09102  1.0000
  H   H3473     1.0  0.43497  0.66583  0.31156  1.0000
  H   H3474     1.0  0.45377  0.65235  0.34514  1.0000
  H   H3475     1.0  0.48897  0.95984  0.20500  1.0000
  H   H3476     1.0  0.39340  0.51340  0.14198  1.0000
  H   H3477     1.0  0.54868  0.86277  0.23706  1.0000
  H   H3478     1.0  0.54111  0.59743  0.29414  1.0000
  C   C2051     1.0  0.55705  0.52787  0.41998  1.0000
  H   H3479     1.0  0.49835  0.52913  0.23148  1.0000
  C   C2052     1.0  0.39823  0.48208  0.17239  1.0000
  H   H3480     1.0  0.58451  0.72274  0.30916  1.0000
  H   H3481     1.0  0.56038  0.69674  0.30708  1.0000
  H   H3482     1.0  0.43287  0.85041  0.98664  1.0000
  C   C2053     1.0  0.47514  0.86256  0.24296  1.0000
  C   C2054     1.0  0.52840  0.55853  0.27375  1.0000
  S   S599      1.0  0.42122  0.49979  0.27681  1.0000
  H   H3483     1.0  0.41569  0.85130  0.00773  1.0000
  H   H3484     1.0  0.42302  0.93063  0.09227  1.0000
  C   C2055     1.0  0.43044  0.92067  0.08329  1.0000
  C   C2056     1.0  0.57163  0.90862  0.98110  1.0000
  N   N142      1.0  0.39794  0.47604  0.14042  1.0000
  C   C2057     1.0  0.49918  0.86581  0.27201  1.0000
  C   C2058     1.0  0.55232  0.93073  0.12629  1.0000
  H   H3485     1.0  0.39460  0.91512  0.97723  1.0000
  N   N143      1.0  0.41004  0.88688  0.98159  1.0000
  S   S600      1.0  0.39901  0.70382  0.29044  1.0000
  C   C2059     1.0  0.53225  0.47444  0.02749  1.0000
  H   H3486     1.0  0.55340  0.57024  0.25728  1.0000
  H   H3487     1.0  0.50409  0.87888  0.26613  1.0000
  C   C2060     1.0  0.57494  0.67976  0.40787  1.0000
  C   C2061     1.0  0.45345  0.66102  0.33123  1.0000
  H   H3488     1.0  0.52793  0.87507  0.22948  1.0000
  H   H3489     1.0  0.58324  0.66231  0.30046  1.0000
  C   C2062     1.0  0.47849  0.87150  0.28024  1.0000
  H   H3490     1.0  0.43423  0.92780  0.06882  1.0000
  H   H3491     1.0  0.56644  0.56739  0.36901  1.0000
  H   H3492     1.0  0.46841  0.81486  0.40332  1.0000
  H   H3493     1.0  0.53090  0.55134  0.28771  1.0000
  H   H3494     1.0  0.44294  0.68653  0.37031  1.0000
  C   C2063     1.0  0.57159  0.52546  0.35943  1.0000
  H   H3495     1.0  0.51613  0.59186  0.22722  1.0000
  H   H3496     1.0  0.54328  0.52417  0.42599  1.0000
  C   C2064     1.0  0.47320  0.68036  0.33548  1.0000
  C   C2065     1.0  0.45795  0.93110  0.10087  1.0000
  H   H3497     1.0  0.39631  0.88933  0.02836  1.0000
  H   H3498     1.0  0.47248  0.69365  0.33926  1.0000
  H   H3499     1.0  0.43326  0.96235  0.22743  1.0000
  H   H3500     1.0  0.49023  0.57217  0.31122  1.0000
  C   C2066     1.0  0.49907  0.83538  0.26713  1.0000
  H   H3501     1.0  0.46880  0.66395  0.36404  1.0000
  H   H3502     1.0  0.58420  0.49848  0.18085  1.0000
  H   H3503     1.0  0.50635  0.85905  0.28365  1.0000
  C   C2067     1.0  0.39942  0.75308  0.42573  1.0000
  C   C2068     1.0  0.52498  0.85037  0.25180  1.0000
  H   H3504     1.0  0.47338  0.91204  0.06167  1.0000
  C   C2069     1.0  0.38636  0.78410  0.44465  1.0000
  H   H3505     1.0  0.47708  0.87970  0.29076  1.0000
  C   C2070     1.0  0.39947  0.71388  0.30855  1.0000
  H   H3506     1.0  0.56537  0.88168  0.98607  1.0000
  H   H3507     1.0  0.40008  0.78801  0.43954  1.0000
  H   H3508     1.0  0.48285  0.89027  0.08896  1.0000
  H   H3509     1.0  0.56888  0.64719  0.40832  1.0000
  S   S601      1.0  0.58463  0.90228  0.99859  1.0000
  H   H3510     1.0  0.47621  0.93919  0.43320  1.0000
  H   H3511     1.0  0.57850  0.67550  0.39449  1.0000
  S   S602      1.0  0.57717  0.91902  0.04351  1.0000
  Fe  Fe302     1.0  0.52566  0.48295  0.32104  1.0000
  C   C2071     1.0  0.40297  0.89588  0.12576  1.0000
  H   H3512     1.0  0.49026  0.93739  0.07557  1.0000
  C   C2072     1.0  0.39914  0.47613  0.07403  1.0000
  H   H3513     1.0  0.53224  0.87686  0.25108  1.0000
  H   H3514     1.0  0.50869  0.60390  0.25707  1.0000
  H   H3515     1.0  0.49901  0.50091  0.02560  1.0000
  H   H3516     1.0  0.44713  0.92774  0.11331  1.0000
  H   H3517     1.0  0.58315  0.57571  0.32313  1.0000
  H   H3518     1.0  0.52734  0.94291  0.38439  1.0000
  C   C2073     1.0  0.57262  0.56871  0.32271  1.0000
  H   H3519     1.0  0.50094  0.55085  0.30330  1.0000
  S   S603      1.0  0.55986  0.66576  0.36935  1.0000
  C   C2074     1.0  0.52747  0.94169  0.37060  1.0000
  H   H3520     1.0  0.39122  0.86778  0.98980  1.0000
  H   H3521     1.0  0.47213  0.97313  0.19134  1.0000
  C   C2075     1.0  0.39312  0.91385  0.12144  1.0000
  C   C2076     1.0  0.54503  0.93858  0.14401  1.0000
  N   N144      1.0  0.51615  0.57728  0.27437  1.0000
  H   H3522     1.0  0.46248  0.88170  0.11884  1.0000
  S   S604      1.0  0.42716  0.80276  0.45405  1.0000
  S   S605      1.0  0.57773  0.63117  0.33405  1.0000
  C   C2077     1.0  0.58291  0.53274  0.36918  1.0000
  C   C2078     1.0  0.57709  0.63484  0.41565  1.0000
  H   H3523     1.0  0.41799  0.48731  0.14742  1.0000
  H   H3524     1.0  0.47085  0.88057  0.26974  1.0000
  H   H3525     1.0  0.42323  0.87962  0.00512  1.0000
  C   C2079     1.0  0.39469  0.90149  0.97454  1.0000
  S   S606      1.0  0.57422  0.95369  0.00771  1.0000
  C   C2080     1.0  0.50258  0.49938  0.23546  1.0000
  H   H3526     1.0  0.54692  0.55418  0.24741  1.0000
  C   C2081     1.0  0.47947  0.66497  0.35128  1.0000
  H   H3527     1.0  0.55016  0.49010  0.23976  1.0000
  N   N145      1.0  0.48669  0.80336  0.38061  1.0000
  C   C2082     1.0  0.47162  0.79776  0.37498  1.0000
  C   C2083     1.0  0.50413  0.78932  0.37642  1.0000
  C   C2084     1.0  0.48890  0.82218  0.36920  1.0000
  C   C2085     1.0  0.48078  0.80383  0.40083  1.0000
  C   C2086     1.0  0.45303  0.81164  0.37542  1.0000
  C   C2087     1.0  0.50399  0.76959  0.38778  1.0000
  C   C2088     1.0  0.50771  0.82771  0.36621  1.0000
  C   C2089     1.0  0.49494  0.80734  0.41012  1.0000
  H   H3528     1.0  0.47624  0.79509  0.36077  1.0000
  H   H3529     1.0  0.46847  0.78458  0.38376  1.0000
  H   H3530     1.0  0.51639  0.79321  0.37851  1.0000
  H   H3531     1.0  0.50735  0.78862  0.36154  1.0000
  H   H3532     1.0  0.48677  0.82345  0.35508  1.0000
  H   H3533     1.0  0.47808  0.83312  0.37502  1.0000
  H   H3534     1.0  0.47582  0.79113  0.40903  1.0000
  H   H3535     1.0  0.45431  0.82448  0.36498  1.0000
  H   H3536     1.0  0.44300  0.80544  0.37189  1.0000
  H   H3537     1.0  0.44686  0.81496  0.38918  1.0000
  H   H3538     1.0  0.50176  0.76902  0.40276  1.0000
  H   H3539     1.0  0.49359  0.76332  0.38508  1.0000
  H   H3540     1.0  0.51763  0.76072  0.38376  1.0000
  H   H3541     1.0  0.51237  0.82605  0.37916  1.0000
  H   H3542     1.0  0.50650  0.84248  0.35938  1.0000
  H   H3543     1.0  0.51849  0.81996  0.35668  1.0000
  H   H3544     1.0  0.49197  0.80103  0.42502  1.0000
  H   H3545     1.0  0.51750  0.49792  0.22910  1.0000
  C   C2090     1.0  0.56252  0.52614  0.39949  1.0000
  H   H3546     1.0  0.50362  0.85738  0.22916  1.0000
  H   H3547     1.0  0.44117  0.90213  0.10537  1.0000
  H   H3548     1.0  0.40161  0.48946  0.06616  1.0000
  N   N146      1.0  0.50419  0.85381  0.25794  1.0000
  N   N147      1.0  0.46328  0.91621  0.08968  1.0000
  H   H3549     1.0  0.57138  0.51220  0.39929  1.0000
  H   H3550     1.0  0.51181  0.49895  0.06158  1.0000
  H   H3551     1.0  0.47750  0.70709  0.30378  1.0000
  H   H3552     1.0  0.48634  0.49344  0.04855  1.0000
  H   H3553     1.0  0.44094  0.70462  0.34129  1.0000
  H   H3554     1.0  0.45684  0.95675  0.21659  1.0000
  Fe  Fe303     1.0  0.56949  0.60440  0.34938  1.0000
  H   H3555     1.0  0.48427  0.88255  0.12274  1.0000
  H   H3556     1.0  0.56427  0.47934  0.03448  1.0000
  H   H3557     1.0  0.46527  0.90096  0.12701  1.0000
  H   H3558     1.0  0.51799  0.81563  0.25096  1.0000
  H   H3559     1.0  0.56433  0.92611  0.31746  1.0000
  C   C2091     1.0  0.43471  0.68212  0.36274  1.0000
  H   H3560     1.0  0.54005  0.93018  0.12124  1.0000
  H   H3561     1.0  0.54975  0.52585  0.39509  1.0000
  H   H3562     1.0  0.42306  0.66486  0.33535  1.0000
  C   C2092     1.0  0.47776  0.90100  0.09754  1.0000
  C   C2093     1.0  0.55889  0.55750  0.37966  1.0000
  H   H3563     1.0  0.47402  0.85468  0.23307  1.0000
  Fe  Fe304     1.0  0.46326  0.96590  0.15920  1.0000
  C   C2094     1.0  0.41799  0.85149  0.99282  1.0000
  H   H3564     1.0  0.46781  0.85679  0.25676  1.0000
  H   H3565     1.0  0.39539  0.62177  0.24918  1.0000
  H   H3566     1.0  0.49628  0.80961  0.26219  1.0000
  H   H3567     1.0  0.56990  0.90471  0.36658  1.0000
  C   C2095     1.0  0.53620  0.95158  0.33760  1.0000
  S   S607      1.0  0.54776  0.59301  0.34268  1.0000
  H   H3568     1.0  0.56435  0.96730  0.07572  1.0000
  H   H3569     1.0  0.40690  0.86587  0.96888  1.0000
  H   H3570     1.0  0.51910  0.57732  0.30177  1.0000
  H   H3571     1.0  0.52842  0.93688  0.32107  1.0000
  H   H3572     1.0  0.57950  0.55233  0.40573  1.0000
  C   C2096     1.0  0.50300  0.82140  0.25456  1.0000
  C   C2097     1.0  0.47127  0.92296  0.06968  1.0000
  S   S608      1.0  0.40507  0.53897  0.23592  1.0000
  H   H3573     1.0  0.55963  0.93751  0.08587  1.0000
  H   H3574     1.0  0.42035  0.91226  0.08363  1.0000
  H   H3575     1.0  0.49667  0.87803  0.23756  1.0000
  H   H3576     1.0  0.49740  0.82725  0.24186  1.0000
  C   C2098     1.0  0.40979  0.47854  0.12126  1.0000
  H   H3577     1.0  0.51719  0.56894  0.24063  1.0000
  H   H3578     1.0  0.41386  0.90331  0.99906  1.0000
  H   H3579     1.0  0.57287  0.69500  0.40425  1.0000
  C   C2099     1.0  0.51499  0.49605  0.04746  1.0000
  H   H3580     1.0  0.41413  0.83882  0.99169  1.0000
  C   C2100     1.0  0.50772  0.48801  0.19860  1.0000
  H   H3581     1.0  0.54345  0.59949  0.27004  1.0000
  H   H3582     1.0  0.57840  0.90691  0.08411  1.0000
  H   H3583     1.0  0.55075  0.57742  0.28475  1.0000
  C   C2101     1.0  0.41122  0.88940  0.00010  1.0000
  H   H3584     1.0  0.55470  0.57295  0.40180  1.0000
  S   S609      1.0  0.54857  0.96867  0.35798  1.0000
  C   C2102     1.0  0.47170  0.92023  0.45959  1.0000
  H   H3585     1.0  0.47730  0.94848  0.45194  1.0000
  H   H3586     1.0  0.43962  0.87735  0.97402  1.0000
  H   H3587     1.0  0.38867  0.89836  0.19054  1.0000
  H   H3588     1.0  0.52058  0.47666  0.02049  1.0000
  C   C2103     1.0  0.38786  0.71023  0.32578  1.0000
  H   H3589     1.0  0.58312  0.93655  0.08503  1.0000
  H   H3590     1.0  0.55878  0.91613  0.13063  1.0000
  H   H3591     1.0  0.40821  0.74085  0.42042  1.0000
  C   C2104     1.0  0.55490  0.47866  0.23276  1.0000
  H   H3592     1.0  0.47954  0.49852  0.21200  1.0000
  H   H3593     1.0  0.57784  0.94179  0.34126  1.0000
  H   H3594     1.0  0.57403  0.92933  0.37454  1.0000
  H   H3595     1.0  0.53593  0.47576  0.07119  1.0000
  N   N148      1.0  0.49476  0.48379  0.23367  1.0000
  H   H3596     1.0  0.56669  0.51770  0.42807  1.0000
  C   C2105     1.0  0.58365  0.70917  0.30697  1.0000
  C   C2106     1.0  0.56289  0.70866  0.31117  1.0000
  C   C2107     1.0  0.47688  0.48326  0.24759  1.0000
  C   C2108     1.0  0.57731  0.55408  0.31333  1.0000
  H   H3597     1.0  0.57726  0.97430  0.08878  1.0000
  H   H3598     1.0  0.48551  0.47471  0.21361  1.0000
  H   H3599     1.0  0.44559  0.89846  0.47508  1.0000
  C   C2109     1.0  0.39732  0.95700  0.58159  1.0000
  H   H3600     1.0  0.44826  0.53660  0.68486  1.0000
  Fe  Fe305     1.0  0.52347  0.89548  0.88842  1.0000
  S   S610      1.0  0.50743  0.90540  0.91421  1.0000
  S   S611      1.0  0.52062  0.90666  0.85891  1.0000
  Fe  Fe306     1.0  0.54855  0.86397  0.90879  1.0000
  S   S612      1.0  0.53490  0.87099  0.93638  1.0000
  H   H3601     1.0  0.39556  0.56724  0.67385  1.0000
  Fe  Fe307     1.0  0.50835  0.87533  0.92656  1.0000
  S   S613      1.0  0.48513  0.86257  0.94597  1.0000
  Fe  Fe308     1.0  0.53519  0.90029  0.92195  1.0000
  H   H3602     1.0  0.52728  0.92526  0.48810  1.0000
  S   S614      1.0  0.52218  0.86581  0.90010  1.0000
  S   S615      1.0  0.55103  0.89289  0.89504  1.0000
  S   S616      1.0  0.41160  0.86842  0.91903  1.0000
  C   C2110     1.0  0.57162  0.73577  0.75789  1.0000
  H   H3603     1.0  0.44056  0.88956  0.49923  1.0000
  C   C2111     1.0  0.45545  0.51480  0.66966  1.0000
  Fe  Fe309     1.0  0.53127  0.50617  0.89137  1.0000
  S   S617      1.0  0.55617  0.50460  0.86848  1.0000
  S   S618      1.0  0.50571  0.52854  0.88961  1.0000
  H   H3604     1.0  0.54082  0.90026  0.65150  1.0000
  H   H3605     1.0  0.47277  0.67272  0.59162  1.0000
  H   H3606     1.0  0.55081  0.53381  0.94076  1.0000
  H   H3607     1.0  0.42877  0.88529  0.95520  1.0000
  H   H3608     1.0  0.40634  0.91051  0.94507  1.0000
  S   S619      1.0  0.54706  0.50312  0.91342  1.0000
  S   S620      1.0  0.55367  0.93491  0.65545  1.0000
  C   C2112     1.0  0.48107  0.48516  0.70899  1.0000
  H   H3609     1.0  0.44571  0.94345  0.47907  1.0000
  H   H3610     1.0  0.42380  0.49667  0.64589  1.0000
  H   H3611     1.0  0.49873  0.96536  0.71670  1.0000
  Fe  Fe310     1.0  0.43918  0.91961  0.57336  1.0000
  S   S621      1.0  0.45918  0.89381  0.58219  1.0000
  S   S622      1.0  0.40954  0.91940  0.58804  1.0000
  Fe  Fe311     1.0  0.46972  0.93690  0.54577  1.0000
  S   S623      1.0  0.49204  0.91262  0.55282  1.0000
  S   S624      1.0  0.47552  0.96208  0.52413  1.0000
  Fe  Fe312     1.0  0.47168  0.89612  0.55218  1.0000
  S   S625      1.0  0.48078  0.87265  0.53706  1.0000
  Fe  Fe313     1.0  0.47737  0.91280  0.58212  1.0000
  S   S626      1.0  0.48977  0.90852  0.60712  1.0000
  S   S627      1.0  0.45030  0.92039  0.54315  1.0000
  S   S628      1.0  0.45648  0.93854  0.57527  1.0000
  Fe  Fe314     1.0  0.56628  0.75814  0.87002  1.0000
  H   H3612     1.0  0.55892  0.94137  0.52453  1.0000
  S   S629      1.0  0.54885  0.77324  0.89223  1.0000
  C   C2113     1.0  0.55498  0.57907  0.90990  1.0000
  H   H3613     1.0  0.46498  0.50268  0.72923  1.0000
  H   H3614     1.0  0.50498  0.91778  0.46961  1.0000
  Fe  Fe315     1.0  0.56672  0.72539  0.85402  1.0000
  S   S630      1.0  0.55659  0.69909  0.85790  1.0000
  H   H3615     1.0  0.55365  0.94294  0.50270  1.0000
  H   H3616     1.0  0.53894  0.93343  0.52296  1.0000
  S   S631      1.0  0.55019  0.75413  0.85100  1.0000
  C   C2114     1.0  0.55818  0.96081  0.72460  1.0000
  Fe  Fe316     1.0  0.48736  0.66981  0.82030  1.0000
  S   S632      1.0  0.48374  0.65062  0.84778  1.0000
  S   S633      1.0  0.49656  0.69677  0.81506  1.0000
  Fe  Fe317     1.0  0.47050  0.64756  0.80295  1.0000
  S   S634      1.0  0.46224  0.64876  0.77636  1.0000
  Fe  Fe318     1.0  0.49379  0.62821  0.83143  1.0000
  S   S635      1.0  0.51727  0.60423  0.83599  1.0000
  S   S636      1.0  0.45879  0.67183  0.81639  1.0000
  S   S637      1.0  0.49954  0.64751  0.80413  1.0000
  C   C2115     1.0  0.50674  0.96922  0.47241  1.0000
  H   H3617     1.0  0.57841  0.84653  0.86161  1.0000
  H   H3618     1.0  0.53343  0.96426  0.57547  1.0000
  C   C2116     1.0  0.54740  0.94420  0.51721  1.0000
  S   S638      1.0  0.47575  0.58595  0.67354  1.0000
  S   S639      1.0  0.45328  0.55776  0.72124  1.0000
  Fe  Fe319     1.0  0.42397  0.81352  0.51680  1.0000
  S   S640      1.0  0.42753  0.78627  0.53627  1.0000
  S   S641      1.0  0.41615  0.83918  0.52868  1.0000
  S   S642      1.0  0.43316  0.76710  0.50075  1.0000
  Fe  Fe320     1.0  0.40955  0.77849  0.52162  1.0000
  Fe  Fe321     1.0  0.45081  0.77729  0.51388  1.0000
  S   S643      1.0  0.47879  0.76117  0.51891  1.0000
  S   S644      1.0  0.44868  0.80529  0.49532  1.0000
  Fe  Fe322     1.0  0.50557  0.70262  0.60868  1.0000
  S   S645      1.0  0.50286  0.67310  0.61671  1.0000
  S   S646      1.0  0.48006  0.72284  0.60188  1.0000
  Fe  Fe323     1.0  0.54396  0.69380  0.61703  1.0000
  S   S647      1.0  0.54449  0.66344  0.62578  1.0000
  C   C2117     1.0  0.52077  0.49995  0.62442  1.0000
  Fe  Fe324     1.0  0.53202  0.66725  0.60117  1.0000
  S   S648      1.0  0.53903  0.64527  0.58440  1.0000
  Fe  Fe325     1.0  0.51532  0.67186  0.64046  1.0000
  S   S649      1.0  0.50272  0.65873  0.66904  1.0000
  S   S650      1.0  0.53383  0.69699  0.59092  1.0000
  S   S651      1.0  0.51575  0.70198  0.63389  1.0000
  C   C2118     1.0  0.47921  0.75021  0.54187  1.0000
  C   C2119     1.0  0.46280  0.74810  0.55458  1.0000
  C   C2120     1.0  0.46325  0.73980  0.57300  1.0000
  C   C2121     1.0  0.48014  0.73318  0.57872  1.0000
  C   C2122     1.0  0.49662  0.73511  0.56601  1.0000
  C   C2123     1.0  0.49614  0.74365  0.54758  1.0000
  H   H3619     1.0  0.44973  0.75265  0.55020  1.0000
  H   H3620     1.0  0.45048  0.73828  0.58280  1.0000
  H   H3621     1.0  0.50968  0.73031  0.57044  1.0000
  H   H3622     1.0  0.50886  0.74543  0.53780  1.0000
  C   C2124     1.0  0.48439  0.60535  0.67284  1.0000
  C   C2125     1.0  0.48038  0.61326  0.68833  1.0000
  C   C2126     1.0  0.48628  0.62954  0.68713  1.0000
  C   C2127     1.0  0.49618  0.63795  0.67044  1.0000
  C   C2128     1.0  0.50050  0.62985  0.65505  1.0000
  C   C2129     1.0  0.49468  0.61352  0.65629  1.0000
  H   H3623     1.0  0.47277  0.60682  0.70124  1.0000
  H   H3624     1.0  0.48300  0.63568  0.69910  1.0000
  H   H3625     1.0  0.50842  0.63609  0.64222  1.0000
  H   H3626     1.0  0.49796  0.60734  0.64433  1.0000
  C   C2130     1.0  0.56267  0.66328  0.55653  1.0000
  C   C2131     1.0  0.55773  0.64644  0.56563  1.0000
  H   H3627     1.0  0.41293  0.54784  0.66914  1.0000
  Fe  Fe326     1.0  0.45578  0.65112  0.84274  1.0000
  H   H3628     1.0  0.55518  0.67573  0.56123  1.0000
  H   H3629     1.0  0.48542  0.69908  0.51183  1.0000
  H   H3630     1.0  0.47813  0.48787  0.60600  1.0000
  H   H3631     1.0  0.54455  0.49648  0.59109  1.0000
  H   H3632     1.0  0.52044  0.95754  0.88642  1.0000
  H   H3633     1.0  0.46616  0.85843  0.88751  1.0000
  C   C2132     1.0  0.55649  0.71058  0.65154  1.0000
  C   C2133     1.0  0.55758  0.71686  0.66691  1.0000
  H   H3634     1.0  0.45285  0.95550  0.49184  1.0000
  H   H3635     1.0  0.54518  0.70420  0.65213  1.0000
  H   H3636     1.0  0.54702  0.71544  0.67926  1.0000
  C   C2134     1.0  0.45294  0.49741  0.66926  1.0000
  C   C2135     1.0  0.55088  0.95782  0.85855  1.0000
  S   S652      1.0  0.58090  0.72853  0.87511  1.0000
  C   C2136     1.0  0.50663  0.96093  0.75477  1.0000
  C   C2137     1.0  0.48783  0.47802  0.59788  1.0000
  H   H3637     1.0  0.39942  0.71171  0.83079  1.0000
  C   C2138     1.0  0.53649  0.82907  0.65488  1.0000
  C   C2139     1.0  0.45626  0.62919  0.77321  1.0000
  C   C2140     1.0  0.44765  0.61375  0.75340  1.0000
  C   C2141     1.0  0.45279  0.62908  0.75614  1.0000
  H   H3638     1.0  0.44507  0.61379  0.74020  1.0000
  H   H3639     1.0  0.45399  0.64087  0.74498  1.0000
  H   H3640     1.0  0.50160  0.71184  0.51355  1.0000
  N   N149      1.0  0.55480  0.56143  0.90463  1.0000
  H   H3641     1.0  0.49450  0.48586  0.69909  1.0000
  C   C2142     1.0  0.44095  0.48854  0.68378  1.0000
  H   H3642     1.0  0.50403  0.94864  0.76562  1.0000
  H   H3643     1.0  0.42223  0.49017  0.70987  1.0000
  C   C2143     1.0  0.55228  0.74525  0.79464  1.0000
  H   H3644     1.0  0.53453  0.54556  0.90540  1.0000
  H   H3645     1.0  0.52344  0.81876  0.84973  1.0000
  C   C2144     1.0  0.48785  0.70840  0.51959  1.0000
  C   C2145     1.0  0.51329  0.69729  0.82694  1.0000
  C   C2146     1.0  0.51708  0.71425  0.82709  1.0000
  C   C2147     1.0  0.53034  0.71499  0.83658  1.0000
  C   C2148     1.0  0.53987  0.69875  0.84592  1.0000
  C   C2149     1.0  0.53591  0.68183  0.84593  1.0000
  C   C2150     1.0  0.52265  0.68108  0.83647  1.0000
  H   H3646     1.0  0.50975  0.72684  0.81984  1.0000
  H   H3647     1.0  0.53320  0.72808  0.83671  1.0000
  H   H3648     1.0  0.54320  0.66924  0.85322  1.0000
  H   H3649     1.0  0.51980  0.66795  0.83644  1.0000
  C   C2151     1.0  0.46251  0.86456  0.53367  1.0000
  C   C2152     1.0  0.44446  0.86966  0.54321  1.0000
  C   C2153     1.0  0.43025  0.86211  0.54122  1.0000
  C   C2154     1.0  0.43400  0.84948  0.52969  1.0000
  C   C2155     1.0  0.45194  0.84492  0.51962  1.0000
  C   C2156     1.0  0.46618  0.85240  0.52167  1.0000
  H   H3650     1.0  0.44150  0.87909  0.55246  1.0000
  H   H3651     1.0  0.41638  0.86581  0.54894  1.0000
  H   H3652     1.0  0.45490  0.83544  0.51045  1.0000
  H   H3653     1.0  0.48010  0.84861  0.51409  1.0000
  H   H3654     1.0  0.48299  0.71134  0.54783  1.0000
  H   H3655     1.0  0.54540  0.86853  0.59502  1.0000
  C   C2157     1.0  0.54213  0.92954  0.60259  1.0000
  C   C2158     1.0  0.52857  0.92902  0.61873  1.0000
  C   C2159     1.0  0.51241  0.92280  0.61987  1.0000
  C   C2160     1.0  0.50964  0.91725  0.60484  1.0000
  C   C2161     1.0  0.52318  0.91775  0.58870  1.0000
  C   C2162     1.0  0.53937  0.92394  0.58756  1.0000
  H   H3656     1.0  0.53048  0.93352  0.63028  1.0000
  H   H3657     1.0  0.50199  0.92235  0.63243  1.0000
  H   H3658     1.0  0.52130  0.91305  0.57724  1.0000
  H   H3659     1.0  0.54990  0.92420  0.57510  1.0000
  C   C2163     1.0  0.48999  0.67232  0.56429  1.0000
  H   H3660     1.0  0.54850  0.82098  0.64679  1.0000
  C   C2164     1.0  0.41136  0.63125  0.83926  1.0000
  S   S653      1.0  0.38694  0.61529  0.69828  1.0000
  H   H3661     1.0  0.41022  0.68663  0.80754  1.0000
  H   H3662     1.0  0.51899  0.96546  0.81490  1.0000
  H   H3663     1.0  0.41651  0.52014  0.66417  1.0000
  S   S654      1.0  0.40829  0.57179  0.73401  1.0000
  C   C2165     1.0  0.50894  0.54979  0.87513  1.0000
  C   C2166     1.0  0.49393  0.56469  0.87416  1.0000
  C   C2167     1.0  0.49627  0.58167  0.86243  1.0000
  C   C2168     1.0  0.51363  0.58369  0.85153  1.0000
  C   C2169     1.0  0.52861  0.56886  0.85262  1.0000
  C   C2170     1.0  0.52630  0.55203  0.86445  1.0000
  H   H3664     1.0  0.48048  0.56308  0.88251  1.0000
  H   H3665     1.0  0.48467  0.59312  0.86175  1.0000
  H   H3666     1.0  0.54208  0.57038  0.84423  1.0000
  H   H3667     1.0  0.53796  0.54079  0.86518  1.0000
  H   H3668     1.0  0.41371  0.63497  0.64132  1.0000
  H   H3669     1.0  0.53097  0.55451  0.92552  1.0000
  H   H3670     1.0  0.44431  0.48669  0.73381  1.0000
  S   S655      1.0  0.57362  0.84184  0.90308  1.0000
  H   H3671     1.0  0.47071  0.48800  0.70022  1.0000
  C   C2171     1.0  0.40951  0.49982  0.65397  1.0000
  C   C2172     1.0  0.45446  0.61397  0.78757  1.0000
  H   H3672     1.0  0.50817  0.69950  0.56218  1.0000
  H   H3673     1.0  0.48620  0.69014  0.58423  1.0000
  C   C2173     1.0  0.50522  0.48553  0.58669  1.0000
  H   H3674     1.0  0.42550  0.68575  0.83550  1.0000
  H   H3675     1.0  0.39658  0.96789  0.64740  1.0000
  H   H3676     1.0  0.43103  0.66468  0.62856  1.0000
  C   C2174     1.0  0.43156  0.64654  0.68379  1.0000
  C   C2175     1.0  0.50470  0.94138  0.50413  1.0000
  C   C2176     1.0  0.49241  0.95826  0.50432  1.0000
  H   H3677     1.0  0.50402  0.93053  0.51621  1.0000
  C   C2177     1.0  0.56764  0.82167  0.90153  1.0000
  N   N150      1.0  0.51913  0.48585  0.59755  1.0000
  H   H3678     1.0  0.56048  0.93125  0.85050  1.0000
  C   C2178     1.0  0.55703  0.79091  0.89663  1.0000
  C   C2179     1.0  0.54495  0.80254  0.90780  1.0000
  C   C2180     1.0  0.55007  0.81808  0.90998  1.0000
  H   H3679     1.0  0.54546  0.87746  0.66447  1.0000
  H   H3680     1.0  0.43040  0.66161  0.67923  1.0000
  H   H3681     1.0  0.53157  0.79951  0.91473  1.0000
  H   H3682     1.0  0.54052  0.82716  0.91842  1.0000
  H   H3683     1.0  0.42354  0.91855  0.96639  1.0000
  H   H3684     1.0  0.56724  0.84775  0.62573  1.0000
  C   C2181     1.0  0.47811  0.68278  0.57947  1.0000
  H   H3685     1.0  0.47120  0.69609  0.54369  1.0000
  C   C2182     1.0  0.46505  0.86400  0.93800  1.0000
  C   C2183     1.0  0.46088  0.87683  0.92233  1.0000
  C   C2184     1.0  0.44448  0.87795  0.91656  1.0000
  C   C2185     1.0  0.43225  0.86622  0.92636  1.0000
  C   C2186     1.0  0.43665  0.85309  0.94178  1.0000
  C   C2187     1.0  0.45301  0.85202  0.94759  1.0000
  H   H3686     1.0  0.47015  0.88607  0.91483  1.0000
  H   H3687     1.0  0.44117  0.88808  0.90457  1.0000
  H   H3688     1.0  0.42746  0.84380  0.94924  1.0000
  C   C2188     1.0  0.51998  0.57382  0.90389  1.0000
  H   H3689     1.0  0.39158  0.67261  0.83048  1.0000
  H   H3690     1.0  0.40593  0.73519  0.48137  1.0000
  H   H3691     1.0  0.45636  0.84189  0.95955  1.0000
  C   C2189     1.0  0.57723  0.66405  0.54115  1.0000
  H   H3692     1.0  0.46666  0.89745  0.50483  1.0000
  H   H3693     1.0  0.56321  0.94949  0.70028  1.0000
  C   C2190     1.0  0.51871  0.95215  0.47217  1.0000
  N   N151      1.0  0.56867  0.72081  0.77482  1.0000
  C   C2191     1.0  0.51467  0.95876  0.82903  1.0000
  C   C2192     1.0  0.51906  0.93949  0.83419  1.0000
  C   C2193     1.0  0.51408  0.93071  0.85259  1.0000
  C   C2194     1.0  0.50427  0.94123  0.86575  1.0000
  S   S656      1.0  0.57744  0.51369  0.51967  1.0000
  H   H3694     1.0  0.48172  0.93987  0.48132  1.0000
  H   H3695     1.0  0.52665  0.93142  0.82396  1.0000
  H   H3696     1.0  0.50021  0.93455  0.87992  1.0000
  H   H3697     1.0  0.58233  0.56630  0.85997  1.0000
  C   C2195     1.0  0.39502  0.94001  0.59298  1.0000
  C   C2196     1.0  0.54433  0.48599  0.56779  1.0000
  H   H3698     1.0  0.43738  0.91381  0.49121  1.0000
  H   H3699     1.0  0.53957  0.94386  0.89517  1.0000
  S   S657      1.0  0.46550  0.62665  0.82907  1.0000
  H   H3700     1.0  0.54718  0.81562  0.82195  1.0000
  H   H3701     1.0  0.52357  0.82926  0.65067  1.0000
  H   H3702     1.0  0.44731  0.58713  0.79616  1.0000
  H   H3703     1.0  0.52049  0.48425  0.95145  1.0000
  H   H3704     1.0  0.57478  0.53108  0.94015  1.0000
  H   H3705     1.0  0.45681  0.61410  0.80081  1.0000
  C   C2197     1.0  0.55408  0.91671  0.95085  1.0000
  C   C2198     1.0  0.48496  0.70003  0.54043  1.0000
  S   S658      1.0  0.57644  0.88787  0.68481  1.0000
  H   H3706     1.0  0.41772  0.64298  0.68938  1.0000
  C   C2199     1.0  0.44794  0.71491  0.83992  1.0000
  H   H3707     1.0  0.46473  0.52171  0.65846  1.0000
  H   H3708     1.0  0.51713  0.95594  0.74325  1.0000
  C   C2200     1.0  0.39521  0.76503  0.47287  1.0000
  C   C2201     1.0  0.50918  0.49720  0.61190  1.0000
  S   S659      1.0  0.42734  0.57442  0.68997  1.0000
  H   H3709     1.0  0.39698  0.61596  0.79506  1.0000
  H   H3710     1.0  0.52784  0.50969  0.57846  1.0000
  N   N152      1.0  0.50385  0.66842  0.72053  1.0000
  C   C2202     1.0  0.50340  0.68375  0.70367  1.0000
  C   C2203     1.0  0.48439  0.66514  0.72762  1.0000
  C   C2204     1.0  0.51620  0.65135  0.71457  1.0000
  C   C2205     1.0  0.51127  0.67420  0.73425  1.0000
  C   C2206     1.0  0.52227  0.68740  0.69197  1.0000
  C   C2207     1.0  0.46972  0.68183  0.73302  1.0000
  C   C2208     1.0  0.51813  0.63366  0.72947  1.0000
  C   C2209     1.0  0.50634  0.66460  0.75471  1.0000
  H   H3711     1.0  0.49569  0.68125  0.69427  1.0000
  H   H3712     1.0  0.49572  0.69706  0.70752  1.0000
  H   H3713     1.0  0.48338  0.65375  0.73970  1.0000
  H   H3714     1.0  0.47977  0.66055  0.71710  1.0000
  H   H3715     1.0  0.51135  0.64809  0.70347  1.0000
  H   H3716     1.0  0.53056  0.65351  0.70864  1.0000
  H   H3717     1.0  0.52660  0.67238  0.73027  1.0000
  H   H3718     1.0  0.50612  0.68920  0.73398  1.0000
  H   H3719     1.0  0.53156  0.68875  0.70038  1.0000
  H   H3720     1.0  0.52917  0.67658  0.68380  1.0000
  H   H3721     1.0  0.51999  0.70052  0.68182  1.0000
  H   H3722     1.0  0.45662  0.67717  0.74033  1.0000
  H   H3723     1.0  0.47383  0.68819  0.74245  1.0000
  H   H3724     1.0  0.46662  0.69232  0.72070  1.0000
  H   H3725     1.0  0.52566  0.63475  0.73965  1.0000
  H   H3726     1.0  0.52663  0.62218  0.72275  1.0000
  H   H3727     1.0  0.50475  0.62953  0.73636  1.0000
  H   H3728     1.0  0.51853  0.66207  0.76110  1.0000
  H   H3729     1.0  0.50225  0.65122  0.75723  1.0000
  H   H3730     1.0  0.49528  0.67382  0.76257  1.0000
  C   C2210     1.0  0.57379  0.58185  0.91187  1.0000
  C   C2211     1.0  0.55899  0.96187  0.70585  1.0000
  C   C2212     1.0  0.44911  0.59872  0.78490  1.0000
  H   H3731     1.0  0.56714  0.94281  0.89746  1.0000
  H   H3732     1.0  0.56290  0.96235  0.84826  1.0000
  H   H3733     1.0  0.55827  0.70911  0.75734  1.0000
  C   C2213     1.0  0.45561  0.66622  0.63670  1.0000
  N   N153      1.0  0.40013  0.65391  0.81134  1.0000
  H   H3734     1.0  0.43100  0.67739  0.79293  1.0000
  H   H3735     1.0  0.51161  0.47685  0.57620  1.0000
  H   H3736     1.0  0.55667  0.49212  0.56071  1.0000
  H   H3737     1.0  0.54296  0.93097  0.87074  1.0000
  H   H3738     1.0  0.38669  0.55429  0.65205  1.0000
  H   H3739     1.0  0.48189  0.96090  0.74675  1.0000
  H   H3740     1.0  0.41258  0.69364  0.78338  1.0000
  C   C2214     1.0  0.57220  0.72519  0.66630  1.0000
  H   H3741     1.0  0.55085  0.57383  0.87674  1.0000
  C   C2215     1.0  0.43499  0.90649  0.96545  1.0000
  H   H3742     1.0  0.46579  0.65799  0.62727  1.0000
  H   H3743     1.0  0.48847  0.81473  0.52998  1.0000
  H   H3744     1.0  0.44547  0.81444  0.90042  1.0000
  H   H3745     1.0  0.50970  0.94854  0.53782  1.0000
  H   H3746     1.0  0.50039  0.49957  0.57886  1.0000
  H   H3747     1.0  0.45812  0.60067  0.63496  1.0000
  C   C2216     1.0  0.55526  0.89932  0.96242  1.0000
  H   H3748     1.0  0.43904  0.64224  0.69537  1.0000
  S   S660      1.0  0.39516  0.82545  0.95583  1.0000
  C   C2217     1.0  0.50433  0.89581  0.49333  1.0000
  S   S661      1.0  0.43881  0.57925  0.76512  1.0000
  H   H3749     1.0  0.57505  0.74761  0.76129  1.0000
  C   C2218     1.0  0.54678  0.86656  0.83334  1.0000
  H   H3750     1.0  0.38684  0.64869  0.66288  1.0000
  H   H3751     1.0  0.48081  0.66499  0.56080  1.0000
  H   H3752     1.0  0.57130  0.84844  0.94237  1.0000
  H   H3753     1.0  0.48821  0.96722  0.55819  1.0000
  H   H3754     1.0  0.55120  0.86712  0.84589  1.0000
  H   H3755     1.0  0.43532  0.69635  0.86312  1.0000
  H   H3756     1.0  0.46593  0.69268  0.57510  1.0000
  C   C2219     1.0  0.43411  0.51441  0.69909  1.0000
  H   H3757     1.0  0.42218  0.74197  0.87639  1.0000
  C   C2220     1.0  0.44609  0.52327  0.68457  1.0000
  H   H3758     1.0  0.50661  0.56908  0.90850  1.0000
  C   C2221     1.0  0.44927  0.69965  0.85732  1.0000
  H   H3759     1.0  0.56192  0.94758  0.73337  1.0000
  C   C2222     1.0  0.44573  0.59854  0.76780  1.0000
  H   H3760     1.0  0.42413  0.62522  0.84486  1.0000
  C   C2223     1.0  0.50496  0.96927  0.84223  1.0000
  H   H3761     1.0  0.42024  0.71947  0.87642  1.0000
  H   H3762     1.0  0.40892  0.95773  0.57007  1.0000
  H   H3763     1.0  0.47394  0.88554  0.48630  1.0000
  N   N154      1.0  0.48721  0.82323  0.89998  1.0000
  C   C2224     1.0  0.49551  0.82870  0.91326  1.0000
  C   C2225     1.0  0.49082  0.83653  0.88186  1.0000
  C   C2226     1.0  0.49742  0.80412  0.89764  1.0000
  C   C2227     1.0  0.46693  0.82367  0.90797  1.0000
  C   C2228     1.0  0.49357  0.81700  0.93303  1.0000
  C   C2229     1.0  0.48119  0.85681  0.88182  1.0000
  C   C2230     1.0  0.49152  0.79547  0.88450  1.0000
  C   C2231     1.0  0.45426  0.82495  0.89456  1.0000
  H   H3764     1.0  0.51045  0.82876  0.90774  1.0000
  H   H3765     1.0  0.48913  0.84297  0.91498  1.0000
  H   H3766     1.0  0.48685  0.83262  0.87068  1.0000
  H   H3767     1.0  0.50594  0.83626  0.87711  1.0000
  H   H3768     1.0  0.51251  0.80387  0.89274  1.0000
  H   H3769     1.0  0.49596  0.79416  0.91098  1.0000
  H   H3770     1.0  0.46504  0.81138  0.91914  1.0000
  H   H3771     1.0  0.46100  0.83567  0.91477  1.0000
  H   H3772     1.0  0.38603  0.77540  0.48054  1.0000
  H   H3773     1.0  0.56025  0.55324  0.94099  1.0000
  C   C2232     1.0  0.47231  0.93007  0.48816  1.0000
  H   H3774     1.0  0.46108  0.66505  0.64916  1.0000
  C   C2233     1.0  0.53318  0.95838  0.89045  1.0000
  C   C2234     1.0  0.46656  0.89903  0.49000  1.0000
  H   H3775     1.0  0.47735  0.79273  0.88987  1.0000
  H   H3776     1.0  0.50084  0.78187  0.88367  1.0000
  H   H3777     1.0  0.49294  0.80359  0.87024  1.0000
  H   H3778     1.0  0.47894  0.81704  0.93992  1.0000
  H   H3779     1.0  0.46141  0.82283  0.88062  1.0000
  H   H3780     1.0  0.52889  0.85424  0.66478  1.0000
  C   C2235     1.0  0.42758  0.72721  0.88165  1.0000
  H   H3781     1.0  0.53269  0.84496  0.84735  1.0000
  C   C2236     1.0  0.53771  0.88634  0.65391  1.0000
  C   C2237     1.0  0.51617  0.95315  0.54691  1.0000
  H   H3782     1.0  0.57934  0.69606  0.76349  1.0000
  C   C2238     1.0  0.53692  0.80954  0.85124  1.0000
  Fe  Fe327     1.0  0.57210  0.49958  0.89074  1.0000
  Fe  Fe328     1.0  0.43429  0.57854  0.73717  1.0000
  H   H3783     1.0  0.45769  0.68700  0.85252  1.0000
  Fe  Fe329     1.0  0.57113  0.93740  0.62685  1.0000
  H   H3784     1.0  0.54549  0.58012  0.92344  1.0000
  H   H3785     1.0  0.57193  0.70409  0.81152  1.0000
  C   C2239     1.0  0.56121  0.93019  0.95479  1.0000
  H   H3786     1.0  0.40889  0.76924  0.46860  1.0000
  H   H3787     1.0  0.40135  0.63830  0.84980  1.0000
  C   C2240     1.0  0.54299  0.84747  0.83432  1.0000
  H   H3788     1.0  0.54025  0.80948  0.86451  1.0000
  H   H3789     1.0  0.39356  0.66260  0.88685  1.0000
  H   H3790     1.0  0.53521  0.79540  0.85187  1.0000
  C   C2241     1.0  0.53534  0.55782  0.91030  1.0000
  H   H3791     1.0  0.39679  0.51600  0.69327  1.0000
  C   C2242     1.0  0.51788  0.93840  0.48817  1.0000
  H   H3792     1.0  0.51180  0.50923  0.63361  1.0000
  C   C2243     1.0  0.58289  0.85051  0.68772  1.0000
  N   N155      1.0  0.45712  0.70373  0.87175  1.0000
  C   C2244     1.0  0.47768  0.70216  0.86485  1.0000
  H   H3793     1.0  0.51246  0.96923  0.76096  1.0000
  C   C2245     1.0  0.45275  0.69026  0.88953  1.0000
  C   C2246     1.0  0.44883  0.72287  0.87517  1.0000
  C   C2247     1.0  0.48878  0.70340  0.87864  1.0000
  H   H3794     1.0  0.58168  0.95720  0.89759  1.0000
  H   H3795     1.0  0.54938  0.59113  0.89982  1.0000
  C   C2248     1.0  0.48400  0.80166  0.53153  1.0000
  H   H3796     1.0  0.48403  0.68906  0.85993  1.0000
  H   H3797     1.0  0.48066  0.71315  0.85256  1.0000
  H   H3798     1.0  0.56891  0.85679  0.59264  1.0000
  H   H3799     1.0  0.49989  0.90346  0.50468  1.0000
  H   H3800     1.0  0.45677  0.69386  0.90097  1.0000
  H   H3801     1.0  0.43755  0.69094  0.89391  1.0000
  H   H3802     1.0  0.45449  0.72551  0.88607  1.0000
  H   H3803     1.0  0.45297  0.73356  0.86296  1.0000
  H   H3804     1.0  0.48483  0.71700  0.88262  1.0000
  H   H3805     1.0  0.48774  0.69229  0.89107  1.0000
  H   H3806     1.0  0.50364  0.70173  0.87191  1.0000
  H   H3807     1.0  0.56545  0.79338  0.76465  1.0000
  H   H3808     1.0  0.53541  0.82154  0.66942  1.0000
  H   H3809     1.0  0.43710  0.72704  0.84291  1.0000
  H   H3810     1.0  0.47530  0.51473  0.70757  1.0000
  H   H3811     1.0  0.44392  0.60276  0.65698  1.0000
  H   H3812     1.0  0.53366  0.87686  0.83295  1.0000
  H   H3813     1.0  0.41494  0.61614  0.80590  1.0000
  H   H3814     1.0  0.52590  0.94078  0.55244  1.0000
  H   H3815     1.0  0.54802  0.71784  0.80012  1.0000
  N   N156      1.0  0.53918  0.86152  0.63523  1.0000
  C   C2249     1.0  0.55385  0.85261  0.62103  1.0000
  H   H3816     1.0  0.55020  0.95530  0.54841  1.0000
  C   C2250     1.0  0.54405  0.87939  0.63560  1.0000
  C   C2251     1.0  0.52090  0.86497  0.62946  1.0000
  C   C2252     1.0  0.55760  0.86475  0.60156  1.0000
  C   C2253     1.0  0.39990  0.65400  0.65840  1.0000
  H   H3817     1.0  0.48952  0.50204  0.72363  1.0000
  C   C2254     1.0  0.57485  0.79411  0.88864  1.0000
  H   H3818     1.0  0.55024  0.84009  0.61914  1.0000
  H   H3819     1.0  0.40835  0.52880  0.64329  1.0000
  H   H3820     1.0  0.53886  0.89064  0.62469  1.0000
  H   H3821     1.0  0.52067  0.87539  0.61642  1.0000
  H   H3822     1.0  0.51882  0.85227  0.62640  1.0000
  Fe  Fe330     1.0  0.38970  0.85313  0.93746  1.0000
  H   H3823     1.0  0.55980  0.54975  0.88044  1.0000
  H   H3824     1.0  0.58180  0.54585  0.90957  1.0000
  C   C2255     1.0  0.57480  0.95330  0.88837  1.0000
  S   S662      1.0  0.54463  0.92187  0.93090  1.0000
  H   H3825     1.0  0.58031  0.87039  0.91928  1.0000
  H   H3826     1.0  0.44397  0.70964  0.82954  1.0000
  H   H3827     1.0  0.49119  0.87295  0.63736  1.0000
  H   H3828     1.0  0.50319  0.88584  0.64476  1.0000
  N   N157      1.0  0.49642  0.56359  0.81224  1.0000
  C   C2256     1.0  0.51095  0.57527  0.80400  1.0000
  C   C2257     1.0  0.50495  0.54653  0.82446  1.0000
  C   C2258     1.0  0.48032  0.57454  0.82357  1.0000
  C   C2259     1.0  0.49065  0.55932  0.79658  1.0000
  C   C2260     1.0  0.50431  0.59496  0.79352  1.0000
  C   C2261     1.0  0.52192  0.53419  0.81483  1.0000
  C   C2262     1.0  0.46744  0.56375  0.83905  1.0000
  C   C2263     1.0  0.47711  0.54605  0.80155  1.0000
  H   H3829     1.0  0.51751  0.57671  0.81488  1.0000
  H   H3830     1.0  0.52238  0.56864  0.79407  1.0000
  H   H3831     1.0  0.49496  0.53751  0.83182  1.0000
  H   H3832     1.0  0.50919  0.55039  0.83564  1.0000
  H   H3833     1.0  0.48533  0.58293  0.83053  1.0000
  H   H3834     1.0  0.47148  0.58460  0.81458  1.0000
  H   H3835     1.0  0.48375  0.57213  0.78836  1.0000
  H   H3836     1.0  0.50280  0.55417  0.78633  1.0000
  H   H3837     1.0  0.51633  0.60188  0.78805  1.0000
  H   H3838     1.0  0.49852  0.59506  0.78160  1.0000
  H   H3839     1.0  0.49414  0.60354  0.80266  1.0000
  H   H3840     1.0  0.51878  0.52943  0.80365  1.0000
  H   H3841     1.0  0.53395  0.54106  0.80954  1.0000
  H   H3842     1.0  0.52622  0.52171  0.82510  1.0000
  H   H3843     1.0  0.45556  0.57369  0.84503  1.0000
  H   H3844     1.0  0.47451  0.55589  0.85048  1.0000
  H   H3845     1.0  0.46170  0.55441  0.83416  1.0000
  H   H3846     1.0  0.46256  0.55363  0.80391  1.0000
  H   H3847     1.0  0.47932  0.53476  0.81346  1.0000
  H   H3848     1.0  0.47924  0.53907  0.78988  1.0000
  H   H3849     1.0  0.48130  0.80154  0.51798  1.0000
  C   C2264     1.0  0.38545  0.66512  0.82366  1.0000
  C   C2265     1.0  0.41602  0.64484  0.82095  1.0000
  N   N158      1.0  0.47642  0.91423  0.47846  1.0000
  C   C2266     1.0  0.39474  0.90409  0.95389  1.0000
  C   C2267     1.0  0.58024  0.80937  0.89130  1.0000
  C   C2268     1.0  0.49699  0.90661  0.47581  1.0000
  C   C2269     1.0  0.40738  0.66569  0.79328  1.0000
  H   H3850     1.0  0.42775  0.63758  0.81177  1.0000
  N   N159      1.0  0.46691  0.80049  0.56557  1.0000
  C   C2270     1.0  0.46612  0.79992  0.54623  1.0000
  C   C2271     1.0  0.44916  0.79584  0.57789  1.0000
  C   C2272     1.0  0.48334  0.78617  0.57086  1.0000
  C   C2273     1.0  0.46909  0.81951  0.56554  1.0000
  H   H3851     1.0  0.45739  0.66137  0.90286  1.0000
  C   C2274     1.0  0.43133  0.80983  0.57444  1.0000
  C   C2275     1.0  0.48288  0.77827  0.59154  1.0000
  C   C2276     1.0  0.46844  0.82391  0.58426  1.0000
  H   H3852     1.0  0.46246  0.78684  0.54597  1.0000
  H   H3853     1.0  0.45507  0.81097  0.54107  1.0000
  H   H3854     1.0  0.44919  0.79433  0.59264  1.0000
  H   H3855     1.0  0.44755  0.78214  0.57667  1.0000
  H   H3856     1.0  0.48515  0.77392  0.56480  1.0000
  H   H3857     1.0  0.49635  0.79152  0.56503  1.0000
  H   H3858     1.0  0.48254  0.82232  0.55687  1.0000
  H   H3859     1.0  0.45884  0.83030  0.55872  1.0000
  C   C2277     1.0  0.49954  0.96045  0.86052  1.0000
  H   H3860     1.0  0.49947  0.82316  0.94137  1.0000
  C   C2278     1.0  0.57258  0.83496  0.81548  1.0000
  H   H3861     1.0  0.42861  0.81091  0.56065  1.0000
  H   H3862     1.0  0.41937  0.80512  0.58457  1.0000
  H   H3863     1.0  0.43147  0.82368  0.57632  1.0000
  H   H3864     1.0  0.49657  0.76949  0.59325  1.0000
  H   H3865     1.0  0.47267  0.76912  0.59732  1.0000
  H   H3866     1.0  0.48007  0.78899  0.59972  1.0000
  H   H3867     1.0  0.48234  0.81977  0.58779  1.0000
  H   H3868     1.0  0.45833  0.81770  0.59566  1.0000
  H   H3869     1.0  0.46371  0.83900  0.58340  1.0000
  S   S663      1.0  0.42989  0.65355  0.86489  1.0000
  Fe  Fe331     1.0  0.45163  0.58093  0.69673  1.0000
  H   H3870     1.0  0.38634  0.50092  0.68763  1.0000
  C   C2279     1.0  0.55464  0.69119  0.78356  1.0000
  C   C2280     1.0  0.53944  0.84857  0.65365  1.0000
  S   S664      1.0  0.40388  0.80654  0.50396  1.0000
  H   H3871     1.0  0.52200  0.57825  0.88877  1.0000
  H   H3872     1.0  0.47680  0.66738  0.88572  1.0000
  H   H3873     1.0  0.57785  0.55178  0.51547  1.0000
  C   C2281     1.0  0.40559  0.51971  0.65713  1.0000
  C   C2282     1.0  0.39158  0.63989  0.80745  1.0000
  H   H3874     1.0  0.41858  0.65725  0.78469  1.0000
  C   C2283     1.0  0.55237  0.81458  0.83462  1.0000
  S   S665      1.0  0.56253  0.93730  0.60065  1.0000
  H   H3875     1.0  0.46298  0.62855  0.63801  1.0000
  H   H3876     1.0  0.53936  0.73198  0.78100  1.0000
  S   S666      1.0  0.46494  0.48719  0.65046  1.0000
  H   H3877     1.0  0.55930  0.87834  0.63225  1.0000
  C   C2284     1.0  0.43154  0.49704  0.69867  1.0000
  H   H3878     1.0  0.48294  0.86474  0.86742  1.0000
  H   H3879     1.0  0.49190  0.96854  0.87073  1.0000
  C   C2285     1.0  0.43635  0.66111  0.64156  1.0000
  H   H3880     1.0  0.44449  0.83845  0.89337  1.0000
  C   C2286     1.0  0.57978  0.56689  0.87477  1.0000
  H   H3881     1.0  0.55968  0.68643  0.79661  1.0000
  C   C2287     1.0  0.53391  0.49521  0.58426  1.0000
  Fe  Fe332     1.0  0.42896  0.79584  0.48402  1.0000
  H   H3882     1.0  0.56026  0.94369  0.94596  1.0000
  C   C2288     1.0  0.50351  0.87184  0.64311  1.0000
  C   C2289     1.0  0.47742  0.50189  0.71814  1.0000
  H   H3883     1.0  0.42369  0.72428  0.89693  1.0000
  H   H3884     1.0  0.48750  0.86342  0.88934  1.0000
  C   C2290     1.0  0.55154  0.72831  0.78769  1.0000
  C   C2291     1.0  0.54135  0.96915  0.54526  1.0000
  H   H3885     1.0  0.50142  0.80270  0.93364  1.0000
  C   C2292     1.0  0.39487  0.67331  0.87459  1.0000
  C   C2293     1.0  0.40500  0.62509  0.79748  1.0000
  H   H3886     1.0  0.53910  0.96731  0.91325  1.0000
  H   H3887     1.0  0.42181  0.65536  0.82421  1.0000
  H   H3888     1.0  0.44663  0.63511  0.62346  1.0000
  H   H3889     1.0  0.56363  0.61729  0.56634  1.0000
  Fe  Fe333     1.0  0.56830  0.95573  0.65858  1.0000
  H   H3890     1.0  0.56375  0.80228  0.83506  1.0000
  H   H3891     1.0  0.55282  0.75761  0.78345  1.0000
  C   C2294     1.0  0.56706  0.54492  0.91392  1.0000
  S   S667      1.0  0.56746  0.78170  0.80308  1.0000
  H   H3892     1.0  0.56540  0.83674  0.80395  1.0000
  N   N160      1.0  0.49940  0.68388  0.54711  1.0000
  N   N161      1.0  0.54555  0.96803  0.87422  1.0000
  C   C2295     1.0  0.50731  0.67201  0.53287  1.0000
  C   C2296     1.0  0.51426  0.69022  0.55226  1.0000
  C   C2297     1.0  0.52197  0.65474  0.53800  1.0000
  C   C2298     1.0  0.52719  0.70048  0.53647  1.0000
  H   H3893     1.0  0.50029  0.66141  0.57101  1.0000
  H   H3894     1.0  0.51397  0.67986  0.51965  1.0000
  H   H3895     1.0  0.49601  0.66736  0.52956  1.0000
  H   H3896     1.0  0.52312  0.67835  0.55965  1.0000
  H   H3897     1.0  0.53438  0.65838  0.54000  1.0000
  H   H3898     1.0  0.51653  0.64495  0.55032  1.0000
  H   H3899     1.0  0.52666  0.64726  0.52645  1.0000
  H   H3900     1.0  0.47753  0.72140  0.51728  1.0000
  H   H3901     1.0  0.53487  0.69206  0.52610  1.0000
  H   H3902     1.0  0.53769  0.70374  0.54226  1.0000
  H   H3903     1.0  0.51971  0.71381  0.52988  1.0000
  H   H3904     1.0  0.49545  0.78984  0.53426  1.0000
  H   H3905     1.0  0.40533  0.97173  0.61440  1.0000
  Fe  Fe334     1.0  0.41026  0.59365  0.70827  1.0000
  H   H3906     1.0  0.51848  0.95848  0.91863  1.0000
  H   H3907     1.0  0.42723  0.67080  0.65018  1.0000
  S   S668      1.0  0.42218  0.52477  0.71784  1.0000
  H   H3908     1.0  0.53973  0.69761  0.78656  1.0000
  H   H3909     1.0  0.56225  0.87739  0.60147  1.0000
  H   H3910     1.0  0.51835  0.58586  0.91012  1.0000
  Fe  Fe335     1.0  0.57408  0.76174  0.82883  1.0000
  C   C2299     1.0  0.48823  0.97152  0.74902  1.0000
  C   C2300     1.0  0.45243  0.94139  0.49080  1.0000
  H   H3911     1.0  0.50245  0.51110  0.60528  1.0000
  N   N162      1.0  0.55936  0.83167  0.83374  1.0000
  H   H3912     1.0  0.46130  0.71924  0.83343  1.0000
  C   C2301     1.0  0.39811  0.70101  0.84306  1.0000
  H   H3913     1.0  0.53578  0.84880  0.82293  1.0000
  Fe  Fe336     1.0  0.42740  0.55300  0.71594  1.0000
  C   C2302     1.0  0.46150  0.66992  0.88905  1.0000
  H   H3914     1.0  0.45640  0.66497  0.87924  1.0000
  C   C2303     1.0  0.41294  0.68625  0.84569  1.0000
  C   C2304     1.0  0.41141  0.67231  0.86141  1.0000
  H   H3915     1.0  0.55289  0.84686  0.65768  1.0000
  H   H3916     1.0  0.49548  0.94484  0.57087  1.0000
  S   S669      1.0  0.43455  0.60212  0.71290  1.0000
  H   H3917     1.0  0.50178  0.86226  0.65663  1.0000
  H   H3918     1.0  0.50447  0.96323  0.57310  1.0000
  H   H3919     1.0  0.52280  0.88745  0.65967  1.0000
  C   C2305     1.0  0.52712  0.96708  0.90765  1.0000
  H   H3920     1.0  0.40613  0.61966  0.83755  1.0000
  H   H3921     1.0  0.39612  0.54642  0.69071  1.0000
  H   H3922     1.0  0.44373  0.93521  0.50369  1.0000
  C   C2306     1.0  0.56246  0.97063  0.87927  1.0000
  C   C2307     1.0  0.41612  0.63807  0.65387  1.0000
  H   H3923     1.0  0.55563  0.67880  0.77808  1.0000
  H   H3924     1.0  0.44290  0.62127  0.67460  1.0000
  C   C2308     1.0  0.41577  0.68163  0.79453  1.0000
  S   S670      1.0  0.57309  0.73293  0.68587  1.0000
  H   H3925     1.0  0.56637  0.93115  0.87164  1.0000
  H   H3926     1.0  0.39668  0.67132  0.78467  1.0000
  N   N163      1.0  0.43554  0.64136  0.65076  1.0000
  H   H3927     1.0  0.50018  0.88225  0.49829  1.0000
  C   C2309     1.0  0.56749  0.63035  0.55938  1.0000
  H   H3928     1.0  0.57624  0.81411  0.85263  1.0000
  Fe  Fe337     1.0  0.57826  0.91417  0.66370  1.0000
  C   C2310     1.0  0.44638  0.90064  0.48862  1.0000
  S   S671      1.0  0.56904  0.70499  0.61585  1.0000
  N   N164      1.0  0.38657  0.52658  0.66777  1.0000
  C   C2311     1.0  0.58495  0.86895  0.65689  1.0000
  H   H3929     1.0  0.55869  0.74131  0.75236  1.0000
  C   C2312     1.0  0.49367  0.97229  0.48852  1.0000
  C   C2313     1.0  0.39712  0.74699  0.48727  1.0000
  C   C2314     1.0  0.57004  0.71261  0.63544  1.0000
  H   H3930     1.0  0.40021  0.49791  0.64587  1.0000
  H   H3931     1.0  0.55671  0.87126  0.82078  1.0000
  H   H3932     1.0  0.53948  0.96116  0.85089  1.0000
  C   C2315     1.0  0.56046  0.56277  0.88406  1.0000
  H   H3933     1.0  0.47532  0.92517  0.50223  1.0000
  H   H3934     1.0  0.51967  0.89303  0.48999  1.0000
  C   C2316     1.0  0.56275  0.54080  0.93516  1.0000
  H   H3935     1.0  0.43368  0.60799  0.63709  1.0000
  H   H3936     1.0  0.40377  0.74866  0.49792  1.0000
  C   C2317     1.0  0.44248  0.63607  0.66850  1.0000
  C   C2318     1.0  0.55549  0.93663  0.86344  1.0000
  H   H3937     1.0  0.53568  0.48852  0.55739  1.0000
  C   C2319     1.0  0.39826  0.55204  0.67567  1.0000
  C   C2320     1.0  0.44567  0.60911  0.64217  1.0000
  C   C2321     1.0  0.56834  0.82851  0.85001  1.0000
  S   S672      1.0  0.38804  0.76203  0.53834  1.0000
  H   H3938     1.0  0.53252  0.50662  0.61666  1.0000
  H   H3939     1.0  0.53943  0.74866  0.80488  1.0000
  H   H3940     1.0  0.57440  0.57962  0.92662  1.0000
  H   H3941     1.0  0.40099  0.66010  0.66960  1.0000
  C   C2322     1.0  0.57839  0.78380  0.76572  1.0000
  C   C2323     1.0  0.53562  0.96376  0.51730  1.0000
  H   H3942     1.0  0.45699  0.63778  0.66582  1.0000
  S   S673      1.0  0.58393  0.95999  0.62918  1.0000
  H   H3943     1.0  0.56638  0.53235  0.90960  1.0000
  H   H3944     1.0  0.52549  0.48682  0.63360  1.0000
  C   C2324     1.0  0.56582  0.70446  0.76894  1.0000
  H   H3945     1.0  0.39539  0.89099  0.94990  1.0000
  H   H3946     1.0  0.58078  0.65731  0.58761  1.0000
  C   C2325     1.0  0.44822  0.62927  0.63797  1.0000
  H   H3947     1.0  0.54958  0.88892  0.95971  1.0000
  H   H3948     1.0  0.44333  0.90925  0.95125  1.0000
  C   C2326     1.0  0.58284  0.84125  0.94947  1.0000
  H   H3949     1.0  0.41411  0.62570  0.66494  1.0000
  H   H3950     1.0  0.54496  0.97338  0.50939  1.0000
  S   S674      1.0  0.53082  0.47597  0.89654  1.0000
  H   H3951     1.0  0.45443  0.68085  0.62946  1.0000
  H   H3952     1.0  0.57751  0.84795  0.81284  1.0000
  H   H3953     1.0  0.40893  0.48947  0.66702  1.0000
  H   H3954     1.0  0.48022  0.47585  0.58825  1.0000
  H   H3955     1.0  0.55763  0.82979  0.86279  1.0000
  H   H3956     1.0  0.57655  0.83497  0.96366  1.0000
  H   H3957     1.0  0.57497  0.59643  0.90598  1.0000
  H   H3958     1.0  0.58039  0.84957  0.70243  1.0000
  H   H3959     1.0  0.41256  0.63103  0.78378  1.0000
  H   H3960     1.0  0.39848  0.66504  0.64599  1.0000
  C   C2327     1.0  0.50032  0.95768  0.56314  1.0000
  H   H3961     1.0  0.56393  0.74264  0.80174  1.0000
  H   H3962     1.0  0.58444  0.78490  0.88038  1.0000
  H   H3963     1.0  0.58092  0.67714  0.53402  1.0000
  H   H3964     1.0  0.57821  0.88553  0.93352  1.0000
  H   H3965     1.0  0.57697  0.68593  0.57358  1.0000
  H   H3966     1.0  0.52518  0.96562  0.50879  1.0000
  H   H3967     1.0  0.49787  0.49084  0.62154  1.0000
  C   C2328     1.0  0.58245  0.63103  0.54433  1.0000
  C   C2329     1.0  0.58296  0.77622  0.78306  1.0000
  N   N165      1.0  0.52641  0.96824  0.53601  1.0000
  C   C2330     1.0  0.58177  0.86781  0.67585  1.0000
  H   H3968     1.0  0.58064  0.58099  0.87522  1.0000
  H   H3969     1.0  0.58372  0.88214  0.64770  1.0000
  H   H3970     1.0  0.58325  0.90510  0.90593  1.0000
  C   C2331     1.0  0.58193  0.84102  0.84879  1.0000
  H   H3971     1.0  0.48041  0.47560  0.74633  1.0000
  H   H3972     1.0  0.58207  0.85301  0.83729  1.0000
  H   H3973     1.0  0.58483  0.71915  0.73635  1.0000
  H   H3974     1.0  0.45405  0.97391  0.73971  1.0000
  H   H3975     1.0  0.43885  0.47519  0.68351  1.0000
  C   C2332     1.0  0.58477  0.72077  0.63489  1.0000
  H   H3976     1.0  0.75141  0.22330  0.44276  1.0000
  Fe  Fe338     1.0  0.71776  0.16185  0.44165  1.0000
  S   S675      1.0  0.69913  0.18963  0.44034  1.0000
  S   S676      1.0  0.70637  0.13669  0.45775  1.0000
  S   S677      1.0  0.73552  0.20696  0.41582  1.0000
  Fe  Fe339     1.0  0.72281  0.19874  0.44576  1.0000
  Fe  Fe340     1.0  0.71332  0.19536  0.41067  1.0000
  S   S678      1.0  0.69968  0.20670  0.38602  1.0000
  S   S679      1.0  0.73028  0.16680  0.41164  1.0000
  Fe  Fe341     1.0  0.68964  0.01621  0.44612  1.0000
  S   S680      1.0  0.67383  0.03537  0.42533  1.0000
  H   H3977     1.0  0.71744  0.07411  0.46394  1.0000
  H   H3978     1.0  0.73715  0.05702  0.44456  1.0000
  H   H3979     1.0  0.75332  0.07877  0.99958  1.0000
  Fe  Fe342     1.0  0.64975  0.03675  0.44925  1.0000
  H   H3980     1.0  0.62644  0.34707  0.22383  1.0000
  Fe  Fe343     1.0  0.68140  0.05761  0.43480  1.0000
  S   S681      1.0  0.69263  0.08171  0.41565  1.0000
  S   S682      1.0  0.59201  0.22490  0.17874  1.0000
  C   C2333     1.0  0.60347  0.42072  0.43221  1.0000
  Fe  Fe344     1.0  0.73804  0.12646  0.05346  1.0000
  S   S683      1.0  0.73813  0.15623  0.05063  1.0000
  S   S684      1.0  0.71184  0.11563  0.05877  1.0000
  Fe  Fe345     1.0  0.75671  0.14664  0.07109  1.0000
  S   S685      1.0  0.75097  0.15821  0.09680  1.0000
  S   S686      1.0  0.75441  0.11717  0.07582  1.0000
  H   H3981     1.0  0.64604  0.19373  0.12659  1.0000
  Fe  Fe346     1.0  0.76921  0.24492  0.14533  1.0000
  H   H3982     1.0  0.63923  0.97894  0.41028  1.0000
  S   S687      1.0  0.74140  0.26216  0.14114  1.0000
  H   H3983     1.0  0.73394  0.19215  0.34621  1.0000
  C   C2334     1.0  0.59515  0.30772  0.41548  1.0000
  C   C2335     1.0  0.78122  0.39139  0.14896  1.0000
  C   C2336     1.0  0.73941  0.05112  0.45883  1.0000
  H   H3984     1.0  0.64759  0.16110  0.46247  1.0000
  H   H3985     1.0  0.58523  0.03576  0.34983  1.0000
  H   H3986     1.0  0.60659  0.14972  0.13681  1.0000
  C   C2337     1.0  0.59629  0.20055  0.27970  1.0000
  S   S688      1.0  0.61687  0.23174  0.30968  1.0000
  H   H3987     1.0  0.62926  0.47063  0.08198  1.0000
  C   C2338     1.0  0.59854  0.27943  0.39194  1.0000
  S   S689      1.0  0.61233  0.22349  0.40111  1.0000
  C   C2339     1.0  0.76470  0.23476  0.45786  1.0000
  C   C2340     1.0  0.67865  0.98257  0.38762  1.0000
  H   H3988     1.0  0.59616  0.32246  0.41158  1.0000
  H   H3989     1.0  0.65074  0.12984  0.00478  1.0000
  H   H3990     1.0  0.61411  0.28759  0.36363  1.0000
  S   S690      1.0  0.59987  0.25387  0.35415  1.0000
  C   C2341     1.0  0.65698  0.15585  0.45045  1.0000
  H   H3991     1.0  0.66365  0.00877  0.04299  1.0000
  Fe  Fe347     1.0  0.62031  0.10874  0.00242  1.0000
  H   H3992     1.0  0.63600  0.44146  0.20445  1.0000
  S   S691      1.0  0.59870  0.99535  0.39881  1.0000
  Fe  Fe348     1.0  0.63338  0.06749  0.01158  1.0000
  S   S692      1.0  0.65734  0.06743  0.98765  1.0000
  S   S693      1.0  0.62582  0.04176  0.03097  1.0000
  Fe  Fe349     1.0  0.66130  0.09247  0.99521  1.0000
  S   S694      1.0  0.68943  0.09908  0.99141  1.0000
  H   H3993     1.0  0.65088  0.14871  0.98580  1.0000
  S   S695      1.0  0.63920  0.09081  0.02089  1.0000
  S   S696      1.0  0.61266  0.08539  0.99510  1.0000
  Fe  Fe350     1.0  0.64349  0.24839  0.18947  1.0000
  C   C2342     1.0  0.59407  0.12750  0.06413  1.0000
  S   S697      1.0  0.67187  0.23267  0.19349  1.0000
  H   H3994     1.0  0.69249  0.14418  0.39120  1.0000
  S   S698      1.0  0.70935  0.98940  0.44239  1.0000
  C   C2343     1.0  0.61520  0.20045  0.10055  1.0000
  H   H3995     1.0  0.65870  0.14067  0.45388  1.0000
  H   H3996     1.0  0.62298  0.29426  0.41607  1.0000
  H   H3997     1.0  0.67853  0.44247  0.12903  1.0000
  H   H3998     1.0  0.63870  0.02745  0.41483  1.0000
  H   H3999     1.0  0.61675  0.41797  0.42241  1.0000
  H   H4000     1.0  0.62979  0.01182  0.39455  1.0000
  S   S699      1.0  0.59760  0.42607  0.17438  1.0000
  H   H4001     1.0  0.67881  0.45832  0.06360  1.0000
  H   H4002     1.0  0.60236  0.43478  0.38675  1.0000
  Fe  Fe351     1.0  0.58548  0.40720  0.16474  1.0000
  C   C2344     1.0  0.71897  0.98627  0.41967  1.0000
  Fe  Fe352     1.0  0.60695  0.26703  0.21039  1.0000
  H   H4003     1.0  0.62405  0.46025  0.16823  1.0000
  S   S700      1.0  0.73775  0.97495  0.36135  1.0000
  H   H4004     1.0  0.72598  0.16481  0.35647  1.0000
  C   C2345     1.0  0.78362  0.39831  0.12786  1.0000
  H   H4005     1.0  0.64478  0.17514  0.10895  1.0000
  C   C2346     1.0  0.61798  0.99795  0.00425  1.0000
  C   C2347     1.0  0.63110  0.00892  0.99519  1.0000
  C   C2348     1.0  0.63325  0.02275  0.00308  1.0000
  C   C2349     1.0  0.62238  0.02555  0.02016  1.0000
  C   C2350     1.0  0.60916  0.01470  0.02915  1.0000
  C   C2351     1.0  0.60681  0.00108  0.02112  1.0000
  H   H4006     1.0  0.64358  0.03097  0.99613  1.0000
  S   S701      1.0  0.59957  0.13419  0.00879  1.0000
  H   H4007     1.0  0.58954  0.35891  0.10465  1.0000
  H   H4008     1.0  0.60696  0.21340  0.10495  1.0000
  C   C2352     1.0  0.66857  0.45530  0.12790  1.0000
  C   C2353     1.0  0.62062  0.01401  0.40744  1.0000
  H   H4009     1.0  0.60759  0.45131  0.22265  1.0000
  C   C2354     1.0  0.73262  0.15596  0.34632  1.0000
  C   C2355     1.0  0.61005  0.24523  0.28940  1.0000
  C   C2356     1.0  0.62042  0.24157  0.27235  1.0000
  C   C2357     1.0  0.61464  0.25126  0.25598  1.0000
  H   H4010     1.0  0.63281  0.23095  0.27183  1.0000
  H   H4011     1.0  0.62260  0.24817  0.24290  1.0000
  H   H4012     1.0  0.65984  0.25816  0.39480  1.0000
  Fe  Fe353     1.0  0.76427  0.15094  0.02946  1.0000
  H   H4013     1.0  0.71269  0.19374  0.09239  1.0000
  H   H4014     1.0  0.77258  0.18233  0.35552  1.0000
  H   H4015     1.0  0.65001  0.97752  0.01520  1.0000
  H   H4016     1.0  0.61212  0.37352  0.15163  1.0000
  H   H4017     1.0  0.72993  0.14185  0.35222  1.0000
  H   H4018     1.0  0.61199  0.41259  0.39726  1.0000
  H   H4019     1.0  0.75681  0.38327  0.10679  1.0000
  H   H4020     1.0  0.58923  0.33093  0.12385  1.0000
  H   H4021     1.0  0.59961  0.24894  0.14295  1.0000
  H   H4022     1.0  0.58765  0.02236  0.45333  1.0000
  H   H4023     1.0  0.63978  0.97862  0.44686  1.0000
  H   H4024     1.0  0.63411  0.15945  0.12649  1.0000
  C   C2358     1.0  0.61661  0.34482  0.15080  1.0000
  C   C2359     1.0  0.59688  0.02004  0.44051  1.0000
  H   H4025     1.0  0.59006  0.44509  0.41570  1.0000
  C   C2360     1.0  0.78040  0.05169  0.09303  1.0000
  H   H4026     1.0  0.77216  0.36212  0.14146  1.0000
  H   H4027     1.0  0.63585  0.27806  0.25617  1.0000
  C   C2361     1.0  0.76158  0.36658  0.13283  1.0000
  C   C2362     1.0  0.72204  0.25487  0.15667  1.0000
  C   C2363     1.0  0.70424  0.26350  0.15369  1.0000
  C   C2364     1.0  0.68868  0.25702  0.16513  1.0000
  C   C2365     1.0  0.69089  0.24192  0.17965  1.0000
  C   C2366     1.0  0.70866  0.23356  0.18287  1.0000
  C   C2367     1.0  0.72421  0.24001  0.17141  1.0000
  H   H4028     1.0  0.70249  0.27505  0.14234  1.0000
  H   H4029     1.0  0.67499  0.26356  0.16260  1.0000
  H   H4030     1.0  0.71040  0.22192  0.19414  1.0000
  H   H4031     1.0  0.73785  0.23336  0.17391  1.0000
  C   C2368     1.0  0.70623  0.11053  0.04000  1.0000
  C   C2369     1.0  0.71532  0.11645  0.02198  1.0000
  C   C2370     1.0  0.71018  0.11266  0.00717  1.0000
  C   C2371     1.0  0.69582  0.10314  0.01030  1.0000
  C   C2372     1.0  0.68692  0.09699  0.02834  1.0000
  C   C2373     1.0  0.69214  0.10068  0.04316  1.0000
  H   H4032     1.0  0.72606  0.12423  0.01942  1.0000
  H   H4033     1.0  0.71714  0.11739  0.99322  1.0000
  H   H4034     1.0  0.67605  0.08938  0.03088  1.0000
  H   H4035     1.0  0.68521  0.09592  0.05711  1.0000
  C   C2374     1.0  0.76786  0.16820  0.10031  1.0000
  C   C2375     1.0  0.76645  0.17178  0.11773  1.0000
  H   H4036     1.0  0.75433  0.04866  0.45854  1.0000
  H   H4037     1.0  0.75919  0.42852  0.13867  1.0000
  H   H4038     1.0  0.62267  0.43020  0.19675  1.0000
  H   H4039     1.0  0.74053  0.10774  0.45551  1.0000
  H   H4040     1.0  0.75541  0.16781  0.12892  1.0000
  H   H4041     1.0  0.58608  0.26197  0.30309  1.0000
  H   H4042     1.0  0.72890  0.07709  0.02571  1.0000
  H   H4043     1.0  0.67677  0.99032  0.42570  1.0000
  H   H4044     1.0  0.59630  0.99310  0.02796  1.0000
  C   C2376     1.0  0.71379  0.99954  0.40468  1.0000
  C   C2377     1.0  0.72018  0.99608  0.38679  1.0000
  C   C2378     1.0  0.62969  0.29299  0.25392  1.0000
  H   H4045     1.0  0.63622  0.33097  0.25925  1.0000
  H   H4046     1.0  0.73564  0.03735  0.46267  1.0000
  H   H4047     1.0  0.70469  0.01238  0.40682  1.0000
  H   H4048     1.0  0.71580  0.00628  0.37529  1.0000
  H   H4049     1.0  0.61895  0.15633  0.09832  1.0000
  C   C2379     1.0  0.67539  0.21253  0.39009  1.0000
  C   C2380     1.0  0.66629  0.21588  0.37542  1.0000
  C   C2381     1.0  0.64688  0.21945  0.37856  1.0000
  C   C2382     1.0  0.63656  0.21959  0.39642  1.0000
  C   C2383     1.0  0.64563  0.21665  0.41099  1.0000
  C   C2384     1.0  0.66498  0.21325  0.40782  1.0000
  H   H4050     1.0  0.67427  0.21546  0.36164  1.0000
  H   H4051     1.0  0.63994  0.22183  0.36722  1.0000
  H   H4052     1.0  0.63768  0.21694  0.42480  1.0000
  H   H4053     1.0  0.67183  0.21103  0.41915  1.0000
  C   C2385     1.0  0.70304  0.12139  0.44575  1.0000
  C   C2386     1.0  0.71141  0.12163  0.42723  1.0000
  C   C2387     1.0  0.70829  0.10931  0.41805  1.0000
  C   C2388     1.0  0.69713  0.09646  0.42746  1.0000
  C   C2389     1.0  0.68912  0.09596  0.44606  1.0000
  C   C2390     1.0  0.69192  0.10852  0.45511  1.0000
  H   H4054     1.0  0.72024  0.13129  0.41999  1.0000
  H   H4055     1.0  0.71456  0.10966  0.40367  1.0000
  H   H4056     1.0  0.68047  0.08613  0.45342  1.0000
  H   H4057     1.0  0.64743  0.99872  0.44689  1.0000
  C   C2391     1.0  0.70654  0.24719  0.09926  1.0000
  H   H4058     1.0  0.63037  0.21523  0.11990  1.0000
  C   C2392     1.0  0.60811  0.26457  0.42173  1.0000
  Fe  Fe354     1.0  0.62004  0.28182  0.16992  1.0000
  H   H4059     1.0  0.61697  0.33808  0.20100  1.0000
  C   C2393     1.0  0.60120  0.29258  0.37302  1.0000
  H   H4060     1.0  0.69485  0.24180  0.09785  1.0000
  H   H4061     1.0  0.74018  0.08948  0.44458  1.0000
  C   C2394     1.0  0.61392  0.02566  0.43556  1.0000
  C   C2395     1.0  0.62571  0.02282  0.41889  1.0000
  H   H4062     1.0  0.78048  0.37513  0.10840  1.0000
  C   C2396     1.0  0.73192  0.97943  0.38373  1.0000
  H   H4063     1.0  0.63728  0.12893  0.41311  1.0000
  C   C2397     1.0  0.58791  0.34282  0.18169  1.0000
  H   H4064     1.0  0.76605  0.15555  0.37923  1.0000
  H   H4065     1.0  0.68916  0.47206  0.12127  1.0000
  H   H4066     1.0  0.59593  0.18586  0.25858  1.0000
  H   H4067     1.0  0.63985  0.00652  0.98218  1.0000
  H   H4068     1.0  0.64360  0.32643  0.18043  1.0000
  H   H4069     1.0  0.61391  0.25010  0.42013  1.0000
  H   H4070     1.0  0.59859  0.26563  0.38961  1.0000
  S   S702      1.0  0.69904  0.03832  0.45375  1.0000
  C   C2398     1.0  0.66621  0.99657  0.03667  1.0000
  H   H4071     1.0  0.60932  0.21076  0.07305  1.0000
  S   S703      1.0  0.58964  0.45626  0.13658  1.0000
  H   H4072     1.0  0.63154  0.20629  0.14342  1.0000
  C   C2399     1.0  0.59697  0.32694  0.17466  1.0000
  H   H4073     1.0  0.65431  0.46425  0.16633  1.0000
  H   H4074     1.0  0.73804  0.18659  0.36966  1.0000
  H   H4075     1.0  0.74587  0.39881  0.14419  1.0000
  H   H4076     1.0  0.65170  0.33066  0.19856  1.0000
  H   H4077     1.0  0.59266  0.31401  0.18108  1.0000
  H   H4078     1.0  0.76688  0.05018  0.10126  1.0000
  C   C2400     1.0  0.60772  0.36065  0.15799  1.0000
  C   C2401     1.0  0.71785  0.20554  0.15121  1.0000
  H   H4079     1.0  0.66454  0.98344  0.38581  1.0000
  H   H4080     1.0  0.76374  0.06934  0.46534  1.0000
  H   H4081     1.0  0.65956  0.97707  0.45689  1.0000
  H   H4082     1.0  0.59335  0.07863  0.40339  1.0000
  H   H4083     1.0  0.59181  0.20016  0.08888  1.0000
  N   N166      1.0  0.61532  0.18458  0.11692  1.0000
  C   C2402     1.0  0.61949  0.45921  0.18339  1.0000
  H   H4084     1.0  0.77048  0.20544  0.38840  1.0000
  H   H4085     1.0  0.62772  0.34562  0.13882  1.0000
  H   H4086     1.0  0.74618  0.24999  0.10440  1.0000
  C   C2403     1.0  0.61331  0.29613  0.40675  1.0000
  H   H4087     1.0  0.61719  0.31465  0.20192  1.0000
  H   H4088     1.0  0.70484  0.20539  0.12026  1.0000
  H   H4089     1.0  0.76798  0.10959  0.13624  1.0000
  H   H4090     1.0  0.58562  0.18948  0.12454  1.0000
  H   H4091     1.0  0.76059  0.23140  0.11745  1.0000
  S   S704      1.0  0.65589  0.06076  0.45681  1.0000
  H   H4092     1.0  0.78243  0.24908  0.22398  1.0000
  C   C2404     1.0  0.76678  0.38146  0.11584  1.0000
  H   H4093     1.0  0.60534  0.20953  0.28068  1.0000
  H   H4094     1.0  0.74551  0.43771  0.12103  1.0000
  Fe  Fe355     1.0  0.59770  0.22957  0.37745  1.0000
  H   H4095     1.0  0.60064  0.01691  0.04233  1.0000
  N   N167      1.0  0.61237  0.27777  0.40359  1.0000
  H   H4096     1.0  0.77072  0.18448  0.46027  1.0000
  S   S705      1.0  0.61610  0.98037  0.99420  1.0000
  H   H4097     1.0  0.59807  0.20986  0.24949  1.0000
  H   H4098     1.0  0.75248  0.09648  0.01188  1.0000
  Fe  Fe356     1.0  0.60721  0.24539  0.18193  1.0000
  C   C2405     1.0  0.61125  0.32795  0.15910  1.0000
  H   H4099     1.0  0.75482  0.20886  0.10210  1.0000
  H   H4100     1.0  0.70520  0.21620  0.15360  1.0000
  C   C2406     1.0  0.59416  0.38683  0.42074  1.0000
  S   S706      1.0  0.62202  0.30848  0.14946  1.0000
  H   H4101     1.0  0.62399  0.29085  0.22854  1.0000
  C   C2407     1.0  0.67462  0.47204  0.12341  1.0000
  C   C2408     1.0  0.75502  0.23609  0.10467  1.0000
  H   H4102     1.0  0.62210  0.18212  0.41304  1.0000
  C   C2409     1.0  0.77767  0.46087  0.10884  1.0000
  C   C2410     1.0  0.62389  0.33521  0.25281  1.0000
  H   H4103     1.0  0.60344  0.20103  0.13781  1.0000
  H   H4104     1.0  0.78040  0.40287  0.15576  1.0000
  C   C2411     1.0  0.76120  0.13015  0.37588  1.0000
  H   H4105     1.0  0.74220  0.22661  0.08807  1.0000
  C   C2412     1.0  0.64391  0.32185  0.19535  1.0000
  H   H4106     1.0  0.59961  0.11749  0.07512  1.0000
  H   H4107     1.0  0.62621  0.19232  0.03419  1.0000
  C   C2413     1.0  0.66516  0.98357  0.42643  1.0000
  Fe  Fe357     1.0  0.59759  0.23524  0.33675  1.0000
  C   C2414     1.0  0.64712  0.26440  0.40372  1.0000
  C   C2415     1.0  0.74384  0.19131  0.35492  1.0000
  C   C2416     1.0  0.78237  0.17296  0.08601  1.0000
  C   C2417     1.0  0.63193  0.16945  0.11351  1.0000
  C   C2418     1.0  0.78317  0.25415  0.20897  1.0000
  H   H4108     1.0  0.77647  0.23654  0.44672  1.0000
  H   H4109     1.0  0.77135  0.42647  0.10220  1.0000
  S   S707      1.0  0.61989  0.03629  0.45050  1.0000
  H   H4110     1.0  0.60964  0.41031  0.36775  1.0000
  H   H4111     1.0  0.60850  0.04387  0.98193  1.0000
  H   H4112     1.0  0.73468  0.20000  0.08537  1.0000
  H   H4113     1.0  0.59449  0.16612  0.15155  1.0000
  C   C2419     1.0  0.61654  0.19164  0.13323  1.0000
  H   H4114     1.0  0.59854  0.03964  0.36408  1.0000
  H   H4115     1.0  0.59694  0.19216  0.31706  1.0000
  H   H4116     1.0  0.62941  0.20307  0.09450  1.0000
  C   C2420     1.0  0.74480  0.22215  0.10224  1.0000
  C   C2421     1.0  0.73982  0.06794  0.06665  1.0000
  C   C2422     1.0  0.73278  0.21267  0.13504  1.0000
  C   C2423     1.0  0.62956  0.33304  0.23246  1.0000
  C   C2424     1.0  0.64423  0.46869  0.07565  1.0000
  S   S708      1.0  0.76693  0.17206  0.00296  1.0000
  N   N168      1.0  0.64271  0.15404  0.03180  1.0000
  C   C2425     1.0  0.62478  0.16276  0.04285  1.0000
  C   C2426     1.0  0.64606  0.13374  0.04008  1.0000
  C   C2427     1.0  0.64034  0.15710  0.01218  1.0000
  C   C2428     1.0  0.65766  0.16319  0.03289  1.0000
  C   C2429     1.0  0.61682  0.18305  0.03512  1.0000
  C   C2430     1.0  0.64836  0.12844  0.06028  1.0000
  C   C2431     1.0  0.65350  0.14399  0.00002  1.0000
  C   C2432     1.0  0.67769  0.15524  0.02427  1.0000
  H   H4117     1.0  0.61389  0.15498  0.04428  1.0000
  H   H4118     1.0  0.62606  0.16221  0.05712  1.0000
  H   H4119     1.0  0.65844  0.12604  0.03223  1.0000
  H   H4120     1.0  0.63459  0.12765  0.03919  1.0000
  H   H4121     1.0  0.62618  0.15569  0.01198  1.0000
  H   H4122     1.0  0.64157  0.17136  0.00475  1.0000
  H   H4123     1.0  0.65511  0.17790  0.02593  1.0000
  H   H4124     1.0  0.65731  0.16374  0.04736  1.0000
  H   H4125     1.0  0.78315  0.13242  0.12855  1.0000
  H   H4126     1.0  0.61697  0.19295  0.25629  1.0000
  H   H4127     1.0  0.61314  0.18484  0.02158  1.0000
  H   H4128     1.0  0.63544  0.13313  0.06984  1.0000
  H   H4129     1.0  0.65154  0.11320  0.06434  1.0000
  H   H4130     1.0  0.66007  0.13346  0.06216  1.0000
  H   H4131     1.0  0.59547  0.37820  0.41062  1.0000
  C   C2433     1.0  0.76147  0.08508  0.00550  1.0000
  N   N169      1.0  0.76435  0.15939  0.35067  1.0000
  H   H4132     1.0  0.74373  0.15660  0.37615  1.0000
  H   H4133     1.0  0.68041  0.14037  0.02478  1.0000
  H   H4134     1.0  0.68730  0.15695  0.03221  1.0000
  N   N170      1.0  0.65862  0.15754  0.41595  1.0000
  C   C2434     1.0  0.67772  0.16189  0.41136  1.0000
  C   C2435     1.0  0.64843  0.16449  0.43325  1.0000
  C   C2436     1.0  0.64912  0.16757  0.40010  1.0000
  C   C2437     1.0  0.66081  0.13702  0.41844  1.0000
  C   C2438     1.0  0.68968  0.15875  0.39246  1.0000
  C   C2439     1.0  0.62781  0.17172  0.40422  1.0000
  C   C2440     1.0  0.64315  0.12892  0.42499  1.0000
  H   H4135     1.0  0.67693  0.17644  0.41182  1.0000
  H   H4136     1.0  0.68592  0.15367  0.42181  1.0000
  H   H4137     1.0  0.63394  0.16256  0.43725  1.0000
  H   H4138     1.0  0.64731  0.17965  0.43083  1.0000
  H   H4139     1.0  0.65304  0.18124  0.39428  1.0000
  H   H4140     1.0  0.65379  0.15996  0.38861  1.0000
  H   H4141     1.0  0.66783  0.13242  0.40532  1.0000
  H   H4142     1.0  0.67035  0.12953  0.42785  1.0000
  C   C2441     1.0  0.75056  0.22722  0.45560  1.0000
  C   C2442     1.0  0.59864  0.12388  0.04624  1.0000
  C   C2443     1.0  0.63018  0.30019  0.23316  1.0000
  H   H4143     1.0  0.62181  0.15933  0.41051  1.0000
  H   H4144     1.0  0.62295  0.17789  0.39108  1.0000
  N   N171      1.0  0.76193  0.06121  0.03635  1.0000
  C   C2444     1.0  0.71951  0.20464  0.11289  1.0000
  H   H4145     1.0  0.63242  0.13578  0.43509  1.0000
  H   H4146     1.0  0.59080  0.37786  0.43448  1.0000
  H   H4147     1.0  0.63835  0.29945  0.25902  1.0000
  S   S709      1.0  0.61871  0.23781  0.20770  1.0000
  H   H4148     1.0  0.68315  0.46518  0.08212  1.0000
  H   H4149     1.0  0.62231  0.47166  0.13254  1.0000
  H   H4150     1.0  0.66420  0.00202  0.02229  1.0000
  H   H4151     1.0  0.76937  0.38468  0.15574  1.0000
  H   H4152     1.0  0.64311  0.43599  0.18178  1.0000
  C   C2445     1.0  0.72026  0.20430  0.09266  1.0000
  C   C2446     1.0  0.60391  0.00771  0.41276  1.0000
  H   H4153     1.0  0.65148  0.30738  0.19707  1.0000
  C   C2447     1.0  0.71334  0.23699  0.11712  1.0000
  H   H4154     1.0  0.68153  0.16241  0.00975  1.0000
  C   C2448     1.0  0.76791  0.10703  0.12267  1.0000
  C   C2449     1.0  0.60170  0.19729  0.25985  1.0000
  H   H4155     1.0  0.60636  0.01779  0.97102  1.0000
  N   N172      1.0  0.72746  0.21935  0.11642  1.0000
  H   H4156     1.0  0.61347  0.32726  0.26154  1.0000
  H   H4157     1.0  0.59685  0.31628  0.24921  1.0000
  H   H4158     1.0  0.65730  0.99301  0.41629  1.0000
  C   C2450     1.0  0.77912  0.46426  0.08978  1.0000
  H   H4159     1.0  0.64446  0.46670  0.20152  1.0000
  C   C2451     1.0  0.76290  0.17982  0.34823  1.0000
  H   H4160     1.0  0.71380  0.21752  0.08492  1.0000
  H   H4161     1.0  0.59064  0.07207  0.37677  1.0000
  H   H4162     1.0  0.72702  0.19069  0.11851  1.0000
  H   H4163     1.0  0.68355  0.16781  0.38085  1.0000
  N   N173      1.0  0.76741  0.39985  0.11923  1.0000
  C   C2452     1.0  0.78209  0.19838  0.37971  1.0000
  C   C2453     1.0  0.74914  0.40760  0.13044  1.0000
  H   H4164     1.0  0.62381  0.46296  0.22690  1.0000
  H   H4165     1.0  0.76712  0.18626  0.33350  1.0000
  H   H4166     1.0  0.59238  0.30360  0.43074  1.0000
  Fe  Fe358     1.0  0.63702  0.08701  0.97166  1.0000
  H   H4167     1.0  0.64489  0.32890  0.22931  1.0000
  H   H4168     1.0  0.71419  0.19305  0.14946  1.0000
  H   H4169     1.0  0.75745  0.41564  0.09456  1.0000
  C   C2454     1.0  0.63688  0.47169  0.12996  1.0000
  H   H4170     1.0  0.74299  0.08694  0.04093  1.0000
  H   H4171     1.0  0.73764  0.40803  0.12370  1.0000
  C   C2455     1.0  0.62379  0.32381  0.20633  1.0000
  C   C2456     1.0  0.76988  0.41286  0.10073  1.0000
  H   H4172     1.0  0.77805  0.18337  0.13414  1.0000
  H   H4173     1.0  0.63562  0.27967  0.38041  1.0000
  H   H4174     1.0  0.76421  0.12009  0.11302  1.0000
  H   H4175     1.0  0.74539  0.20567  0.35356  1.0000
  C   C2457     1.0  0.59207  0.13705  0.03182  1.0000
  C   C2458     1.0  0.59321  0.35972  0.17334  1.0000
  H   H4176     1.0  0.76876  0.25753  0.20674  1.0000
  H   H4177     1.0  0.59700  0.36480  0.12220  1.0000
  S   S710      1.0  0.75830  0.47174  0.12290  1.0000
  C   C2459     1.0  0.74922  0.05081  0.03278  1.0000
  S   S711      1.0  0.76273  0.12174  0.03074  1.0000
  S   S712      1.0  0.60218  0.41206  0.13605  1.0000
  H   H4178     1.0  0.74514  0.20136  0.13455  1.0000
  H   H4179     1.0  0.75642  0.04336  0.02141  1.0000
  C   C2460     1.0  0.65223  0.98430  0.04763  1.0000
  H   H4180     1.0  0.65019  0.27648  0.40698  1.0000
  C   C2461     1.0  0.74802  0.09419  0.45228  1.0000
  H   H4181     1.0  0.61317  0.18625  0.07931  1.0000
  H   H4182     1.0  0.73682  0.22374  0.13924  1.0000
  H   H4183     1.0  0.66827  0.14360  0.99905  1.0000
  H   H4184     1.0  0.61835  0.18023  0.14531  1.0000
  S   S713      1.0  0.78146  0.16802  0.40802  1.0000
  C   C2462     1.0  0.73058  0.06207  0.02790  1.0000
  H   H4185     1.0  0.71813  0.24692  0.12233  1.0000
  H   H4186     1.0  0.77599  0.12371  0.37556  1.0000
  C   C2463     1.0  0.59409  0.25901  0.29000  1.0000
  H   H4187     1.0  0.61556  0.29421  0.26243  1.0000
  S   S714      1.0  0.64262  0.43376  0.13808  1.0000
  H   H4188     1.0  0.60066  0.18698  0.28851  1.0000
  H   H4189     1.0  0.73468  0.43032  0.14428  1.0000
  C   C2464     1.0  0.59737  0.17790  0.12176  1.0000
  H   H4190     1.0  0.72341  0.20159  0.16405  1.0000
  H   H4191     1.0  0.61959  0.30488  0.39389  1.0000
  C   C2465     1.0  0.75199  0.07521  0.04813  1.0000
  H   H4192     1.0  0.60754  0.11108  0.04357  1.0000
  H   H4193     1.0  0.74797  0.05807  0.07630  1.0000
  C   C2466     1.0  0.75845  0.15131  0.37081  1.0000
  C   C2467     1.0  0.63112  0.44103  0.19223  1.0000
  H   H4194     1.0  0.73267  0.07966  0.07354  1.0000
  C   C2468     1.0  0.59194  0.01096  0.42922  1.0000
  H   H4195     1.0  0.58566  0.05733  0.00230  1.0000
  S   S715      1.0  0.77480  0.21416  0.15403  1.0000
  H   H4196     1.0  0.71882  0.05788  0.03877  1.0000
  Fe  Fe359     1.0  0.75129  0.17781  0.41926  1.0000
  H   H4197     1.0  0.70065  0.23445  0.12750  1.0000
  H   H4198     1.0  0.63046  0.25738  0.38860  1.0000
  H   H4199     1.0  0.71747  0.24691  0.08672  1.0000
  C   C2469     1.0  0.63256  0.15844  0.09896  1.0000
  H   H4200     1.0  0.76211  0.08171  0.05120  1.0000
  C   C2470     1.0  0.75354  0.15537  0.33862  1.0000
  C   C2471     1.0  0.64968  0.45506  0.13137  1.0000
  S   S716      1.0  0.64283  0.11210  0.97719  1.0000
  C   C2472     1.0  0.59536  0.16188  0.13849  1.0000
  H   H4201     1.0  0.63938  0.16497  0.08511  1.0000
  H   H4202     1.0  0.75659  0.09945  0.12499  1.0000
  H   H4203     1.0  0.75369  0.12599  0.39023  1.0000
  H   H4204     1.0  0.75936  0.14131  0.33567  1.0000
  H   H4205     1.0  0.64671  0.11444  0.43239  1.0000
  H   H4206     1.0  0.72895  0.06170  0.06482  1.0000
  H   H4207     1.0  0.64508  0.29771  0.22668  1.0000
  N   N174      1.0  0.62101  0.31993  0.22709  1.0000
  H   H4208     1.0  0.74766  0.37072  0.14111  1.0000
  H   H4209     1.0  0.76712  0.23733  0.09312  1.0000
  C   C2473     1.0  0.63215  0.20225  0.13028  1.0000
  H   H4210     1.0  0.71140  0.45441  0.05990  1.0000
  Fe  Fe360     1.0  0.61220  0.43298  0.14494  1.0000
  H   H4211     1.0  0.64067  0.14431  0.10264  1.0000
  C   C2474     1.0  0.77920  0.18061  0.12070  1.0000
  S   S717      1.0  0.63274  0.27703  0.19449  1.0000
  H   H4212     1.0  0.68821  0.98091  0.37429  1.0000
  S   S718      1.0  0.63299  0.25376  0.16336  1.0000
  S   S719      1.0  0.74025  0.17035  0.44962  1.0000
  H   H4213     1.0  0.61492  0.26668  0.43210  1.0000
  C   C2475     1.0  0.58616  0.36907  0.11371  1.0000
  H   H4214     1.0  0.70326  0.16239  0.39096  1.0000
  H   H4215     1.0  0.70170  0.26203  0.09974  1.0000
  H   H4216     1.0  0.63847  0.99287  0.04569  1.0000
  H   H4217     1.0  0.77113  0.07964  0.07997  1.0000
  H   H4218     1.0  0.58972  0.29322  0.36626  1.0000
  H   H4219     1.0  0.78242  0.22150  0.35681  1.0000
  H   H4220     1.0  0.76126  0.35415  0.12803  1.0000
  H   H4221     1.0  0.74576  0.03992  0.04507  1.0000
  H   H4222     1.0  0.60269  0.38527  0.09108  1.0000
  C   C2476     1.0  0.68329  0.46950  0.06705  1.0000
  C   C2477     1.0  0.60699  0.19897  0.08464  1.0000
  H   H4223     1.0  0.67981  0.99581  0.39025  1.0000
  H   H4224     1.0  0.64463  0.25385  0.41646  1.0000
  H   H4225     1.0  0.61823  0.34990  0.25353  1.0000
  C   C2478     1.0  0.74728  0.42711  0.13368  1.0000
  H   H4226     1.0  0.72517  0.16131  0.33472  1.0000
  H   H4227     1.0  0.67034  0.15988  0.44901  1.0000
  H   H4228     1.0  0.72885  0.05912  0.01502  1.0000
  C   C2479     1.0  0.59006  0.24076  0.14260  1.0000
  H   H4229     1.0  0.60375  0.18757  0.04466  1.0000
  C   C2480     1.0  0.65230  0.98415  0.44543  1.0000
  S   S720      1.0  0.59813  0.21028  0.35967  1.0000
  H   H4230     1.0  0.59466  0.17341  0.11020  1.0000
  H   H4231     1.0  0.59295  0.35081  0.23884  1.0000
  C   C2481     1.0  0.63110  0.26984  0.39321  1.0000
  H   H4232     1.0  0.60488  0.45743  0.18657  1.0000
  C   C2482     1.0  0.59857  0.05405  0.97421  1.0000
  H   H4233     1.0  0.75576  0.12452  0.36680  1.0000
  H   H4234     1.0  0.60062  0.30681  0.37429  1.0000
  H   H4235     1.0  0.68071  0.98951  0.03668  1.0000
  H   H4236     1.0  0.75505  0.16495  0.32497  1.0000
  H   H4237     1.0  0.77658  0.98175  0.24620  1.0000
  H   H4238     1.0  0.76130  0.09651  0.44289  1.0000
  C   C2483     1.0  0.60040  0.32219  0.23435  1.0000
  Fe  Fe361     1.0  0.77916  0.11483  0.05297  1.0000
  C   C2484     1.0  0.59856  0.26485  0.25659  1.0000
  H   H4239     1.0  0.76888  0.04041  0.06011  1.0000
  C   C2485     1.0  0.61009  0.46466  0.22362  1.0000
  H   H4240     1.0  0.59372  0.04986  0.39021  1.0000
  H   H4241     1.0  0.59439  0.31415  0.22788  1.0000
  S   S721      1.0  0.59330  0.27395  0.18611  1.0000
  C   C2486     1.0  0.77583  0.04767  0.04668  1.0000
  H   H4242     1.0  0.70505  0.47298  0.04180  1.0000
  H   H4243     1.0  0.59130  0.39992  0.38271  1.0000
  H   H4244     1.0  0.78351  0.17032  0.07252  1.0000
  C   C2487     1.0  0.58759  0.26486  0.43083  1.0000
  C   C2488     1.0  0.70360  0.46877  0.05695  1.0000
  H   H4245     1.0  0.67211  0.46750  0.03676  1.0000
  H   H4246     1.0  0.76835  0.47383  0.08348  1.0000
  H   H4247     1.0  0.58953  0.25147  0.11383  1.0000
  H   H4248     1.0  0.58665  0.25605  0.44483  1.0000
  C   C2489     1.0  0.77268  0.07062  0.01862  1.0000
  S   S722      1.0  0.59065  0.27668  0.23638  1.0000
  H   H4249     1.0  0.66856  0.47254  0.17641  1.0000
  H   H4250     1.0  0.65229  0.98268  0.06247  1.0000
  H   H4251     1.0  0.77125  0.09148  0.99369  1.0000
  H   H4252     1.0  0.60537  0.42937  0.44101  1.0000
  C   C2490     1.0  0.58915  0.38753  0.10071  1.0000
  H   H4253     1.0  0.58980  0.39778  0.10835  1.0000
  H   H4254     1.0  0.65127  0.45711  0.08510  1.0000
  C   C2491     1.0  0.58841  0.26887  0.27359  1.0000
  H   H4255     1.0  0.59971  0.46893  0.23563  1.0000
  H   H4256     1.0  0.60773  0.38997  0.41987  1.0000
  C   C2492     1.0  0.59908  0.42089  0.39309  1.0000
  H   H4257     1.0  0.77231  0.98878  0.27499  1.0000
  H   H4258     1.0  0.60029  0.40784  0.44169  1.0000
  C   C2493     1.0  0.59626  0.41305  0.37752  1.0000
  H   H4259     1.0  0.59043  0.34887  0.21670  1.0000
  C   C2494     1.0  0.58919  0.34210  0.23139  1.0000
  C   C2495     1.0  0.78280  0.06841  0.08098  1.0000
  H   H4260     1.0  0.78260  0.07746  0.02164  1.0000
  H   H4261     1.0  0.77486  0.01023  0.27823  1.0000
  S   S723      1.0  0.78295  0.14377  0.04975  1.0000
  H   H4262     1.0  0.78113  0.06047  0.01018  1.0000
  H   H4263     1.0  0.78066  0.02437  0.03260  1.0000
  H   H4264     1.0  0.64595  0.46483  0.06228  1.0000
  H   H4265     1.0  0.78268  0.98965  0.29348  1.0000
  C   C2496     1.0  0.78156  0.99551  0.27890  1.0000
  H   H4266     1.0  0.78388  0.28144  0.21074  1.0000
  C   C2497     1.0  0.58732  0.43111  0.42262  1.0000
  H   H4267     1.0  0.78383  0.08974  0.10376  1.0000
  H   H4268     1.0  0.58651  0.42302  0.36942  1.0000
  C   C2498     1.0  0.78453  0.15097  0.34494  1.0000
  S   S724      1.0  0.71749  0.21514  0.46791  1.0000
  Fe  Fe362     1.0  0.72642  0.02708  0.61042  1.0000
  S   S725      1.0  0.74943  0.01016  0.59330  1.0000
  S   S726      1.0  0.72741  0.04965  0.62415  1.0000
  Fe  Fe363     1.0  0.69740  0.00690  0.60848  1.0000
  S   S727      1.0  0.66658  0.00833  0.61630  1.0000
  H   H4269     1.0  0.62248  0.99908  0.65341  1.0000
  Fe  Fe364     1.0  0.72879  0.01326  0.57569  1.0000
  S   S728      1.0  0.73703  0.01636  0.54481  1.0000
  S   S729      1.0  0.71528  0.00281  0.62885  1.0000
  S   S730      1.0  0.70690  0.03246  0.59120  1.0000
  S   S731      1.0  0.67006  0.04463  0.50368  1.0000
  Fe  Fe365     1.0  0.60548  0.12523  0.82930  1.0000
  H   H4270     1.0  0.73340  0.10342  0.75094  1.0000
  S   S732      1.0  0.63184  0.12910  0.80867  1.0000
  C   C2499     1.0  0.71029  0.46471  0.90711  1.0000
  H   H4271     1.0  0.72987  0.05357  0.50811  1.0000
  S   S733      1.0  0.76600  0.23579  0.53236  1.0000
  H   H4272     1.0  0.75879  0.27810  0.79704  1.0000
  C   C2500     1.0  0.65879  0.98779  0.61983  1.0000
  S   S734      1.0  0.63846  0.08193  0.94351  1.0000
  C   C2501     1.0  0.75203  0.08010  0.46985  1.0000
  Fe  Fe366     1.0  0.71345  0.39492  0.58045  1.0000
  S   S735      1.0  0.72877  0.36589  0.58785  1.0000
  S   S736      1.0  0.68284  0.40069  0.58095  1.0000
  Fe  Fe367     1.0  0.74711  0.41129  0.57532  1.0000
  C   C2502     1.0  0.60930  0.33200  0.76475  1.0000
  C   C2503     1.0  0.69391  0.33516  0.54642  1.0000
  Fe  Fe368     1.0  0.75129  0.37450  0.56447  1.0000
  H   H4273     1.0  0.75650  0.22843  0.70228  1.0000
  Fe  Fe369     1.0  0.74188  0.37720  0.60454  1.0000
  S   S737      1.0  0.74894  0.36146  0.63165  1.0000
  S   S738      1.0  0.73494  0.40279  0.55567  1.0000
  S   S739      1.0  0.72436  0.40547  0.59964  1.0000
  Fe  Fe370     1.0  0.72200  0.19762  0.79821  1.0000
  S   S740      1.0  0.72911  0.17722  0.82339  1.0000
  S   S741      1.0  0.70307  0.22509  0.80019  1.0000
  Fe  Fe371     1.0  0.74139  0.17091  0.77277  1.0000
  S   S742      1.0  0.74999  0.14826  0.79569  1.0000
  Fe  Fe372     1.0  0.72121  0.15694  0.81149  1.0000
  S   S743      1.0  0.70457  0.13587  0.82956  1.0000
  Fe  Fe373     1.0  0.75715  0.17044  0.80544  1.0000
  S   S744      1.0  0.71209  0.17786  0.78763  1.0000
  Fe  Fe374     1.0  0.71093  0.32448  0.75516  1.0000
  S   S745      1.0  0.71940  0.34635  0.73094  1.0000
  S   S746      1.0  0.73202  0.29814  0.75923  1.0000
  Fe  Fe375     1.0  0.67387  0.34849  0.76747  1.0000
  S   S747      1.0  0.67940  0.37209  0.74424  1.0000
  S   S748      1.0  0.64827  0.35041  0.78998  1.0000
  Fe  Fe376     1.0  0.69045  0.35068  0.72689  1.0000
  S   S749      1.0  0.68195  0.35685  0.69956  1.0000
  Fe  Fe377     1.0  0.70775  0.36573  0.75038  1.0000
  S   S750      1.0  0.72041  0.39001  0.74862  1.0000
  S   S751      1.0  0.68268  0.32730  0.74968  1.0000
  S   S752      1.0  0.70151  0.34353  0.77510  1.0000
  H   H4274     1.0  0.71026  0.10047  0.73469  1.0000
  H   H4275     1.0  0.77155  0.11664  0.57489  1.0000
  Fe  Fe378     1.0  0.74370  0.43629  0.85733  1.0000
  H   H4276     1.0  0.74006  0.35469  0.52073  1.0000
  C   C2504     1.0  0.73420  0.23031  0.48644  1.0000
  H   H4277     1.0  0.60092  0.29782  0.77500  1.0000
  H   H4278     1.0  0.63135  0.38620  0.81638  1.0000
  S   S753      1.0  0.73615  0.44173  0.82977  1.0000
  C   C2505     1.0  0.61184  0.00082  0.66605  1.0000
  Fe  Fe379     1.0  0.61842  0.45089  0.51636  1.0000
  H   H4279     1.0  0.76362  0.39811  0.64489  1.0000
  S   S754      1.0  0.64955  0.44383  0.51071  1.0000
  C   C2506     1.0  0.76652  0.13219  0.71102  1.0000
  H   H4280     1.0  0.70997  0.41586  0.66893  1.0000
  H   H4281     1.0  0.71545  0.22897  0.75792  1.0000
  H   H4282     1.0  0.70211  0.30525  0.55102  1.0000
  S   S755      1.0  0.75665  0.43834  0.56754  1.0000
  H   H4283     1.0  0.59175  0.98030  0.72792  1.0000
  H   H4284     1.0  0.68078  0.33147  0.55518  1.0000
  S   S756      1.0  0.75887  0.27372  0.56243  1.0000
  H   H4285     1.0  0.74051  0.39544  0.64792  1.0000
  C   C2507     1.0  0.65056  0.98514  0.66870  1.0000
  H   H4286     1.0  0.61055  0.32087  0.77705  1.0000
  H   H4287     1.0  0.65181  0.00581  0.54315  1.0000
  H   H4288     1.0  0.68896  0.37018  0.52796  1.0000
  H   H4289     1.0  0.66547  0.42149  0.77275  1.0000
  H   H4290     1.0  0.70686  0.15857  0.75704  1.0000
  H   H4291     1.0  0.69956  0.32007  0.58380  1.0000
  H   H4292     1.0  0.64246  0.99281  0.57523  1.0000
  H   H4293     1.0  0.76273  0.43064  0.63139  1.0000
  C   C2508     1.0  0.67566  0.00196  0.56808  1.0000
  S   S757      1.0  0.71775  0.98801  0.59143  1.0000
  C   C2509     1.0  0.72780  0.38991  0.76864  1.0000
  C   C2510     1.0  0.73130  0.40606  0.77138  1.0000
  C   C2511     1.0  0.73604  0.40632  0.78791  1.0000
  C   C2512     1.0  0.73723  0.39040  0.80170  1.0000
  C   C2513     1.0  0.73408  0.37423  0.79876  1.0000
  C   C2514     1.0  0.72953  0.37395  0.78224  1.0000
  H   H4294     1.0  0.73007  0.41844  0.76084  1.0000
  H   H4295     1.0  0.72461  0.27984  0.72875  1.0000
  H   H4296     1.0  0.73516  0.36185  0.80932  1.0000
  H   H4297     1.0  0.72749  0.36131  0.78003  1.0000
  C   C2515     1.0  0.76223  0.13335  0.74814  1.0000
  C   C2516     1.0  0.76905  0.11656  0.74220  1.0000
  C   C2517     1.0  0.77108  0.11597  0.72365  1.0000
  H   H4298     1.0  0.76064  0.13370  0.76245  1.0000
  N   N175      1.0  0.69803  0.35117  0.55178  1.0000
  C   C2518     1.0  0.71119  0.24532  0.78860  1.0000
  C   C2519     1.0  0.69908  0.26237  0.78883  1.0000
  C   C2520     1.0  0.70527  0.27874  0.77974  1.0000
  C   C2521     1.0  0.72364  0.27806  0.77051  1.0000
  C   C2522     1.0  0.73573  0.26103  0.77027  1.0000
  C   C2523     1.0  0.72952  0.24468  0.77925  1.0000
  H   H4299     1.0  0.68487  0.26293  0.79607  1.0000
  H   H4300     1.0  0.69588  0.29187  0.78000  1.0000
  H   H4301     1.0  0.74994  0.26052  0.76305  1.0000
  H   H4302     1.0  0.73894  0.23162  0.77899  1.0000
  H   H4303     1.0  0.75779  0.18008  0.84117  1.0000
  C   C2524     1.0  0.67399  0.41237  0.56111  1.0000
  C   C2525     1.0  0.68561  0.41728  0.54414  1.0000
  C   C2526     1.0  0.67803  0.42650  0.52858  1.0000
  C   C2527     1.0  0.65882  0.43114  0.53000  1.0000
  C   C2528     1.0  0.64724  0.42609  0.54693  1.0000
  C   C2529     1.0  0.65482  0.41672  0.56242  1.0000
  H   H4304     1.0  0.70040  0.41384  0.54293  1.0000
  H   H4305     1.0  0.68705  0.43029  0.51548  1.0000
  H   H4306     1.0  0.63241  0.42945  0.54813  1.0000
  H   H4307     1.0  0.64575  0.41290  0.57549  1.0000
  N   N176      1.0  0.59480  0.04600  0.95976  1.0000
  C   C2530     1.0  0.75754  0.32559  0.56680  1.0000
  C   C2531     1.0  0.75558  0.30718  0.57075  1.0000
  C   C2532     1.0  0.76112  0.29688  0.55686  1.0000
  H   H4308     1.0  0.74016  0.42201  0.66047  1.0000
  C   C2533     1.0  0.76401  0.23934  0.47469  1.0000
  H   H4309     1.0  0.75365  0.33325  0.57771  1.0000
  H   H4310     1.0  0.75001  0.30080  0.58467  1.0000
  C   C2534     1.0  0.73001  0.35953  0.65008  1.0000
  C   C2535     1.0  0.73313  0.34973  0.66743  1.0000
  C   C2536     1.0  0.71836  0.34856  0.68257  1.0000
  C   C2537     1.0  0.70041  0.35728  0.68046  1.0000
  C   C2538     1.0  0.69721  0.36682  0.66301  1.0000
  C   C2539     1.0  0.71201  0.36801  0.64782  1.0000
  H   H4311     1.0  0.74702  0.34302  0.66917  1.0000
  H   H4312     1.0  0.72088  0.34066  0.69579  1.0000
  H   H4313     1.0  0.68331  0.37350  0.66129  1.0000
  H   H4314     1.0  0.70951  0.37553  0.63442  1.0000
  H   H4315     1.0  0.61247  0.01417  0.66899  1.0000
  H   H4316     1.0  0.76954  0.19012  0.61682  1.0000
  H   H4317     1.0  0.75141  0.03257  0.48934  1.0000
  H   H4318     1.0  0.75578  0.42078  0.60583  1.0000
  C   C2540     1.0  0.61141  0.38357  0.75987  1.0000
  C   C2541     1.0  0.62799  0.37367  0.76520  1.0000
  C   C2542     1.0  0.62783  0.36375  0.78322  1.0000
  C   C2543     1.0  0.61101  0.36400  0.79596  1.0000
  C   C2544     1.0  0.76851  0.18644  0.49617  1.0000
  H   H4319     1.0  0.61163  0.39101  0.74582  1.0000
  H   H4320     1.0  0.64080  0.37347  0.75522  1.0000
  H   H4321     1.0  0.61080  0.35633  0.80992  1.0000
  C   C2545     1.0  0.76249  0.19416  0.51398  1.0000
  C   C2546     1.0  0.65020  0.13265  0.81648  1.0000
  C   C2547     1.0  0.65984  0.14646  0.80609  1.0000
  C   C2548     1.0  0.67614  0.14798  0.81041  1.0000
  C   C2549     1.0  0.68325  0.13534  0.82481  1.0000
  C   C2550     1.0  0.67346  0.12167  0.83539  1.0000
  C   C2551     1.0  0.65684  0.12046  0.83140  1.0000
  H   H4322     1.0  0.65478  0.15586  0.79449  1.0000
  H   H4323     1.0  0.68337  0.15866  0.80229  1.0000
  H   H4324     1.0  0.67900  0.11162  0.84633  1.0000
  H   H4325     1.0  0.64969  0.10951  0.83922  1.0000
  C   C2552     1.0  0.68541  0.10308  0.79053  1.0000
  H   H4326     1.0  0.71748  0.31650  0.53299  1.0000
  C   C2553     1.0  0.60873  0.10995  0.93740  1.0000
  C   C2554     1.0  0.62224  0.09590  0.93062  1.0000
  C   C2555     1.0  0.62300  0.09283  0.91315  1.0000
  C   C2556     1.0  0.61037  0.10386  0.90239  1.0000
  C   C2557     1.0  0.68655  0.36879  0.54315  1.0000
  N   N177      1.0  0.77651  0.41695  0.91666  1.0000
  H   H4327     1.0  0.63343  0.08194  0.90788  1.0000
  H   H4328     1.0  0.61113  0.10146  0.88891  1.0000
  H   H4329     1.0  0.63067  0.00176  0.61914  1.0000
  H   H4330     1.0  0.76038  0.24423  0.79320  1.0000
  C   C2558     1.0  0.76462  0.06559  0.64312  1.0000
  C   C2559     1.0  0.74818  0.06212  0.64087  1.0000
  C   C2560     1.0  0.74844  0.05250  0.62742  1.0000
  C   C2561     1.0  0.76524  0.04633  0.61622  1.0000
  H   H4331     1.0  0.78063  0.98711  0.61294  1.0000
  H   H4332     1.0  0.73519  0.06692  0.64955  1.0000
  H   H4333     1.0  0.76545  0.03926  0.60559  1.0000
  C   C2562     1.0  0.64703  0.45853  0.91840  1.0000
  C   C2563     1.0  0.68916  0.03710  0.51437  1.0000
  C   C2564     1.0  0.70496  0.02509  0.50740  1.0000
  C   C2565     1.0  0.71963  0.01871  0.51685  1.0000
  C   C2566     1.0  0.71846  0.02417  0.53333  1.0000
  C   C2567     1.0  0.70273  0.03627  0.54016  1.0000
  C   C2568     1.0  0.68810  0.04266  0.53074  1.0000
  H   H4334     1.0  0.70576  0.02059  0.49487  1.0000
  H   H4335     1.0  0.73181  0.00934  0.51151  1.0000
  H   H4336     1.0  0.70182  0.04077  0.55270  1.0000
  H   H4337     1.0  0.67588  0.05193  0.53617  1.0000
  H   H4338     1.0  0.75134  0.44836  0.93019  1.0000
  C   C2569     1.0  0.76462  0.33396  0.54882  1.0000
  C   C2570     1.0  0.75143  0.39456  0.65548  1.0000
  N   N178      1.0  0.67080  0.98811  0.56005  1.0000
  C   C2571     1.0  0.59437  0.37365  0.79053  1.0000
  C   C2572     1.0  0.73010  0.25076  0.72812  1.0000
  C   C2573     1.0  0.73655  0.21760  0.72696  1.0000
  H   H4339     1.0  0.61252  0.06117  0.93762  1.0000
  H   H4340     1.0  0.78014  0.12865  0.58689  1.0000
  H   H4341     1.0  0.75257  0.41524  0.70453  1.0000
  C   C2574     1.0  0.75618  0.21991  0.71627  1.0000
  Fe  Fe380     1.0  0.77669  0.25467  0.54367  1.0000
  S   S758      1.0  0.60247  0.46309  0.54077  1.0000
  H   H4342     1.0  0.64065  0.03987  0.93484  1.0000
  H   H4343     1.0  0.74053  0.25383  0.71536  1.0000
  H   H4344     1.0  0.73781  0.24707  0.73950  1.0000
  H   H4345     1.0  0.73864  0.20996  0.74097  1.0000
  H   H4346     1.0  0.59126  0.99033  0.65774  1.0000
  C   C2575     1.0  0.71655  0.26919  0.72994  1.0000
  C   C2576     1.0  0.66611  0.99744  0.54149  1.0000
  S   S759      1.0  0.77914  0.09492  0.71642  1.0000
  H   H4347     1.0  0.73224  0.26243  0.80804  1.0000
  C   C2577     1.0  0.59452  0.38335  0.77242  1.0000
  H   H4348     1.0  0.73226  0.20782  0.72104  1.0000
  H   H4349     1.0  0.68071  0.98598  0.51694  1.0000
  H   H4350     1.0  0.71724  0.05492  0.48222  1.0000
  H   H4351     1.0  0.76472  0.20610  0.71482  1.0000
  S   S760      1.0  0.59996  0.43098  0.51987  1.0000
  H   H4352     1.0  0.75782  0.08697  0.47770  1.0000
  H   H4353     1.0  0.75640  0.42736  0.89896  1.0000
  H   H4354     1.0  0.74738  0.43466  0.68617  1.0000
  H   H4355     1.0  0.65794  0.97538  0.58717  1.0000
  C   C2578     1.0  0.76431  0.41889  0.93513  1.0000
  H   H4356     1.0  0.71466  0.22058  0.84144  1.0000
  C   C2579     1.0  0.67457  0.39144  0.78506  1.0000
  H   H4357     1.0  0.77636  0.00574  0.62381  1.0000
  H   H4358     1.0  0.77539  0.41104  0.89077  1.0000
  S   S761      1.0  0.60403  0.47258  0.49601  1.0000
  C   C2580     1.0  0.59692  0.11800  0.90907  1.0000
  C   C2581     1.0  0.67815  0.45062  0.86315  1.0000
  H   H4359     1.0  0.73319  0.23398  0.68893  1.0000
  H   H4360     1.0  0.72976  0.26522  0.83076  1.0000
  H   H4361     1.0  0.68918  0.21712  0.74038  1.0000
  C   C2582     1.0  0.70895  0.31730  0.54696  1.0000
  H   H4362     1.0  0.76965  0.47002  0.56899  1.0000
  C   C2583     1.0  0.66542  0.37131  0.55001  1.0000
  H   H4363     1.0  0.69471  0.36232  0.57596  1.0000
  H   H4364     1.0  0.67808  0.34904  0.57767  1.0000
  H   H4365     1.0  0.66010  0.35917  0.54984  1.0000
  H   H4366     1.0  0.66119  0.37459  0.56397  1.0000
  H   H4367     1.0  0.65860  0.38333  0.54080  1.0000
  H   H4368     1.0  0.69115  0.42227  0.78243  1.0000
  N   N179      1.0  0.66520  0.13482  0.88776  1.0000
  C   C2584     1.0  0.67179  0.15001  0.87252  1.0000
  C   C2585     1.0  0.64715  0.13254  0.88474  1.0000
  C   C2586     1.0  0.67965  0.11732  0.88648  1.0000
  C   C2587     1.0  0.66295  0.14041  0.90585  1.0000
  C   C2588     1.0  0.69118  0.15325  0.87181  1.0000
  C   C2589     1.0  0.63129  0.14954  0.88482  1.0000
  C   C2590     1.0  0.67287  0.09888  0.89256  1.0000
  C   C2591     1.0  0.65419  0.12790  0.92320  1.0000
  H   H4369     1.0  0.67187  0.14737  0.85885  1.0000
  H   H4370     1.0  0.66226  0.16346  0.87349  1.0000
  H   H4371     1.0  0.64165  0.12139  0.89534  1.0000
  H   H4372     1.0  0.64934  0.12828  0.87135  1.0000
  H   H4373     1.0  0.68731  0.11740  0.87201  1.0000
  H   H4374     1.0  0.69041  0.11628  0.89439  1.0000
  H   H4375     1.0  0.67655  0.14104  0.90822  1.0000
  H   H4376     1.0  0.65452  0.15455  0.90564  1.0000
  H   H4377     1.0  0.70216  0.14084  0.87036  1.0000
  H   H4378     1.0  0.69474  0.16397  0.85945  1.0000
  H   H4379     1.0  0.69162  0.15843  0.88393  1.0000
  H   H4380     1.0  0.61868  0.14560  0.88349  1.0000
  H   H4381     1.0  0.62781  0.15451  0.89790  1.0000
  H   H4382     1.0  0.63420  0.16083  0.87289  1.0000
  H   H4383     1.0  0.66537  0.09731  0.88254  1.0000
  H   H4384     1.0  0.66395  0.09712  0.90643  1.0000
  H   H4385     1.0  0.73895  0.43434  0.94902  1.0000
  H   H4386     1.0  0.64000  0.12712  0.92287  1.0000
  H   H4387     1.0  0.65307  0.13376  0.93539  1.0000
  H   H4388     1.0  0.66285  0.11396  0.92562  1.0000
  H   H4389     1.0  0.77671  0.15288  0.51641  1.0000
  Fe  Fe381     1.0  0.76376  0.45012  0.81879  1.0000
  H   H4390     1.0  0.73968  0.29139  0.80965  1.0000
  C   C2592     1.0  0.76030  0.43365  0.60333  1.0000
  H   H4391     1.0  0.70654  0.07540  0.51590  1.0000
  H   H4392     1.0  0.77546  0.33011  0.52093  1.0000
  C   C2593     1.0  0.62682  0.32758  0.75006  1.0000
  H   H4393     1.0  0.76270  0.38546  0.91467  1.0000
  H   H4394     1.0  0.69434  0.09646  0.50479  1.0000
  H   H4395     1.0  0.59505  0.28879  0.75887  1.0000
  H   H4396     1.0  0.65040  0.99898  0.65962  1.0000
  H   H4397     1.0  0.68093  0.40804  0.75748  1.0000
  H   H4398     1.0  0.64701  0.47006  0.53898  1.0000
  H   H4399     1.0  0.66762  0.45591  0.58255  1.0000
  H   H4400     1.0  0.69142  0.41191  0.70163  1.0000
  H   H4401     1.0  0.76342  0.99522  0.65923  1.0000
  C   C2594     1.0  0.77327  0.11693  0.58884  1.0000
  Fe  Fe382     1.0  0.73673  0.98621  0.61018  1.0000
  C   C2595     1.0  0.72278  0.11591  0.74749  1.0000
  C   C2596     1.0  0.69312  0.13553  0.75951  1.0000
  H   H4402     1.0  0.62855  0.33948  0.73847  1.0000
  C   C2597     1.0  0.74178  0.05896  0.49862  1.0000
  H   H4403     1.0  0.69657  0.07620  0.49644  1.0000
  H   H4404     1.0  0.74295  0.40232  0.92282  1.0000
  H   H4405     1.0  0.77240  0.29746  0.52804  1.0000
  H   H4406     1.0  0.74737  0.19972  0.51629  1.0000
  H   H4407     1.0  0.75985  0.03367  0.50847  1.0000
  S   S762      1.0  0.77461  0.46232  0.63341  1.0000
  H   H4408     1.0  0.78283  0.24767  0.94746  1.0000
  H   H4409     1.0  0.76926  0.12823  0.61807  1.0000
  H   H4410     1.0  0.69152  0.43935  0.59909  1.0000
  S   S763      1.0  0.75058  0.19259  0.78119  1.0000
  H   H4411     1.0  0.71658  0.39159  0.67152  1.0000
  H   H4412     1.0  0.59863  0.31661  0.73962  1.0000
  C   C2598     1.0  0.77008  0.45586  0.61476  1.0000
  H   H4413     1.0  0.67525  0.00741  0.53430  1.0000
  H   H4414     1.0  0.68976  0.38655  0.78156  1.0000
  H   H4415     1.0  0.63340  0.99830  0.69058  1.0000
  Fe  Fe383     1.0  0.78334  0.41784  0.84345  1.0000
  H   H4416     1.0  0.68338  0.43564  0.86366  1.0000
  H   H4417     1.0  0.75522  0.09029  0.60958  1.0000
  H   H4418     1.0  0.63695  0.39483  0.79186  1.0000
  H   H4419     1.0  0.70589  0.22694  0.71261  1.0000
  H   H4420     1.0  0.65764  0.40545  0.76428  1.0000
  H   H4421     1.0  0.72938  0.45285  0.54180  1.0000
  C   C2599     1.0  0.71796  0.35300  0.54507  1.0000
  H   H4422     1.0  0.69093  0.21256  0.76390  1.0000
  H   H4423     1.0  0.66069  0.44412  0.88950  1.0000
  C   C2600     1.0  0.66795  0.98505  0.52771  1.0000
  C   C2601     1.0  0.64001  0.98856  0.62099  1.0000
  H   H4424     1.0  0.58720  0.98938  0.69607  1.0000
  H   H4425     1.0  0.72514  0.13464  0.77109  1.0000
  H   H4426     1.0  0.70659  0.12910  0.78907  1.0000
  H   H4427     1.0  0.72064  0.36431  0.55017  1.0000
  H   H4428     1.0  0.66388  0.98105  0.67343  1.0000
  H   H4429     1.0  0.73654  0.37344  0.69046  1.0000
  H   H4430     1.0  0.75611  0.98785  0.64197  1.0000
  C   C2602     1.0  0.70334  0.33302  0.58417  1.0000
  C   C2603     1.0  0.69983  0.10249  0.77239  1.0000
  C   C2604     1.0  0.74863  0.23725  0.48891  1.0000
  C   C2605     1.0  0.75024  0.27845  0.81105  1.0000
  H   H4431     1.0  0.69917  0.33461  0.59875  1.0000
  H   H4432     1.0  0.70851  0.27418  0.71885  1.0000
  N   N180      1.0  0.73083  0.40340  0.68554  1.0000
  C   C2606     1.0  0.76819  0.46137  0.58261  1.0000
  C   C2607     1.0  0.74528  0.40823  0.66862  1.0000
  C   C2608     1.0  0.72563  0.41815  0.69687  1.0000
  C   C2609     1.0  0.73671  0.38473  0.69709  1.0000
  H   H4433     1.0  0.74775  0.24108  0.50177  1.0000
  C   C2610     1.0  0.74147  0.42599  0.69924  1.0000
  N   N181      1.0  0.73577  0.07227  0.48205  1.0000
  H   H4434     1.0  0.74755  0.21571  0.83538  1.0000
  C   C2611     1.0  0.74085  0.22855  0.82709  1.0000
  C   C2612     1.0  0.67023  0.45377  0.88296  1.0000
  S   S764      1.0  0.74154  0.39018  0.82321  1.0000
  H   H4435     1.0  0.71600  0.43029  0.69069  1.0000
  H   H4436     1.0  0.71797  0.41313  0.71097  1.0000
  H   H4437     1.0  0.72639  0.38253  0.71014  1.0000
  C   C2613     1.0  0.77220  0.46690  0.59711  1.0000
  C   C2614     1.0  0.77929  0.18796  0.58834  1.0000
  Fe  Fe384     1.0  0.75212  0.41315  0.82813  1.0000
  C   C2615     1.0  0.60105  0.98890  0.69852  1.0000
  H   H4438     1.0  0.60808  0.11235  0.95091  1.0000
  H   H4439     1.0  0.73584  0.43507  0.70943  1.0000
  H   H4440     1.0  0.75928  0.24279  0.86635  1.0000
  H   H4441     1.0  0.71073  0.08993  0.77466  1.0000
  S   S765      1.0  0.60051  0.10321  0.85470  1.0000
  C   C2616     1.0  0.74028  0.26205  0.81845  1.0000
  H   H4442     1.0  0.76110  0.17505  0.49821  1.0000
  H   H4443     1.0  0.69019  0.45728  0.85649  1.0000
  H   H4444     1.0  0.65642  0.99050  0.52015  1.0000
  H   H4445     1.0  0.72088  0.34733  0.51740  1.0000
  H   H4446     1.0  0.71230  0.24841  0.68354  1.0000
  H   H4447     1.0  0.69074  0.10594  0.80147  1.0000
  H   H4448     1.0  0.76224  0.10693  0.62830  1.0000
  H   H4449     1.0  0.65042  0.97527  0.66039  1.0000
  C   C2617     1.0  0.78426  0.43418  0.90829  1.0000
  H   H4450     1.0  0.68325  0.13884  0.77219  1.0000
  H   H4451     1.0  0.70578  0.12517  0.72603  1.0000
  C   C2618     1.0  0.77873  0.22099  0.80556  1.0000
  H   H4452     1.0  0.67959  0.99541  0.58162  1.0000
  H   H4453     1.0  0.70713  0.26854  0.74360  1.0000
  H   H4454     1.0  0.72819  0.09533  0.49599  1.0000
  C   C2619     1.0  0.71115  0.23914  0.71291  1.0000
  C   C2620     1.0  0.59075  0.35112  0.74275  1.0000
  H   H4455     1.0  0.71814  0.31502  0.55671  1.0000
  H   H4456     1.0  0.68132  0.08948  0.79583  1.0000
  C   C2621     1.0  0.71716  0.12356  0.77785  1.0000
  H   H4457     1.0  0.63116  0.02101  0.94949  1.0000
  C   C2622     1.0  0.67368  0.47009  0.54430  1.0000
  C   C2623     1.0  0.72463  0.45845  0.89331  1.0000
  H   H4458     1.0  0.73991  0.22469  0.81432  1.0000
  C   C2624     1.0  0.75948  0.14889  0.71700  1.0000
  H   H4459     1.0  0.66752  0.45521  0.85455  1.0000
  C   C2625     1.0  0.62926  0.47026  0.88078  1.0000
  H   H4460     1.0  0.69341  0.46296  0.59393  1.0000
  C   C2626     1.0  0.77004  0.32370  0.53490  1.0000
  H   H4461     1.0  0.73847  0.41884  0.79012  1.0000
  H   H4462     1.0  0.76247  0.19726  0.48544  1.0000
  H   H4463     1.0  0.66851  0.38003  0.78402  1.0000
  N   N182      1.0  0.72174  0.23485  0.72814  1.0000
  C   C2627     1.0  0.66067  0.01934  0.57076  1.0000
  H   H4464     1.0  0.74701  0.06608  0.50669  1.0000
  H   H4465     1.0  0.68796  0.00710  0.55921  1.0000
  H   H4466     1.0  0.64890  0.01627  0.58211  1.0000
  H   H4467     1.0  0.66678  0.02907  0.57486  1.0000
  C   C2628     1.0  0.59611  0.12102  0.92660  1.0000
  C   C2629     1.0  0.72052  0.23327  0.83716  1.0000
  H   H4468     1.0  0.69866  0.38717  0.70397  1.0000
  S   S766      1.0  0.72146  0.44284  0.88168  1.0000
  H   H4469     1.0  0.64166  0.46238  0.93211  1.0000
  H   H4470     1.0  0.68513  0.40009  0.68753  1.0000
  C   C2630     1.0  0.73060  0.10736  0.78704  1.0000
  H   H4471     1.0  0.72344  0.09645  0.79618  1.0000
  C   C2631     1.0  0.62996  0.03611  0.94719  1.0000
  C   C2632     1.0  0.76423  0.43922  0.61779  1.0000
  C   C2633     1.0  0.59321  0.00323  0.66039  1.0000
  C   C2634     1.0  0.69644  0.40044  0.69410  1.0000
  H   H4472     1.0  0.65570  0.02668  0.55795  1.0000
  C   C2635     1.0  0.69954  0.15362  0.74901  1.0000
  H   H4473     1.0  0.72801  0.11146  0.71964  1.0000
  H   H4474     1.0  0.68414  0.44186  0.56890  1.0000
  C   C2636     1.0  0.75712  0.14948  0.73557  1.0000
  C   C2637     1.0  0.75542  0.38063  0.70304  1.0000
  H   H4475     1.0  0.68461  0.13222  0.75138  1.0000
  N   N183      1.0  0.75232  0.24324  0.82256  1.0000
  S   S767      1.0  0.78295  0.24678  0.47780  1.0000
  H   H4476     1.0  0.73810  0.43364  0.92618  1.0000
  C   C2638     1.0  0.73527  0.22496  0.46993  1.0000
  H   H4477     1.0  0.69161  0.33920  0.53202  1.0000
  C   C2639     1.0  0.69906  0.21464  0.74956  1.0000
  H   H4478     1.0  0.72233  0.22874  0.49751  1.0000
  C   C2640     1.0  0.78169  0.04979  0.61849  1.0000
  C   C2641     1.0  0.78142  0.05941  0.63194  1.0000
  H   H4479     1.0  0.74050  0.25712  0.85645  1.0000
  H   H4480     1.0  0.68175  0.44872  0.89061  1.0000
  Fe  Fe385     1.0  0.67298  0.03968  0.47520  1.0000
  H   H4481     1.0  0.74210  0.10133  0.77688  1.0000
  C   C2642     1.0  0.70346  0.47166  0.54961  1.0000
  H   H4482     1.0  0.76619  0.38710  0.69285  1.0000
  C   C2643     1.0  0.72474  0.35674  0.52398  1.0000
  H   H4483     1.0  0.71043  0.44171  0.54925  1.0000
  H   H4484     1.0  0.76110  0.36561  0.70474  1.0000
  H   H4485     1.0  0.65782  0.44587  0.92030  1.0000
  H   H4486     1.0  0.71849  0.33191  0.58041  1.0000
  H   H4487     1.0  0.71199  0.24324  0.82781  1.0000
  H   H4488     1.0  0.69768  0.45945  0.91090  1.0000
  C   C2644     1.0  0.77230  0.19045  0.85588  1.0000
  H   H4489     1.0  0.71952  0.37123  0.51770  1.0000
  H   H4490     1.0  0.63911  0.32463  0.75642  1.0000
  N   N184      1.0  0.66882  0.39488  0.80445  1.0000
  C   C2645     1.0  0.66858  0.37659  0.81775  1.0000
  C   C2646     1.0  0.64965  0.40642  0.80827  1.0000
  C   C2647     1.0  0.68246  0.40380  0.80859  1.0000
  H   H4491     1.0  0.76804  0.13182  0.69668  1.0000
  C   C2648     1.0  0.68749  0.36357  0.81866  1.0000
  H   H4492     1.0  0.60092  0.34742  0.73036  1.0000
  C   C2649     1.0  0.68475  0.42294  0.79700  1.0000
  H   H4493     1.0  0.68721  0.16448  0.74663  1.0000
  H   H4494     1.0  0.66215  0.37862  0.83205  1.0000
  H   H4495     1.0  0.65994  0.36864  0.81433  1.0000
  H   H4496     1.0  0.64859  0.42046  0.79974  1.0000
  H   H4497     1.0  0.64606  0.40863  0.82268  1.0000
  H   H4498     1.0  0.67890  0.40488  0.82336  1.0000
  H   H4499     1.0  0.69661  0.39525  0.80640  1.0000
  H   H4500     1.0  0.75865  0.27944  0.82048  1.0000
  C   C2650     1.0  0.76211  0.44480  0.58572  1.0000
  H   H4501     1.0  0.69539  0.36807  0.82651  1.0000
  H   H4502     1.0  0.68530  0.34957  0.82602  1.0000
  H   H4503     1.0  0.69592  0.36237  0.80485  1.0000
  H   H4504     1.0  0.62714  0.31524  0.74486  1.0000
  H   H4505     1.0  0.71880  0.23879  0.84961  1.0000
  C   C2651     1.0  0.76587  0.41439  0.90362  1.0000
  H   H4506     1.0  0.67171  0.43330  0.79806  1.0000
  H   H4507     1.0  0.77327  0.44586  0.90390  1.0000
  C   C2652     1.0  0.75015  0.24367  0.85678  1.0000
  H   H4508     1.0  0.76511  0.18335  0.52623  1.0000
  H   H4509     1.0  0.76298  0.22579  0.72404  1.0000
  C   C2653     1.0  0.77737  0.18122  0.60740  1.0000
  N   N185      1.0  0.68356  0.47116  0.55861  1.0000
  H   H4510     1.0  0.74740  0.39877  0.89994  1.0000
  H   H4511     1.0  0.70919  0.20165  0.74811  1.0000
  C   C2654     1.0  0.60237  0.97484  0.71666  1.0000
  S   S768      1.0  0.76566  0.38381  0.58163  1.0000
  H   H4512     1.0  0.69075  0.38088  0.54528  1.0000
  H   H4513     1.0  0.60055  0.00267  0.70120  1.0000
  H   H4514     1.0  0.63376  0.45516  0.88356  1.0000
  H   H4515     1.0  0.64981  0.45849  0.56168  1.0000
  H   H4516     1.0  0.78119  0.32228  0.89425  1.0000
  H   H4517     1.0  0.69457  0.42794  0.80219  1.0000
  H   H4518     1.0  0.62100  0.40891  0.80658  1.0000
  S   S769      1.0  0.77922  0.42190  0.81457  1.0000
  C   C2655     1.0  0.76225  0.24158  0.83780  1.0000
  H   H4519     1.0  0.59498  0.36281  0.74568  1.0000
  H   H4520     1.0  0.69866  0.25007  0.71541  1.0000
  H   H4521     1.0  0.75564  0.16132  0.70719  1.0000
  C   C2656     1.0  0.76836  0.30519  0.53891  1.0000
  S   S770      1.0  0.77009  0.44679  0.84660  1.0000
  H   H4522     1.0  0.70963  0.44675  0.58105  1.0000
  H   H4523     1.0  0.76431  0.07289  0.65361  1.0000
  H   H4524     1.0  0.77274  0.10403  0.75195  1.0000
  H   H4525     1.0  0.61024  0.34439  0.76915  1.0000
  S   S771      1.0  0.75745  0.40705  0.85674  1.0000
  H   H4526     1.0  0.74263  0.23221  0.86277  1.0000
  C   C2657     1.0  0.69290  0.34974  0.57237  1.0000
  C   C2658     1.0  0.77107  0.18179  0.84225  1.0000
  H   H4527     1.0  0.75366  0.38454  0.71649  1.0000
  S   S772      1.0  0.76656  0.35720  0.54332  1.0000
  C   C2659     1.0  0.69496  0.45097  0.58769  1.0000
  H   H4528     1.0  0.76935  0.20557  0.51310  1.0000
  C   C2660     1.0  0.61079  0.04678  0.94346  1.0000
  H   H4529     1.0  0.58624  0.07857  0.92977  1.0000
  C   C2661     1.0  0.70396  0.08343  0.50226  1.0000
  C   C2662     1.0  0.68192  0.45466  0.57415  1.0000
  H   H4530     1.0  0.72741  0.34064  0.55067  1.0000
  H   H4531     1.0  0.67967  0.45715  0.53911  1.0000
  C   C2663     1.0  0.74728  0.43474  0.93482  1.0000
  C   C2664     1.0  0.71386  0.40299  0.67900  1.0000
  N   N186      1.0  0.61588  0.98517  0.68192  1.0000
  H   H4532     1.0  0.77680  0.24985  0.80259  1.0000
  H   H4533     1.0  0.71322  0.45655  0.52690  1.0000
  C   C2665     1.0  0.74123  0.46464  0.88907  1.0000
  H   H4534     1.0  0.68502  0.08735  0.89287  1.0000
  H   H4535     1.0  0.70362  0.98581  0.53322  1.0000
  C   C2666     1.0  0.70836  0.23126  0.74627  1.0000
  H   H4536     1.0  0.75800  0.40975  0.67206  1.0000
  H   H4537     1.0  0.67261  0.11326  0.78828  1.0000
  C   C2667     1.0  0.71597  0.11316  0.73123  1.0000
  C   C2668     1.0  0.72184  0.08812  0.48897  1.0000
  C   C2669     1.0  0.75420  0.39930  0.91098  1.0000
  C   C2670     1.0  0.75659  0.04178  0.49505  1.0000
  S   S773      1.0  0.77706  0.10448  0.66272  1.0000
  C   C2671     1.0  0.63432  0.98564  0.68547  1.0000
  N   N187      1.0  0.70820  0.11935  0.76432  1.0000
  C   C2672     1.0  0.66912  0.40770  0.76942  1.0000
  H   H4538     1.0  0.77155  0.22795  0.84017  1.0000
  H   H4539     1.0  0.73682  0.11249  0.79594  1.0000
  N   N188      1.0  0.75474  0.11960  0.60186  1.0000
  H   H4540     1.0  0.69257  0.10001  0.76262  1.0000
  C   C2673     1.0  0.74282  0.13666  0.59292  1.0000
  C   C2674     1.0  0.74637  0.10318  0.60372  1.0000
  C   C2675     1.0  0.75773  0.12092  0.62021  1.0000
  S   S774      1.0  0.74704  0.17045  0.74263  1.0000
  C   C2676     1.0  0.75033  0.15453  0.58849  1.0000
  C   C2677     1.0  0.72706  0.10307  0.61608  1.0000
  C   C2678     1.0  0.74129  0.13112  0.63279  1.0000
  H   H4541     1.0  0.75250  0.45944  0.87888  1.0000
  C   C2679     1.0  0.63404  0.39845  0.80555  1.0000
  H   H4542     1.0  0.72874  0.13950  0.60132  1.0000
  H   H4543     1.0  0.74061  0.13470  0.57975  1.0000
  H   H4544     1.0  0.74554  0.10150  0.58993  1.0000
  H   H4545     1.0  0.72715  0.25783  0.69159  1.0000
  H   H4546     1.0  0.73041  0.12734  0.74211  1.0000
  H   H4547     1.0  0.70840  0.15241  0.73530  1.0000
  H   H4548     1.0  0.75989  0.19549  0.86518  1.0000
  C   C2680     1.0  0.72184  0.24517  0.69326  1.0000
  H   H4549     1.0  0.69684  0.24327  0.74791  1.0000
  H   H4550     1.0  0.76157  0.15500  0.57605  1.0000
  H   H4551     1.0  0.73918  0.16656  0.58533  1.0000
  H   H4552     1.0  0.75532  0.15639  0.60014  1.0000
  H   H4553     1.0  0.71652  0.11506  0.61155  1.0000
  H   H4554     1.0  0.72746  0.10174  0.63072  1.0000
  H   H4555     1.0  0.72235  0.09070  0.61537  1.0000
  H   H4556     1.0  0.74141  0.12413  0.64735  1.0000
  H   H4557     1.0  0.72745  0.13157  0.63053  1.0000
  H   H4558     1.0  0.74312  0.14529  0.63190  1.0000
  H   H4559     1.0  0.75563  0.38018  0.66266  1.0000
  H   H4560     1.0  0.71194  0.98447  0.55369  1.0000
  H   H4561     1.0  0.63352  0.03975  0.95881  1.0000
  C   C2681     1.0  0.76363  0.98330  0.65351  1.0000
  H   H4562     1.0  0.63536  0.45554  0.91436  1.0000
  H   H4563     1.0  0.77226  0.42126  0.94439  1.0000
  H   H4564     1.0  0.78230  0.01603  0.64431  1.0000
  H   H4565     1.0  0.77288  0.20195  0.58313  1.0000
  H   H4566     1.0  0.58572  0.13195  0.93184  1.0000
  C   C2682     1.0  0.71456  0.45476  0.54138  1.0000
  C   C2683     1.0  0.65274  0.47061  0.55077  1.0000
  H   H4567     1.0  0.68532  0.10830  0.46941  1.0000
  H   H4568     1.0  0.77147  0.25169  0.83389  1.0000
  S   S775      1.0  0.78096  0.15458  0.63823  1.0000
  S   S776      1.0  0.58975  0.14871  0.84294  1.0000
  H   H4569     1.0  0.77039  0.21047  0.80735  1.0000
  H   H4570     1.0  0.60812  0.04175  0.93211  1.0000
  C   C2684     1.0  0.65449  0.98132  0.57333  1.0000
  H   H4571     1.0  0.59249  0.41552  0.48934  1.0000
  C   C2685     1.0  0.70545  0.97729  0.54687  1.0000
  H   H4572     1.0  0.71721  0.09866  0.47735  1.0000
  C   C2686     1.0  0.76685  0.24055  0.80543  1.0000
  H   H4573     1.0  0.75947  0.40587  0.94234  1.0000
  H   H4574     1.0  0.59159  0.02008  0.95573  1.0000
  H   H4575     1.0  0.76976  0.04508  0.48634  1.0000
  H   H4576     1.0  0.59292  0.01357  0.64733  1.0000
  H   H4577     1.0  0.62187  0.47339  0.86923  1.0000
  H   H4578     1.0  0.60552  0.06594  0.96748  1.0000
  N   N189      1.0  0.66123  0.47328  0.88478  1.0000
  N   N190      1.0  0.59111  0.33508  0.75896  1.0000
  H   H4579     1.0  0.58982  0.38493  0.48602  1.0000
  C   C2687     1.0  0.58891  0.31869  0.75279  1.0000
  H   H4580     1.0  0.58769  0.33438  0.79879  1.0000
  C   C2688     1.0  0.59042  0.30015  0.76660  1.0000
  H   H4581     1.0  0.77323  0.18871  0.96484  1.0000
  S   S777      1.0  0.66493  0.01579  0.46947  1.0000
  C   C2689     1.0  0.72666  0.06341  0.47214  1.0000
  H   H4582     1.0  0.78384  0.08683  0.59377  1.0000
  C   C2690     1.0  0.59340  0.02607  0.96684  1.0000
  H   H4583     1.0  0.71119  0.47412  0.55904  1.0000
  Fe  Fe386     1.0  0.77634  0.59860  0.15371  1.0000
  H   H4584     1.0  0.77123  0.77184  0.34667  1.0000
  S   S778      1.0  0.75959  0.57670  0.15862  1.0000
  H   H4585     1.0  0.78279  0.73416  0.10294  1.0000
  H   H4586     1.0  0.66402  0.54620  0.45406  1.0000
  S   S779      1.0  0.76445  0.65609  0.18105  1.0000
  S   S780      1.0  0.76973  0.92909  0.29493  1.0000
  H   H4587     1.0  0.75216  0.51717  0.13413  1.0000
  C   C2691     1.0  0.60337  0.68388  0.35052  1.0000
  S   S781      1.0  0.66884  0.50982  0.11754  1.0000
  S   S782      1.0  0.76798  0.62886  0.14235  1.0000
  C   C2692     1.0  0.60908  0.64683  0.45111  1.0000
  H   H4588     1.0  0.70052  0.57589  0.00158  1.0000
  H   H4589     1.0  0.67046  0.52920  0.07510  1.0000
  S   S783      1.0  0.76064  0.71087  0.05857  1.0000
  H   H4590     1.0  0.63679  0.65834  0.39587  1.0000
  H   H4591     1.0  0.66724  0.93732  0.05245  1.0000
  H   H4592     1.0  0.69344  0.95781  0.03267  1.0000
  H   H4593     1.0  0.77889  0.75784  0.46514  1.0000
  H   H4594     1.0  0.59282  0.68177  0.28835  1.0000
  S   S784      1.0  0.76076  0.75273  0.01803  1.0000
  H   H4595     1.0  0.58988  0.54324  0.35871  1.0000
  H   H4596     1.0  0.64705  0.96041  0.39788  1.0000
  C   C2693     1.0  0.77397  0.70462  0.31898  1.0000
  H   H4597     1.0  0.59149  0.54984  0.30660  1.0000
  H   H4598     1.0  0.78120  0.66879  0.99939  1.0000
  H   H4599     1.0  0.75509  0.95621  0.14018  1.0000
  C   C2694     1.0  0.77910  0.53422  0.10709  1.0000
  C   C2695     1.0  0.65841  0.54212  0.44400  1.0000
  H   H4600     1.0  0.65112  0.48419  0.03348  1.0000
  H   H4601     1.0  0.60103  0.89368  0.36425  1.0000
  H   H4602     1.0  0.59390  0.50657  0.15743  1.0000
  C   C2696     1.0  0.71908  0.80434  0.04287  1.0000
  H   H4603     1.0  0.76925  0.65300  0.10345  1.0000
  S   S785      1.0  0.75350  0.87348  0.11151  1.0000
  H   H4604     1.0  0.74218  0.68329  0.46783  1.0000
  H   H4605     1.0  0.71751  0.60775  0.97275  1.0000
  Fe  Fe387     1.0  0.70161  0.68403  0.30202  1.0000
  S   S786      1.0  0.72456  0.66142  0.31077  1.0000
  S   S787      1.0  0.67170  0.68397  0.31616  1.0000
  Fe  Fe388     1.0  0.72851  0.70721  0.27618  1.0000
  S   S788      1.0  0.75367  0.68635  0.28281  1.0000
  S   S789      1.0  0.73311  0.73357  0.25612  1.0000
  Fe  Fe389     1.0  0.73809  0.66592  0.28077  1.0000
  S   S790      1.0  0.75176  0.64111  0.26791  1.0000
  Fe  Fe390     1.0  0.73806  0.68385  0.31204  1.0000
  S   S791      1.0  0.74902  0.68209  0.33729  1.0000
  S   S792      1.0  0.71400  0.68693  0.27175  1.0000
  S   S793      1.0  0.71407  0.70620  0.30564  1.0000
  Fe  Fe391     1.0  0.74835  0.85645  0.09395  1.0000
  S   S794      1.0  0.75052  0.87844  0.06840  1.0000
  Fe  Fe392     1.0  0.72265  0.88257  0.11729  1.0000
  S   S795      1.0  0.72221  0.90680  0.09354  1.0000
  S   S796      1.0  0.70552  0.88611  0.14535  1.0000
  Fe  Fe393     1.0  0.71990  0.88725  0.07727  1.0000
  S   S797      1.0  0.70456  0.89444  0.05397  1.0000
  S   S798      1.0  0.71743  0.86388  0.10158  1.0000
  Fe  Fe394     1.0  0.69140  0.87188  0.26516  1.0000
  S   S799      1.0  0.69592  0.84945  0.24960  1.0000
  S   S800      1.0  0.66656  0.89516  0.26489  1.0000
  Fe  Fe395     1.0  0.72635  0.85555  0.28063  1.0000
  S   S801      1.0  0.73392  0.83165  0.26647  1.0000
  S   S802      1.0  0.74093  0.85656  0.30242  1.0000
  Fe  Fe396     1.0  0.72549  0.85263  0.24213  1.0000
  S   S803      1.0  0.74328  0.85054  0.21412  1.0000
  Fe  Fe397     1.0  0.70393  0.83045  0.27504  1.0000
  S   S804      1.0  0.69294  0.80466  0.28842  1.0000
  S   S805      1.0  0.72049  0.87682  0.25553  1.0000
  S   S806      1.0  0.69691  0.85260  0.29129  1.0000
  C   C2697     1.0  0.67446  0.85069  0.05746  1.0000
  Fe  Fe398     1.0  0.75279  0.89625  0.08654  1.0000
  Fe  Fe399     1.0  0.60328  0.92659  0.04491  1.0000
  C   C2698     1.0  0.65479  0.47553  0.17273  1.0000
  S   S807      1.0  0.61729  0.91421  0.06923  1.0000
  C   C2699     1.0  0.66371  0.94938  0.01512  1.0000
  C   C2700     1.0  0.58954  0.93114  0.34581  1.0000
  H   H4606     1.0  0.72051  0.62548  0.46067  1.0000
  S   S808      1.0  0.61499  0.92867  0.01467  1.0000
  Fe  Fe400     1.0  0.72781  0.53461  0.09459  1.0000
  S   S809      1.0  0.74985  0.51333  0.08196  1.0000
  S   S810      1.0  0.73488  0.56232  0.09146  1.0000
  Fe  Fe401     1.0  0.69910  0.51015  0.10558  1.0000
  Fe  Fe402     1.0  0.72767  0.50892  0.07001  1.0000
  S   S811      1.0  0.73371  0.50337  0.04126  1.0000
  S   S812      1.0  0.70639  0.53181  0.08061  1.0000
  C   C2701     1.0  0.70645  0.57655  0.97163  1.0000
  H   H4607     1.0  0.58884  0.70995  0.29193  1.0000
  H   H4608     1.0  0.69414  0.96185  0.43676  1.0000
  H   H4609     1.0  0.71359  0.91679  0.16128  1.0000
  H   H4610     1.0  0.62577  0.63625  0.42750  1.0000
  S   S813      1.0  0.78032  0.71766  0.42670  1.0000
  H   H4611     1.0  0.61731  0.63548  0.40012  1.0000
  H   H4612     1.0  0.62231  0.71233  0.32300  1.0000
  H   H4613     1.0  0.78198  0.73828  0.45540  1.0000
  S   S814      1.0  0.67487  0.54324  0.99153  1.0000
  H   H4614     1.0  0.68694  0.95346  0.39748  1.0000
  H   H4615     1.0  0.62639  0.96940  0.04012  1.0000
  C   C2702     1.0  0.61321  0.88182  0.34025  1.0000
  C   C2703     1.0  0.63956  0.47737  0.19015  1.0000
  C   C2704     1.0  0.77148  0.70159  0.46273  1.0000
  H   H4616     1.0  0.72410  0.92301  0.12799  1.0000
  H   H4617     1.0  0.70683  0.51359  0.98695  1.0000
  H   H4618     1.0  0.70702  0.56153  0.97367  1.0000
  C   C2705     1.0  0.76154  0.51062  0.14385  1.0000
  C   C2706     1.0  0.72824  0.86253  0.02152  1.0000
  S   S815      1.0  0.75428  0.92631  0.34897  1.0000
  H   H4619     1.0  0.74658  0.77719  0.34883  1.0000
  Fe  Fe403     1.0  0.60605  0.61731  0.33934  1.0000
  H   H4620     1.0  0.58632  0.62672  0.40557  1.0000
  S   S816      1.0  0.62984  0.62254  0.31556  1.0000
  H   H4621     1.0  0.77203  0.87501  0.17897  1.0000
  C   C2707     1.0  0.67059  0.49483  0.04287  1.0000
  C   C2708     1.0  0.73759  0.96631  0.39864  1.0000
  S   S817      1.0  0.71893  0.48692  0.09397  1.0000
  C   C2709     1.0  0.77218  0.88710  0.16735  1.0000
  C   C2710     1.0  0.77398  0.69030  0.06847  1.0000
  H   H4622     1.0  0.74418  0.54381  0.97936  1.0000
  C   C2711     1.0  0.76585  0.79986  0.07552  1.0000
  H   H4623     1.0  0.66034  0.50790  0.04056  1.0000
  C   C2712     1.0  0.66806  0.95142  0.05300  1.0000
  C   C2713     1.0  0.63589  0.60004  0.41790  1.0000
  C   C2714     1.0  0.62435  0.59578  0.40858  1.0000
  C   C2715     1.0  0.60871  0.58876  0.41850  1.0000
  H   H4624     1.0  0.61192  0.59021  0.46179  1.0000
  H   H4625     1.0  0.66402  0.95146  0.06798  1.0000
  H   H4626     1.0  0.64815  0.60522  0.41014  1.0000
  H   H4627     1.0  0.62777  0.59758  0.39373  1.0000
  C   C2716     1.0  0.68934  0.83612  0.04834  1.0000
  H   H4628     1.0  0.75865  0.71158  0.46286  1.0000
  H   H4629     1.0  0.68389  0.49899  0.03534  1.0000
  C   C2717     1.0  0.59565  0.49499  0.16934  1.0000
  N   N191      1.0  0.75107  0.91822  0.15644  1.0000
  H   H4630     1.0  0.67435  0.93850  0.02117  1.0000
  S   S818      1.0  0.59826  0.58968  0.35256  1.0000
  H   H4631     1.0  0.76504  0.49557  0.14449  1.0000
  H   H4632     1.0  0.73082  0.73309  0.31362  1.0000
  S   S819      1.0  0.59080  0.95656  0.04242  1.0000
  C   C2718     1.0  0.73952  0.74672  0.33114  1.0000
  H   H4633     1.0  0.61851  0.67698  0.38850  1.0000
  H   H4634     1.0  0.63736  0.94611  0.04607  1.0000
  H   H4635     1.0  0.69722  0.93900  0.05075  1.0000
  C   C2719     1.0  0.69157  0.53223  0.00488  1.0000
  C   C2720     1.0  0.69050  0.53796  0.02114  1.0000
  C   C2721     1.0  0.70363  0.52947  0.03214  1.0000
  C   C2722     1.0  0.71773  0.51497  0.02712  1.0000
  C   C2723     1.0  0.71893  0.50935  0.01071  1.0000
  C   C2724     1.0  0.70589  0.51801  0.99956  1.0000
  H   H4636     1.0  0.67955  0.54911  0.02518  1.0000
  H   H4637     1.0  0.70280  0.53416  0.04450  1.0000
  H   H4638     1.0  0.72989  0.49821  0.00670  1.0000
  C   C2725     1.0  0.75623  0.68168  0.13430  1.0000
  H   H4639     1.0  0.62130  0.64493  0.45730  1.0000
  C   C2726     1.0  0.66180  0.48865  0.12237  1.0000
  H   H4640     1.0  0.73511  0.95940  0.42815  1.0000
  C   C2727     1.0  0.74955  0.87647  0.29973  1.0000
  C   C2728     1.0  0.75253  0.88848  0.28267  1.0000
  C   C2729     1.0  0.75908  0.90452  0.28112  1.0000
  C   C2730     1.0  0.76246  0.90862  0.29666  1.0000
  C   C2731     1.0  0.75944  0.89659  0.31367  1.0000
  C   C2732     1.0  0.75314  0.88049  0.31517  1.0000
  H   H4641     1.0  0.74995  0.88535  0.27066  1.0000
  H   H4642     1.0  0.76140  0.91381  0.26793  1.0000
  H   H4643     1.0  0.75076  0.87129  0.32840  1.0000
  C   C2733     1.0  0.68033  0.89887  0.05871  1.0000
  C   C2734     1.0  0.67011  0.89920  0.07658  1.0000
  C   C2735     1.0  0.65072  0.90362  0.07971  1.0000
  C   C2736     1.0  0.64152  0.90776  0.06502  1.0000
  C   C2737     1.0  0.65176  0.90715  0.04721  1.0000
  C   C2738     1.0  0.67112  0.90269  0.04408  1.0000
  H   H4644     1.0  0.67716  0.89626  0.08792  1.0000
  H   H4645     1.0  0.64284  0.90402  0.09353  1.0000
  H   H4646     1.0  0.64477  0.91018  0.03584  1.0000
  H   H4647     1.0  0.67899  0.90243  0.03024  1.0000
  C   C2739     1.0  0.71572  0.87541  0.16456  1.0000
  C   C2740     1.0  0.70643  0.87891  0.18200  1.0000
  C   C2741     1.0  0.71471  0.87124  0.19738  1.0000
  C   C2742     1.0  0.73232  0.86002  0.19533  1.0000
  C   C2743     1.0  0.74145  0.85627  0.17798  1.0000
  C   C2744     1.0  0.73313  0.86386  0.16266  1.0000
  H   H4648     1.0  0.69292  0.88779  0.18356  1.0000
  H   H4649     1.0  0.70758  0.87421  0.21073  1.0000
  H   H4650     1.0  0.75502  0.84750  0.17637  1.0000
  H   H4651     1.0  0.74024  0.86077  0.14940  1.0000
  C   C2745     1.0  0.66161  0.66583  0.31588  1.0000
  C   C2746     1.0  0.65328  0.65581  0.33254  1.0000
  C   C2747     1.0  0.64341  0.64255  0.33260  1.0000
  C   C2748     1.0  0.64171  0.63936  0.31598  1.0000
  C   C2749     1.0  0.64977  0.64962  0.29932  1.0000
  C   C2750     1.0  0.65960  0.66289  0.29926  1.0000
  H   H4652     1.0  0.65450  0.65831  0.34542  1.0000
  H   H4653     1.0  0.63745  0.63459  0.34551  1.0000
  H   H4654     1.0  0.64805  0.64755  0.28644  1.0000
  H   H4655     1.0  0.66520  0.67125  0.28642  1.0000
  C   C2751     1.0  0.72196  0.75331  0.26512  1.0000
  C   C2752     1.0  0.72895  0.76953  0.25825  1.0000
  C   C2753     1.0  0.72018  0.78537  0.26544  1.0000
  C   C2754     1.0  0.70426  0.78509  0.27927  1.0000
  C   C2755     1.0  0.69728  0.76891  0.28608  1.0000
  C   C2756     1.0  0.70610  0.75306  0.27901  1.0000
  H   H4656     1.0  0.74126  0.76975  0.24753  1.0000
  H   H4657     1.0  0.72575  0.79776  0.26030  1.0000
  H   H4658     1.0  0.68493  0.76867  0.29676  1.0000
  H   H4659     1.0  0.70034  0.74078  0.28403  1.0000
  C   C2757     1.0  0.73732  0.55265  0.98956  1.0000
  H   H4660     1.0  0.75892  0.75353  0.35378  1.0000
  C   C2758     1.0  0.59463  0.92383  0.12380  1.0000
  H   H4661     1.0  0.65047  0.51982  0.07906  1.0000
  H   H4662     1.0  0.60873  0.53498  0.40846  1.0000
  H   H4663     1.0  0.75229  0.68377  0.99181  1.0000
  H   H4664     1.0  0.62467  0.49203  0.16039  1.0000
  H   H4665     1.0  0.73094  0.94409  0.15420  1.0000
  S   S820      1.0  0.78308  0.88244  0.37681  1.0000
  H   H4666     1.0  0.74660  0.95340  0.39638  1.0000
  C   C2759     1.0  0.64571  0.88752  0.27543  1.0000
  C   C2760     1.0  0.64605  0.86984  0.28619  1.0000
  C   C2761     1.0  0.62950  0.86399  0.29525  1.0000
  C   C2762     1.0  0.61245  0.87555  0.29324  1.0000
  C   C2763     1.0  0.61200  0.89314  0.28211  1.0000
  C   C2764     1.0  0.62864  0.89921  0.27342  1.0000
  H   H4667     1.0  0.65904  0.86063  0.28769  1.0000
  H   H4668     1.0  0.62993  0.85037  0.30383  1.0000
  C   C2765     1.0  0.78233  0.70737  0.35168  1.0000
  H   H4669     1.0  0.62831  0.91288  0.26500  1.0000
  H   H4670     1.0  0.70635  0.80210  0.03998  1.0000
  H   H4671     1.0  0.73682  0.93579  0.17590  1.0000
  C   C2766     1.0  0.76478  0.66086  0.44742  1.0000
  H   H4672     1.0  0.72010  0.77949  0.31093  1.0000
  H   H4673     1.0  0.76764  0.77835  0.31594  1.0000
  H   H4674     1.0  0.59685  0.51765  0.40817  1.0000
  H   H4675     1.0  0.62404  0.97289  0.07296  1.0000
  C   C2767     1.0  0.71516  0.84139  0.05996  1.0000
  H   H4676     1.0  0.72358  0.67701  0.99156  1.0000
  H   H4677     1.0  0.78029  0.91792  0.14581  1.0000
  S   S821      1.0  0.76128  0.82629  0.09555  1.0000
  H   H4678     1.0  0.61818  0.68460  0.34565  1.0000
  H   H4679     1.0  0.68812  0.82270  0.05772  1.0000
  H   H4680     1.0  0.76164  0.74611  0.29915  1.0000
  C   C2768     1.0  0.77032  0.80602  0.04221  1.0000
  C   C2769     1.0  0.76845  0.79362  0.05911  1.0000
  C   C2770     1.0  0.76483  0.81851  0.07502  1.0000
  C   C2771     1.0  0.76693  0.83075  0.05808  1.0000
  S   S822      1.0  0.77886  0.95775  0.32595  1.0000
  H   H4681     1.0  0.76663  0.84501  0.05751  1.0000
  H   H4682     1.0  0.66826  0.53027  0.43891  1.0000
  H   H4683     1.0  0.67915  0.49585  0.08422  1.0000
  N   N192      1.0  0.58962  0.91281  0.34179  1.0000
  H   H4684     1.0  0.61269  0.52666  0.38784  1.0000
  H   H4685     1.0  0.59224  0.58110  0.44550  1.0000
  C   C2772     1.0  0.62446  0.66211  0.38949  1.0000
  H   H4686     1.0  0.65136  0.50178  0.46022  1.0000
  Fe  Fe404     1.0  0.77662  0.72928  0.03566  1.0000
  H   H4687     1.0  0.76013  0.83578  0.37872  1.0000
  Fe  Fe405     1.0  0.77952  0.91145  0.36050  1.0000
  H   H4688     1.0  0.62141  0.88554  0.32614  1.0000
  C   C2773     1.0  0.75166  0.57389  0.14003  1.0000
  C   C2774     1.0  0.74135  0.56025  0.14291  1.0000
  C   C2775     1.0  0.73564  0.55697  0.12818  1.0000
  C   C2776     1.0  0.74011  0.56743  0.11049  1.0000
  C   C2777     1.0  0.74998  0.58144  0.10768  1.0000
  C   C2778     1.0  0.75587  0.58459  0.12240  1.0000
  H   H4689     1.0  0.73793  0.55206  0.15656  1.0000
  H   H4690     1.0  0.72781  0.54636  0.13051  1.0000
  H   H4691     1.0  0.75349  0.58956  0.09401  1.0000
  H   H4692     1.0  0.76379  0.59517  0.12009  1.0000
  C   C2779     1.0  0.76017  0.65161  0.20524  1.0000
  C   C2780     1.0  0.75509  0.66644  0.21430  1.0000
  C   C2781     1.0  0.75243  0.66334  0.23355  1.0000
  C   C2782     1.0  0.75496  0.64537  0.24381  1.0000
  C   C2783     1.0  0.75984  0.63052  0.23480  1.0000
  C   C2784     1.0  0.76230  0.63363  0.21555  1.0000
  H   H4693     1.0  0.75334  0.68038  0.20640  1.0000
  H   H4694     1.0  0.74860  0.67487  0.24042  1.0000
  H   H4695     1.0  0.76166  0.61659  0.24270  1.0000
  H   H4696     1.0  0.76595  0.62213  0.20871  1.0000
  S   S823      1.0  0.60177  0.62630  0.36604  1.0000
  H   H4697     1.0  0.59118  0.94962  0.10548  1.0000
  H   H4698     1.0  0.66354  0.94104  0.41938  1.0000
  H   H4699     1.0  0.76588  0.53037  0.10746  1.0000
  H   H4700     1.0  0.69880  0.96762  0.40331  1.0000
  C   C2785     1.0  0.76535  0.67805  0.08298  1.0000
  C   C2786     1.0  0.62276  0.71055  0.30897  1.0000
  H   H4701     1.0  0.63943  0.49057  0.19388  1.0000
  C   C2787     1.0  0.76068  0.77389  0.28393  1.0000
  H   H4702     1.0  0.75049  0.68098  0.08747  1.0000
  H   H4703     1.0  0.70338  0.85678  0.01761  1.0000
  H   H4704     1.0  0.72682  0.81496  0.07609  1.0000
  H   H4705     1.0  0.60303  0.63439  0.45740  1.0000
  C   C2788     1.0  0.77481  0.71156  0.13714  1.0000
  H   H4706     1.0  0.67193  0.86397  0.04766  1.0000
  C   C2789     1.0  0.70914  0.85715  0.02949  1.0000
  N   N193      1.0  0.70884  0.83938  0.04355  1.0000
  H   H4707     1.0  0.73971  0.75808  0.29427  1.0000
  H   H4708     1.0  0.73639  0.82436  0.03458  1.0000
  S   S824      1.0  0.71867  0.51499  0.12064  1.0000
  H   H4709     1.0  0.71244  0.83130  0.08949  1.0000
  H   H4710     1.0  0.69151  0.96189  0.05541  1.0000
  H   H4711     1.0  0.75121  0.67082  0.14578  1.0000
  H   H4712     1.0  0.59890  0.92173  0.37247  1.0000
  H   H4713     1.0  0.78182  0.82110  0.37878  1.0000
  C   C2790     1.0  0.74859  0.91158  0.14042  1.0000
  C   C2791     1.0  0.78322  0.67331  0.01127  1.0000
  N   N194      1.0  0.74822  0.68701  0.01993  1.0000
  C   C2792     1.0  0.73484  0.67424  0.46421  1.0000
  C   C2793     1.0  0.73280  0.68776  0.03667  1.0000
  C   C2794     1.0  0.75178  0.70621  0.01191  1.0000
  C   C2795     1.0  0.74427  0.67875  0.00570  1.0000
  H   H4714     1.0  0.70438  0.93482  0.17393  1.0000
  H   H4715     1.0  0.61310  0.95556  0.07123  1.0000
  C   C2796     1.0  0.73633  0.72038  0.00363  1.0000
  C   C2797     1.0  0.72394  0.68202  0.00386  1.0000
  H   H4716     1.0  0.74786  0.69483  0.13769  1.0000
  C   C2798     1.0  0.59295  0.91512  0.32115  1.0000
  H   H4717     1.0  0.71950  0.69556  0.03291  1.0000
  H   H4718     1.0  0.58701  0.91306  0.13222  1.0000
  H   H4719     1.0  0.67285  0.48575  0.01761  1.0000
  N   N195      1.0  0.62044  0.47667  0.18853  1.0000
  C   C2799     1.0  0.59129  0.67530  0.31877  1.0000
  H   H4720     1.0  0.67586  0.95063  0.44957  1.0000
  C   C2800     1.0  0.68857  0.95296  0.04755  1.0000
  H   H4721     1.0  0.59887  0.90209  0.28045  1.0000
  C   C2801     1.0  0.78242  0.89550  0.40721  1.0000
  H   H4722     1.0  0.75544  0.90619  0.18429  1.0000
  C   C2802     1.0  0.61557  0.64899  0.43000  1.0000
  H   H4723     1.0  0.75076  0.57521  0.97606  1.0000
  H   H4724     1.0  0.73507  0.71737  0.99062  1.0000
  H   H4725     1.0  0.74017  0.73411  0.99979  1.0000
  H   H4726     1.0  0.72289  0.72169  0.01341  1.0000
  H   H4727     1.0  0.71566  0.67414  0.01587  1.0000
  Fe  Fe406     1.0  0.77424  0.93139  0.32212  1.0000
  H   H4728     1.0  0.71705  0.69665  0.00186  1.0000
  H   H4729     1.0  0.61539  0.50603  0.17706  1.0000
  N   N196      1.0  0.67262  0.96475  0.42178  1.0000
  H   H4730     1.0  0.60657  0.91911  0.31463  1.0000
  H   H4731     1.0  0.77457  0.54737  0.11201  1.0000
  H   H4732     1.0  0.61531  0.72325  0.30121  1.0000
  C   C2803     1.0  0.71632  0.92342  0.17134  1.0000
  N   N197      1.0  0.59539  0.69372  0.31809  1.0000
  C   C2804     1.0  0.63902  0.53754  0.45210  1.0000
  H   H4733     1.0  0.73552  0.69549  0.04593  1.0000
  H   H4734     1.0  0.75364  0.51276  0.15770  1.0000
  H   H4735     1.0  0.67785  0.85293  0.06987  1.0000
  H   H4736     1.0  0.63298  0.50128  0.12459  1.0000
  H   H4737     1.0  0.69062  0.50394  0.06164  1.0000
  H   H4738     1.0  0.60695  0.49295  0.20935  1.0000
  H   H4739     1.0  0.75577  0.68803  0.43053  1.0000
  N   N198      1.0  0.60066  0.65277  0.41898  1.0000
  H   H4740     1.0  0.65405  0.48860  0.16235  1.0000
  H   H4741     1.0  0.60230  0.93628  0.33793  1.0000
  H   H4742     1.0  0.74540  0.92385  0.11220  1.0000
  C   C2805     1.0  0.61569  0.59125  0.44705  1.0000
  H   H4743     1.0  0.78110  0.67249  0.14590  1.0000
  H   H4744     1.0  0.60172  0.54338  0.45928  1.0000
  H   H4745     1.0  0.78222  0.90544  0.43122  1.0000
  H   H4746     1.0  0.60781  0.66092  0.29672  1.0000
  H   H4747     1.0  0.78066  0.96085  0.26327  1.0000
  Fe  Fe407     1.0  0.60063  0.95840  0.01210  1.0000
  H   H4748     1.0  0.70407  0.92854  0.44268  1.0000
  H   H4749     1.0  0.72357  0.54945  0.99635  1.0000
  H   H4750     1.0  0.72969  0.65391  0.44469  1.0000
  C   C2806     1.0  0.65754  0.95456  0.42343  1.0000
  H   H4751     1.0  0.58871  0.94558  0.36714  1.0000
  H   H4752     1.0  0.70690  0.93693  0.41853  1.0000
  H   H4753     1.0  0.74564  0.54872  0.00045  1.0000
  H   H4754     1.0  0.77273  0.88208  0.15482  1.0000
  H   H4755     1.0  0.66114  0.84588  0.06196  1.0000
  H   H4756     1.0  0.66233  0.52796  0.05575  1.0000
  H   H4757     1.0  0.68074  0.57952  0.99182  1.0000
  H   H4758     1.0  0.59396  0.90204  0.31698  1.0000
  N   N199      1.0  0.70091  0.81478  0.20875  1.0000
  C   C2807     1.0  0.70550  0.82595  0.18951  1.0000
  C   C2808     1.0  0.71634  0.81361  0.21826  1.0000
  C   C2809     1.0  0.68329  0.82522  0.21863  1.0000
  C   C2810     1.0  0.69854  0.79613  0.20754  1.0000
  C   C2811     1.0  0.69048  0.83080  0.17790  1.0000
  C   C2812     1.0  0.73598  0.80618  0.20817  1.0000
  C   C2813     1.0  0.67612  0.81660  0.23884  1.0000
  C   C2814     1.0  0.70283  0.77989  0.22355  1.0000
  H   H4759     1.0  0.70876  0.83916  0.18999  1.0000
  H   H4760     1.0  0.71812  0.81869  0.18128  1.0000
  H   H4761     1.0  0.71431  0.80499  0.23221  1.0000
  H   H4762     1.0  0.71641  0.82741  0.22046  1.0000
  H   H4763     1.0  0.68487  0.83941  0.21825  1.0000
  H   H4764     1.0  0.67166  0.82699  0.21163  1.0000
  H   H4765     1.0  0.68417  0.79682  0.20619  1.0000
  H   H4766     1.0  0.70748  0.79175  0.19484  1.0000
  H   H4767     1.0  0.69657  0.83641  0.16338  1.0000
  H   H4768     1.0  0.68505  0.81863  0.17799  1.0000
  H   H4769     1.0  0.67899  0.84184  0.18248  1.0000
  H   H4770     1.0  0.74554  0.80223  0.21794  1.0000
  H   H4771     1.0  0.73667  0.79397  0.20258  1.0000
  H   H4772     1.0  0.74120  0.81701  0.19681  1.0000
  H   H4773     1.0  0.67033  0.80439  0.23985  1.0000
  H   H4774     1.0  0.66454  0.82673  0.24495  1.0000
  H   H4775     1.0  0.68656  0.81314  0.24756  1.0000
  H   H4776     1.0  0.71785  0.77565  0.22333  1.0000
  H   H4777     1.0  0.69836  0.76773  0.22197  1.0000
  H   H4778     1.0  0.69564  0.78264  0.23731  1.0000
  Fe  Fe408     1.0  0.73919  0.49343  0.10689  1.0000
  H   H4779     1.0  0.68789  0.92550  0.43104  1.0000
  Fe  Fe409     1.0  0.76076  0.95150  0.35391  1.0000
  H   H4780     1.0  0.65035  0.95078  0.43800  1.0000
  C   C2815     1.0  0.72188  0.82424  0.03463  1.0000
  Fe  Fe410     1.0  0.58761  0.92373  0.01282  1.0000
  N   N200      1.0  0.65477  0.96578  0.04271  1.0000
  C   C2816     1.0  0.60706  0.47945  0.20628  1.0000
  H   H4781     1.0  0.59280  0.55662  0.38344  1.0000
  C   C2817     1.0  0.73622  0.57330  0.98099  1.0000
  C   C2818     1.0  0.62673  0.95938  0.06898  1.0000
  H   H4782     1.0  0.61728  0.90534  0.34752  1.0000
  S   S825      1.0  0.64629  0.60407  0.44790  1.0000
  C   C2819     1.0  0.68480  0.96626  0.40277  1.0000
  C   C2820     1.0  0.72989  0.77974  0.31941  1.0000
  H   H4783     1.0  0.77957  0.95042  0.13441  1.0000
  H   H4784     1.0  0.65763  0.55382  0.43203  1.0000
  H   H4785     1.0  0.72118  0.82657  0.01983  1.0000
  H   H4786     1.0  0.76602  0.70862  0.10611  1.0000
  H   H4787     1.0  0.73026  0.65878  0.04023  1.0000
  C   C2821     1.0  0.60188  0.53016  0.39985  1.0000
  H   H4788     1.0  0.77438  0.64815  0.44383  1.0000
  H   H4789     1.0  0.73399  0.86545  0.03217  1.0000
  H   H4790     1.0  0.73083  0.79481  0.03610  1.0000
  H   H4791     1.0  0.72657  0.87549  0.01105  1.0000
  H   H4792     1.0  0.62906  0.55088  0.45134  1.0000
  H   H4793     1.0  0.59203  0.71129  0.33745  1.0000
  N   N201      1.0  0.74779  0.65630  0.46138  1.0000
  C   C2822     1.0  0.75463  0.90178  0.17176  1.0000
  S   S826      1.0  0.59451  0.58266  0.40707  1.0000
  H   H4794     1.0  0.67341  0.97275  0.01638  1.0000
  C   C2823     1.0  0.60447  0.58634  0.43778  1.0000
  H   H4795     1.0  0.76294  0.68959  0.36530  1.0000
  H   H4796     1.0  0.73013  0.68198  0.45131  1.0000
  C   C2824     1.0  0.76535  0.69533  0.33589  1.0000
  C   C2825     1.0  0.73105  0.96972  0.41660  1.0000
  H   H4797     1.0  0.77280  0.66741  0.45327  1.0000
  Fe  Fe411     1.0  0.78248  0.74389  0.99437  1.0000
  S   S827      1.0  0.78443  0.93621  0.36787  1.0000
  H   H4798     1.0  0.77075  0.70362  0.30635  1.0000
  C   C2826     1.0  0.78109  0.70512  0.10614  1.0000
  C   C2827     1.0  0.76969  0.82453  0.04174  1.0000
  H   H4799     1.0  0.61840  0.50991  0.46783  1.0000
  H   H4800     1.0  0.63594  0.53059  0.44239  1.0000
  C   C2828     1.0  0.64276  0.96391  0.41175  1.0000
  C   C2829     1.0  0.58776  0.93160  0.36623  1.0000
  H   H4801     1.0  0.60248  0.87474  0.33964  1.0000
  H   H4802     1.0  0.78243  0.72302  0.13378  1.0000
  Fe  Fe412     1.0  0.59149  0.60007  0.37899  1.0000
  H   H4803     1.0  0.71662  0.91352  0.18466  1.0000
  H   H4804     1.0  0.73439  0.80426  0.32633  1.0000
  H   H4805     1.0  0.59957  0.68215  0.41549  1.0000
  C   C2830     1.0  0.76961  0.69671  0.35220  1.0000
  H   H4806     1.0  0.59890  0.68803  0.36407  1.0000
  C   C2831     1.0  0.60525  0.89885  0.34917  1.0000
  N   N202      1.0  0.70542  0.61961  0.27618  1.0000
  C   C2832     1.0  0.70694  0.63302  0.25790  1.0000
  C   C2833     1.0  0.72233  0.60443  0.27483  1.0000
  C   C2834     1.0  0.70496  0.62973  0.29094  1.0000
  C   C2835     1.0  0.68781  0.61261  0.27959  1.0000
  C   C2836     1.0  0.69268  0.65130  0.25705  1.0000
  C   C2837     1.0  0.72518  0.59349  0.25963  1.0000
  C   C2838     1.0  0.71170  0.61825  0.30852  1.0000
  C   C2839     1.0  0.68359  0.59811  0.29723  1.0000
  H   H4807     1.0  0.72079  0.63675  0.25362  1.0000
  H   H4808     1.0  0.70563  0.62675  0.24678  1.0000
  H   H4809     1.0  0.72256  0.59417  0.28789  1.0000
  H   H4810     1.0  0.73499  0.61016  0.27244  1.0000
  H   H4811     1.0  0.71371  0.64035  0.28546  1.0000
  H   H4812     1.0  0.69079  0.63741  0.29543  1.0000
  H   H4813     1.0  0.67571  0.62410  0.28066  1.0000
  H   H4814     1.0  0.68671  0.60745  0.26765  1.0000
  H   H4815     1.0  0.69372  0.65945  0.26667  1.0000
  H   H4816     1.0  0.69560  0.65987  0.24300  1.0000
  H   H4817     1.0  0.67834  0.64922  0.25951  1.0000
  H   H4818     1.0  0.73737  0.58210  0.26085  1.0000
  H   H4819     1.0  0.71322  0.58715  0.26098  1.0000
  H   H4820     1.0  0.72835  0.60206  0.24565  1.0000
  H   H4821     1.0  0.70830  0.62707  0.31890  1.0000
  H   H4822     1.0  0.72696  0.61367  0.30567  1.0000
  H   H4823     1.0  0.70508  0.60629  0.31496  1.0000
  H   H4824     1.0  0.67689  0.60477  0.30923  1.0000
  H   H4825     1.0  0.69581  0.58756  0.30030  1.0000
  H   H4826     1.0  0.67393  0.59033  0.29534  1.0000
  N   N203      1.0  0.69534  0.91117  0.30832  1.0000
  C   C2840     1.0  0.71035  0.92143  0.30687  1.0000
  C   C2841     1.0  0.69896  0.90453  0.29056  1.0000
  C   C2842     1.0  0.69719  0.89466  0.32387  1.0000
  C   C2843     1.0  0.67675  0.92385  0.31199  1.0000
  C   C2844     1.0  0.71081  0.92756  0.32444  1.0000
  C   C2845     1.0  0.70090  0.91955  0.27286  1.0000
  C   C2846     1.0  0.68289  0.88233  0.32817  1.0000
  C   C2847     1.0  0.66078  0.92025  0.30515  1.0000
  H   H4827     1.0  0.72414  0.91297  0.30257  1.0000
  H   H4828     1.0  0.70933  0.93418  0.29601  1.0000
  H   H4829     1.0  0.68807  0.89746  0.29021  1.0000
  H   H4830     1.0  0.71189  0.89386  0.28932  1.0000
  H   H4831     1.0  0.71119  0.88577  0.32118  1.0000
  H   H4832     1.0  0.69598  0.89885  0.33705  1.0000
  H   H4833     1.0  0.67200  0.92369  0.32701  1.0000
  H   H4834     1.0  0.67774  0.93843  0.30557  1.0000
  C   C2848     1.0  0.77594  0.66227  0.09208  1.0000
  H   H4835     1.0  0.72024  0.93748  0.32074  1.0000
  H   H4836     1.0  0.77484  0.67367  0.41905  1.0000
  H   H4837     1.0  0.69063  0.93244  0.27421  1.0000
  H   H4838     1.0  0.71503  0.92259  0.26898  1.0000
  H   H4839     1.0  0.69880  0.91453  0.26128  1.0000
  H   H4840     1.0  0.68155  0.87805  0.31591  1.0000
  H   H4841     1.0  0.66922  0.88909  0.33511  1.0000
  H   H4842     1.0  0.68739  0.86951  0.33793  1.0000
  H   H4843     1.0  0.66285  0.92373  0.28991  1.0000
  H   H4844     1.0  0.64770  0.92930  0.31040  1.0000
  H   H4845     1.0  0.65860  0.90595  0.30985  1.0000
  H   H4846     1.0  0.74910  0.66353  0.00837  1.0000
  H   H4847     1.0  0.76853  0.68096  0.03711  1.0000
  Fe  Fe413     1.0  0.77812  0.63275  0.16604  1.0000
  H   H4848     1.0  0.73362  0.74927  0.34533  1.0000
  C   C2849     1.0  0.67695  0.50145  0.06990  1.0000
  H   H4849     1.0  0.76512  0.76855  0.27097  1.0000
  C   C2850     1.0  0.72942  0.66895  0.04860  1.0000
  C   C2851     1.0  0.61485  0.49286  0.17369  1.0000
  C   C2852     1.0  0.77722  0.67989  0.13255  1.0000
  H   H4850     1.0  0.69225  0.59806  0.98792  1.0000
  C   C2853     1.0  0.64294  0.48844  0.12552  1.0000
  C   C2854     1.0  0.73421  0.93120  0.16424  1.0000
  H   H4851     1.0  0.71890  0.80024  0.05776  1.0000
  H   H4852     1.0  0.75499  0.71197  0.02244  1.0000
  H   H4853     1.0  0.71546  0.67074  0.05761  1.0000
  H   H4854     1.0  0.63466  0.94862  0.07830  1.0000
  H   H4855     1.0  0.74773  0.80052  0.30401  1.0000
  C   C2855     1.0  0.78043  0.84450  0.35449  1.0000
  C   C2856     1.0  0.65099  0.48656  0.07384  1.0000
  H   H4856     1.0  0.74301  0.89431  0.17606  1.0000
  H   H4857     1.0  0.63752  0.70877  0.30187  1.0000
  H   H4858     1.0  0.77673  0.81197  0.34799  1.0000
  C   C2857     1.0  0.76678  0.94510  0.13632  1.0000
  C   C2858     1.0  0.69634  0.93517  0.43144  1.0000
  H   H4859     1.0  0.62950  0.65967  0.37522  1.0000
  H   H4860     1.0  0.68509  0.83526  0.03573  1.0000
  C   C2859     1.0  0.71400  0.82567  0.07705  1.0000
  H   H4861     1.0  0.72986  0.84272  0.05614  1.0000
  C   C2860     1.0  0.76548  0.67544  0.02631  1.0000
  C   C2861     1.0  0.59015  0.67219  0.41933  1.0000
  C   C2862     1.0  0.68444  0.95376  0.43553  1.0000
  H   H4862     1.0  0.73834  0.85204  0.01450  1.0000
  H   H4863     1.0  0.70188  0.81928  0.07976  1.0000
  C   C2863     1.0  0.66412  0.52057  0.06979  1.0000
  C   C2864     1.0  0.73463  0.79915  0.31392  1.0000
  H   H4864     1.0  0.70017  0.86895  0.03536  1.0000
  H   H4865     1.0  0.72354  0.80891  0.30740  1.0000
  C   C2865     1.0  0.75172  0.75953  0.29916  1.0000
  C   C2866     1.0  0.66054  0.96731  0.02213  1.0000
  H   H4866     1.0  0.74956  0.63624  0.44496  1.0000
  H   H4867     1.0  0.70799  0.85455  0.06443  1.0000
  N   N204      1.0  0.67037  0.48779  0.06314  1.0000
  H   H4868     1.0  0.76198  0.89967  0.32570  1.0000
  H   H4869     1.0  0.73698  0.94034  0.12643  1.0000
  S   S828      1.0  0.78400  0.60277  0.17864  1.0000
  H   H4870     1.0  0.76430  0.79031  0.08862  1.0000
  H   H4871     1.0  0.71971  0.72883  0.33718  1.0000
  C   C2867     1.0  0.75932  0.76725  0.34460  1.0000
  H   H4872     1.0  0.72173  0.77873  0.33377  1.0000
  N   N205      1.0  0.74585  0.76351  0.31834  1.0000
  H   H4873     1.0  0.62956  0.95931  0.41875  1.0000
  H   H4874     1.0  0.75319  0.68009  0.12144  1.0000
  H   H4875     1.0  0.59633  0.62552  0.43325  1.0000
  H   H4876     1.0  0.77818  0.84367  0.38386  1.0000
  H   H4877     1.0  0.77786  0.85953  0.35393  1.0000
  H   H4878     1.0  0.74090  0.90011  0.14554  1.0000
  H   H4879     1.0  0.76090  0.71839  0.13413  1.0000
  H   H4880     1.0  0.78178  0.55277  0.08047  1.0000
  H   H4881     1.0  0.64953  0.48793  0.08830  1.0000
  H   H4882     1.0  0.76221  0.90557  0.13268  1.0000
  C   C2868     1.0  0.76235  0.76600  0.32425  1.0000
  H   H4883     1.0  0.77416  0.75439  0.32177  1.0000
  H   H4884     1.0  0.76409  0.70619  0.00065  1.0000
  C   C2869     1.0  0.76758  0.92734  0.15119  1.0000
  H   H4885     1.0  0.62371  0.66013  0.42554  1.0000
  C   C2870     1.0  0.63161  0.59782  0.43713  1.0000
  H   H4886     1.0  0.77117  0.83415  0.02868  1.0000
  H   H4887     1.0  0.71040  0.47722  0.06191  1.0000
  C   C2871     1.0  0.77239  0.70435  0.15813  1.0000
  H   H4888     1.0  0.73041  0.58105  0.99234  1.0000
  H   H4889     1.0  0.65074  0.94431  0.01751  1.0000
  H   H4890     1.0  0.71668  0.91581  0.33453  1.0000
  H   H4891     1.0  0.75141  0.73502  0.33257  1.0000
  H   H4892     1.0  0.60166  0.66946  0.35301  1.0000
  C   C2872     1.0  0.73897  0.64487  0.45389  1.0000
  H   H4893     1.0  0.60010  0.65241  0.39074  1.0000
  C   C2873     1.0  0.63624  0.96005  0.04854  1.0000
  H   H4894     1.0  0.64072  0.49820  0.06795  1.0000
  H   H4895     1.0  0.71273  0.75072  0.32291  1.0000
  H   H4896     1.0  0.76677  0.94239  0.12279  1.0000
  C   C2874     1.0  0.73813  0.92575  0.12631  1.0000
  C   C2875     1.0  0.72478  0.73969  0.32571  1.0000
  H   H4897     1.0  0.73952  0.66326  0.05783  1.0000
  H   H4898     1.0  0.60040  0.66406  0.32661  1.0000
  C   C2876     1.0  0.58813  0.63911  0.42787  1.0000
  H   H4899     1.0  0.75222  0.66885  0.42273  1.0000
  C   C2877     1.0  0.66625  0.48222  0.03240  1.0000
  C   C2878     1.0  0.76140  0.67356  0.42895  1.0000
  C   C2879     1.0  0.61544  0.69342  0.30930  1.0000
  H   H4900     1.0  0.59422  0.48262  0.16523  1.0000
  H   H4901     1.0  0.76879  0.77932  0.05953  1.0000
  H   H4902     1.0  0.75060  0.78689  0.28105  1.0000
  H   H4903     1.0  0.78068  0.76653  0.43208  1.0000
  H   H4904     1.0  0.76360  0.66114  0.03282  1.0000
  C   C2880     1.0  0.61009  0.65008  0.39976  1.0000
  H   H4905     1.0  0.77324  0.77642  0.28683  1.0000
  H   H4906     1.0  0.62279  0.87171  0.34845  1.0000
  S   S829      1.0  0.77105  0.91725  0.07555  1.0000
  C   C2881     1.0  0.58618  0.54582  0.39374  1.0000
  H   H4907     1.0  0.59926  0.65913  0.45517  1.0000
  H   H4908     1.0  0.78498  0.89208  0.16614  1.0000
  H   H4909     1.0  0.69704  0.93451  0.33094  1.0000
  C   C2882     1.0  0.77903  0.51898  0.13912  1.0000
  H   H4910     1.0  0.62433  0.68120  0.31617  1.0000
  H   H4911     1.0  0.60454  0.91860  0.11199  1.0000
  S   S830      1.0  0.77242  0.79932  0.02143  1.0000
  H   H4912     1.0  0.59275  0.47991  0.20515  1.0000
  Fe  Fe414     1.0  0.78022  0.76921  0.02036  1.0000
  H   H4913     1.0  0.76702  0.71615  0.16524  1.0000
  H   H4914     1.0  0.66882  0.95218  0.99997  1.0000
  H   H4915     1.0  0.76974  0.84323  0.34756  1.0000
  H   H4916     1.0  0.76211  0.69529  0.16324  1.0000
  H   H4917     1.0  0.77027  0.93060  0.16355  1.0000
  H   H4918     1.0  0.78401  0.66992  0.12339  1.0000
  H   H4919     1.0  0.59410  0.52086  0.37263  1.0000
  H   H4920     1.0  0.61825  0.69176  0.29477  1.0000
  S   S831      1.0  0.59231  0.86779  0.30624  1.0000
  H   H4921     1.0  0.77478  0.90835  0.40080  1.0000
  C   C2883     1.0  0.59404  0.66992  0.29997  1.0000
  C   C2884     1.0  0.59116  0.69701  0.33744  1.0000
  H   H4922     1.0  0.78064  0.49947  0.11096  1.0000
  C   C2885     1.0  0.69458  0.58298  0.98925  1.0000
  H   H4923     1.0  0.60260  0.92606  0.13308  1.0000
  H   H4924     1.0  0.77433  0.53298  0.14238  1.0000
  C   C2886     1.0  0.77519  0.83569  0.37506  1.0000
  C   C2887     1.0  0.78500  0.70167  0.44656  1.0000
  N   N206      1.0  0.78444  0.69748  0.12538  1.0000
  C   C2888     1.0  0.72772  0.63140  0.46803  1.0000
  H   H4925     1.0  0.58753  0.74244  0.73017  1.0000
  C   C2889     1.0  0.77630  0.69622  0.60547  1.0000
  H   H4926     1.0  0.65858  0.67622  0.93479  1.0000
  H   H4927     1.0  0.60912  0.48935  0.94513  1.0000
  Fe  Fe415     1.0  0.74112  0.67466  0.88642  1.0000
  S   S832      1.0  0.76150  0.66492  0.86217  1.0000
  H   H4928     1.0  0.61918  0.47461  0.89290  1.0000
  H   H4929     1.0  0.68406  0.71195  0.59993  1.0000
  H   H4930     1.0  0.64615  0.70225  0.90012  1.0000
  H   H4931     1.0  0.73676  0.61964  0.47528  1.0000
  C   C2890     1.0  0.69439  0.61046  0.90019  1.0000
  C   C2891     1.0  0.69757  0.62415  0.90761  1.0000
  H   H4932     1.0  0.70562  0.63411  0.89902  1.0000
  Fe  Fe416     1.0  0.67936  0.53598  0.96385  1.0000
  H   H4933     1.0  0.67344  0.68707  0.91478  1.0000
  C   C2892     1.0  0.61194  0.49917  0.93239  1.0000
  H   H4934     1.0  0.61516  0.51282  0.49078  1.0000
  H   H4935     1.0  0.70096  0.48284  0.92649  1.0000
  H   H4936     1.0  0.70378  0.74547  0.68884  1.0000
  Fe  Fe417     1.0  0.74996  0.77202  0.65245  1.0000
  S   S833      1.0  0.75502  0.74300  0.66824  1.0000
  S   S834      1.0  0.72123  0.78894  0.65198  1.0000
  H   H4937     1.0  0.58971  0.72828  0.78473  1.0000
  C   C2893     1.0  0.71703  0.67308  0.47899  1.0000
  H   H4938     1.0  0.65749  0.95414  0.56649  1.0000
  C   C2894     1.0  0.75574  0.73078  0.95026  1.0000
  H   H4939     1.0  0.60241  0.88242  0.96301  1.0000
  H   H4940     1.0  0.71696  0.63796  0.47832  1.0000
  Fe  Fe418     1.0  0.73523  0.66336  0.54683  1.0000
  S   S835      1.0  0.75894  0.63978  0.54232  1.0000
  S   S836      1.0  0.70560  0.66257  0.54771  1.0000
  Fe  Fe419     1.0  0.76001  0.68669  0.55215  1.0000
  S   S837      1.0  0.76118  0.71453  0.55599  1.0000
  C   C2895     1.0  0.72861  0.58022  0.93138  1.0000
  H   H4941     1.0  0.58655  0.80715  0.81069  1.0000
  Fe  Fe420     1.0  0.76729  0.64541  0.56607  1.0000
  S   S838      1.0  0.75010  0.68481  0.52764  1.0000
  S   S839      1.0  0.74253  0.66769  0.57179  1.0000
  Fe  Fe421     1.0  0.60593  0.93735  0.63984  1.0000
  C   C2896     1.0  0.64504  0.68961  0.91097  1.0000
  S   S840      1.0  0.63689  0.93471  0.63274  1.0000
  C   C2897     1.0  0.64699  0.96679  0.56823  1.0000
  C   C2898     1.0  0.59003  0.69106  0.56894  1.0000
  C   C2899     1.0  0.72398  0.60136  0.96056  1.0000
  H   H4942     1.0  0.59185  0.85399  0.63504  1.0000
  Fe  Fe422     1.0  0.63406  0.75544  0.66772  1.0000
  C   C2900     1.0  0.61174  0.75902  0.76849  1.0000
  S   S841      1.0  0.66240  0.74310  0.65358  1.0000
  H   H4943     1.0  0.60904  0.62463  0.60240  1.0000
  H   H4944     1.0  0.69996  0.60993  0.88584  1.0000
  C   C2901     1.0  0.67421  0.72687  0.70182  1.0000
  C   C2902     1.0  0.76274  0.69834  0.94932  1.0000
  Fe  Fe423     1.0  0.70882  0.70209  0.90211  1.0000
  S   S842      1.0  0.68269  0.52676  0.91545  1.0000
  Fe  Fe424     1.0  0.66514  0.60490  0.50525  1.0000
  S   S843      1.0  0.64852  0.62623  0.48676  1.0000
  S   S844      1.0  0.69424  0.60553  0.50652  1.0000
  Fe  Fe425     1.0  0.63587  0.58124  0.51790  1.0000
  S   S845      1.0  0.61642  0.60082  0.50054  1.0000
  S   S846      1.0  0.63358  0.55314  0.53563  1.0000
  H   H4945     1.0  0.63495  0.67115  0.59747  1.0000
  Fe  Fe426     1.0  0.62440  0.62266  0.51024  1.0000
  H   H4946     1.0  0.68668  0.50976  0.54445  1.0000
  S   S847      1.0  0.66085  0.58166  0.49502  1.0000
  S   S848      1.0  0.64160  0.60299  0.52952  1.0000
  H   H4947     1.0  0.78216  0.57090  0.66511  1.0000
  H   H4948     1.0  0.60928  0.65434  0.61102  1.0000
  C   C2903     1.0  0.67151  0.72737  0.88354  1.0000
  H   H4949     1.0  0.72991  0.72764  0.70295  1.0000
  C   C2904     1.0  0.67313  0.50666  0.55236  1.0000
  C   C2905     1.0  0.65342  0.73783  0.88577  1.0000
  Fe  Fe427     1.0  0.59417  0.75038  0.68232  1.0000
  C   C2906     1.0  0.61703  0.54248  0.53251  1.0000
  H   H4950     1.0  0.64867  0.74611  0.89622  1.0000
  H   H4951     1.0  0.66748  0.97048  0.53384  1.0000
  C   C2907     1.0  0.68442  0.59720  0.91142  1.0000
  H   H4952     1.0  0.60560  0.68730  0.88604  1.0000
  C   C2908     1.0  0.58926  0.85296  0.64976  1.0000
  H   H4953     1.0  0.63119  0.63256  0.92346  1.0000
  H   H4954     1.0  0.73511  0.47809  0.84780  1.0000
  S   S849      1.0  0.62256  0.75939  0.73183  1.0000
  S   S850      1.0  0.73965  0.70071  0.89564  1.0000
  C   C2909     1.0  0.61356  0.68477  0.89706  1.0000
  C   C2910     1.0  0.70233  0.64726  0.53567  1.0000
  C   C2911     1.0  0.71746  0.63659  0.52607  1.0000
  C   C2912     1.0  0.71477  0.62381  0.51724  1.0000
  C   C2913     1.0  0.69691  0.62191  0.51757  1.0000
  C   C2914     1.0  0.68168  0.63283  0.52684  1.0000
  C   C2915     1.0  0.68440  0.64542  0.53600  1.0000
  H   H4955     1.0  0.73125  0.63820  0.52540  1.0000
  H   H4956     1.0  0.72658  0.61532  0.51015  1.0000
  H   H4957     1.0  0.66784  0.63153  0.52700  1.0000
  H   H4958     1.0  0.67263  0.65377  0.54328  1.0000
  C   C2916     1.0  0.70533  0.77644  0.65073  1.0000
  C   C2917     1.0  0.71051  0.75754  0.65117  1.0000
  C   C2918     1.0  0.69724  0.74740  0.65204  1.0000
  C   C2919     1.0  0.67887  0.75622  0.65182  1.0000
  C   C2920     1.0  0.67385  0.77528  0.65043  1.0000
  C   C2921     1.0  0.68704  0.78535  0.65007  1.0000
  H   H4959     1.0  0.72465  0.75062  0.65122  1.0000
  H   H4960     1.0  0.70114  0.73267  0.65327  1.0000
  H   H4961     1.0  0.65986  0.78228  0.64954  1.0000
  H   H4962     1.0  0.68305  0.80003  0.64940  1.0000
  C   C2922     1.0  0.76741  0.71362  0.57683  1.0000
  H   H4963     1.0  0.71004  0.68722  0.48093  1.0000
  H   H4964     1.0  0.66696  0.47557  0.91045  1.0000
  H   H4965     1.0  0.64988  0.48280  0.85978  1.0000
  C   C2923     1.0  0.78016  0.60113  0.58710  1.0000
  H   H4966     1.0  0.73899  0.62355  0.94849  1.0000
  H   H4967     1.0  0.68542  0.97008  0.62095  1.0000
  H   H4968     1.0  0.70711  0.66766  0.47445  1.0000
  H   H4969     1.0  0.72552  0.53550  0.87713  1.0000
  H   H4970     1.0  0.72388  0.49969  0.85371  1.0000
  C   C2924     1.0  0.60708  0.76631  0.75119  1.0000
  H   H4971     1.0  0.67912  0.48623  0.86072  1.0000
  C   C2925     1.0  0.59040  0.77876  0.74977  1.0000
  C   C2926     1.0  0.65520  0.47451  0.90487  1.0000
  Fe  Fe428     1.0  0.67950  0.55371  0.92368  1.0000
  C   C2927     1.0  0.65915  0.68798  0.92294  1.0000
  C   C2928     1.0  0.59504  0.63149  0.60005  1.0000
  C   C2929     1.0  0.66408  0.95450  0.62554  1.0000
  S   S851      1.0  0.70857  0.68643  0.93119  1.0000
  C   C2930     1.0  0.68302  0.70355  0.62878  1.0000
  H   H4972     1.0  0.66635  0.51803  0.55987  1.0000
  H   H4973     1.0  0.69174  0.58769  0.57020  1.0000
  H   H4974     1.0  0.63105  0.51532  0.54321  1.0000
  C   C2931     1.0  0.66680  0.66876  0.89241  1.0000
  C   C2932     1.0  0.61674  0.87457  0.93645  1.0000
  S   S852      1.0  0.65662  0.54827  0.94804  1.0000
  H   H4975     1.0  0.71645  0.72765  0.55632  1.0000
  Fe  Fe429     1.0  0.61363  0.76420  0.70486  1.0000
  H   H4976     1.0  0.59596  0.88729  0.89352  1.0000
  H   H4977     1.0  0.63115  0.69259  0.91991  1.0000
  Fe  Fe430     1.0  0.64204  0.60282  0.47849  1.0000
  H   H4978     1.0  0.66955  0.58772  0.93870  1.0000
  H   H4979     1.0  0.66768  0.76661  0.75537  1.0000
  C   C2933     1.0  0.61975  0.52389  0.89918  1.0000
  H   H4980     1.0  0.67585  0.66101  0.90230  1.0000
  Fe  Fe431     1.0  0.77453  0.66157  0.52494  1.0000
  C   C2934     1.0  0.67760  0.71684  0.86991  1.0000
  H   H4981     1.0  0.69164  0.70919  0.86770  1.0000
  H   H4982     1.0  0.76417  0.48941  0.83334  1.0000
  S   S853      1.0  0.75310  0.95911  0.62244  1.0000
  C   C2935     1.0  0.77629  0.67991  0.84920  1.0000
  H   H4983     1.0  0.77322  0.68404  0.58419  1.0000
  H   H4984     1.0  0.64186  0.85818  0.90956  1.0000
  C   C2936     1.0  0.77115  0.69880  0.84885  1.0000
  H   H4985     1.0  0.69006  0.70522  0.63905  1.0000
  C   C2937     1.0  0.70690  0.72723  0.56996  1.0000
  C   C2938     1.0  0.71220  0.47781  0.91602  1.0000
  H   H4986     1.0  0.75776  0.70443  0.85631  1.0000
  S   S854      1.0  0.60611  0.64929  0.51658  1.0000
  C   C2939     1.0  0.61809  0.52007  0.47613  1.0000
  C   C2940     1.0  0.59970  0.76390  0.78438  1.0000
  H   H4987     1.0  0.68350  0.48967  0.57584  1.0000
  H   H4988     1.0  0.71754  0.72982  0.72553  1.0000
  H   H4989     1.0  0.62287  0.53338  0.88627  1.0000
  S   S855      1.0  0.62944  0.78023  0.67990  1.0000
  C   C2941     1.0  0.58717  0.73034  0.74173  1.0000
  C   C2942     1.0  0.64519  0.95525  0.62722  1.0000
  S   S856      1.0  0.76587  0.47664  0.79800  1.0000
  S   S857      1.0  0.76952  0.76597  0.62651  1.0000
  H   H4990     1.0  0.66420  0.50723  0.54278  1.0000
  H   H4991     1.0  0.67343  0.94131  0.62740  1.0000
  H   H4992     1.0  0.62516  0.94747  0.70117  1.0000
  C   C2943     1.0  0.62934  0.52199  0.91318  1.0000
  C   C2944     1.0  0.69445  0.70631  0.60886  1.0000
  H   H4993     1.0  0.74990  0.60330  0.93961  1.0000
  H   H4994     1.0  0.69000  0.96596  0.57319  1.0000
  H   H4995     1.0  0.69294  0.76687  0.72837  1.0000
  H   H4996     1.0  0.73406  0.71871  0.61150  1.0000
  H   H4997     1.0  0.64261  0.94936  0.68036  1.0000
  H   H4998     1.0  0.63102  0.52980  0.49936  1.0000
  C   C2945     1.0  0.60717  0.66622  0.59940  1.0000
  H   H4999     1.0  0.76355  0.68817  0.49079  1.0000
  H   H5000     1.0  0.64482  0.48726  0.90645  1.0000
  C   C2946     1.0  0.66562  0.71639  0.85889  1.0000
  H   H5001     1.0  0.73666  0.68630  0.60668  1.0000
  C   C2947     1.0  0.72878  0.48409  0.91166  1.0000
  H   H5002     1.0  0.78455  0.68190  0.96311  1.0000
  H   H5003     1.0  0.62733  0.74511  0.87678  1.0000
  H   H5004     1.0  0.78333  0.63437  0.47213  1.0000
  H   H5005     1.0  0.71683  0.59277  0.54431  1.0000
  H   H5006     1.0  0.62512  0.87000  0.89523  1.0000
  C   C2948     1.0  0.67320  0.76677  0.70177  1.0000
  H   H5007     1.0  0.69716  0.56865  0.55915  1.0000
  C   C2949     1.0  0.72209  0.71168  0.61698  1.0000
  H   H5008     1.0  0.75816  0.48719  0.85758  1.0000
  H   H5009     1.0  0.61947  0.68228  0.56135  1.0000
  H   H5010     1.0  0.65442  0.63055  0.91028  1.0000
  H   H5011     1.0  0.69833  0.58297  0.96069  1.0000
  H   H5012     1.0  0.71971  0.68261  0.62789  1.0000
  C   C2950     1.0  0.76994  0.62979  0.47792  1.0000
  H   H5013     1.0  0.62120  0.83839  0.92917  1.0000
  H   H5014     1.0  0.71632  0.71509  0.63082  1.0000
  H   H5015     1.0  0.78010  0.68311  0.61439  1.0000
  C   C2951     1.0  0.78117  0.96194  0.59188  1.0000
  H   H5016     1.0  0.74199  0.71831  0.93655  1.0000
  Fe  Fe432     1.0  0.70355  0.51654  0.93357  1.0000
  H   H5017     1.0  0.67047  0.70814  0.84841  1.0000
  H   H5018     1.0  0.66121  0.48738  0.57524  1.0000
  H   H5019     1.0  0.62867  0.64580  0.54933  1.0000
  H   H5020     1.0  0.61052  0.69787  0.90194  1.0000
  C   C2952     1.0  0.63118  0.55672  0.48247  1.0000
  H   H5021     1.0  0.77800  0.71161  0.88212  1.0000
  C   C2953     1.0  0.78301  0.56826  0.59931  1.0000
  Fe  Fe433     1.0  0.60286  0.78855  0.66972  1.0000
  Fe  Fe434     1.0  0.66194  0.52023  0.94153  1.0000
  C   C2954     1.0  0.77431  0.68842  0.47866  1.0000
  C   C2955     1.0  0.62985  0.85704  0.90450  1.0000
  H   H5022     1.0  0.74771  0.74445  0.94662  1.0000
  C   C2956     1.0  0.64074  0.63993  0.91225  1.0000
  H   H5023     1.0  0.65770  0.77594  0.73549  1.0000
  H   H5024     1.0  0.63813  0.48742  0.49197  1.0000
  H   H5025     1.0  0.69074  0.73693  0.62217  1.0000
  S   S858      1.0  0.68611  0.72726  0.89814  1.0000
  H   H5026     1.0  0.68810  0.72273  0.69349  1.0000
  H   H5027     1.0  0.60099  0.72666  0.74534  1.0000
  H   H5028     1.0  0.62468  0.74947  0.76965  1.0000
  H   H5029     1.0  0.59981  0.56759  0.52144  1.0000
  C   C2957     1.0  0.72066  0.58132  0.55574  1.0000
  H   H5030     1.0  0.76953  0.69475  0.77021  1.0000
  C   C2958     1.0  0.77493  0.65848  0.77756  1.0000
  C   C2959     1.0  0.77497  0.71256  0.61123  1.0000
  H   H5031     1.0  0.71459  0.60758  0.95073  1.0000
  H   H5032     1.0  0.58786  0.82109  0.68973  1.0000
  H   H5033     1.0  0.72852  0.56990  0.54879  1.0000
  H   H5034     1.0  0.74073  0.55621  0.81315  1.0000
  H   H5035     1.0  0.69125  0.74418  0.74040  1.0000
  H   H5036     1.0  0.77642  0.51083  0.77804  1.0000
  H   H5037     1.0  0.66805  0.71438  0.70710  1.0000
  S   S859      1.0  0.63284  0.72449  0.84771  1.0000
  C   C2960     1.0  0.70352  0.74668  0.70305  1.0000
  C   C2961     1.0  0.70257  0.57551  0.56726  1.0000
  H   H5038     1.0  0.58913  0.70102  0.55572  1.0000
  H   H5039     1.0  0.62487  0.88171  0.92379  1.0000
  C   C2962     1.0  0.74905  0.54821  0.82359  1.0000
  H   H5040     1.0  0.59398  0.81192  0.88500  1.0000
  H   H5041     1.0  0.72940  0.72758  0.58185  1.0000
  H   H5042     1.0  0.58630  0.63501  0.61315  1.0000
  H   H5043     1.0  0.69935  0.74152  0.57038  1.0000
  H   H5044     1.0  0.68461  0.96102  0.55421  1.0000
  Fe  Fe435     1.0  0.58657  0.48322  0.52079  1.0000
  H   H5045     1.0  0.59275  0.67357  0.60364  1.0000
  H   H5046     1.0  0.70441  0.48365  0.53795  1.0000
  H   H5047     1.0  0.72595  0.70539  0.58289  1.0000
  C   C2963     1.0  0.71849  0.71936  0.58503  1.0000
  C   C2964     1.0  0.75871  0.65596  0.79419  1.0000
  H   H5048     1.0  0.66959  0.71348  0.62968  1.0000
  H   H5049     1.0  0.71957  0.66521  0.49266  1.0000
  S   S860      1.0  0.59517  0.51529  0.88377  1.0000
  N   N207      1.0  0.75679  0.51529  0.84250  1.0000
  C   C2965     1.0  0.62040  0.67868  0.59899  1.0000
  H   H5050     1.0  0.63197  0.56151  0.49469  1.0000
  N   N208      1.0  0.70814  0.71870  0.60464  1.0000
  H   H5051     1.0  0.58680  0.78452  0.73642  1.0000
  H   H5052     1.0  0.73256  0.52772  0.83022  1.0000
  S   S861      1.0  0.68094  0.57978  0.90227  1.0000
  H   H5053     1.0  0.62464  0.93756  0.68265  1.0000
  C   C2966     1.0  0.59026  0.83571  0.66155  1.0000
  C   C2967     1.0  0.67563  0.48503  0.87592  1.0000
  H   H5054     1.0  0.65290  0.53363  0.48668  1.0000
  H   H5055     1.0  0.72487  0.51219  0.87742  1.0000
  H   H5056     1.0  0.71552  0.96446  0.54452  1.0000
  N   N209      1.0  0.73204  0.58697  0.56611  1.0000
  C   C2968     1.0  0.72002  0.60294  0.57445  1.0000
  C   C2969     1.0  0.74816  0.59395  0.55268  1.0000
  C   C2970     1.0  0.73850  0.57177  0.58134  1.0000
  C   C2971     1.0  0.72924  0.61172  0.58496  1.0000
  H   H5057     1.0  0.60115  0.96493  0.68049  1.0000
  H   H5058     1.0  0.71436  0.61415  0.56368  1.0000
  H   H5059     1.0  0.70781  0.59868  0.58458  1.0000
  H   H5060     1.0  0.74315  0.60624  0.54253  1.0000
  H   H5061     1.0  0.75656  0.59858  0.55987  1.0000
  H   H5062     1.0  0.75027  0.57483  0.58539  1.0000
  H   H5063     1.0  0.72733  0.57117  0.59393  1.0000
  H   H5064     1.0  0.73577  0.60151  0.59572  1.0000
  H   H5065     1.0  0.73953  0.61953  0.57558  1.0000
  H   H5066     1.0  0.71854  0.62188  0.59196  1.0000
  H   H5067     1.0  0.63496  0.84626  0.89605  1.0000
  H   H5068     1.0  0.67584  0.48116  0.53188  1.0000
  S   S862      1.0  0.75896  0.67935  0.94279  1.0000
  N   N210      1.0  0.60946  0.65969  0.58185  1.0000
  C   C2972     1.0  0.60720  0.67563  0.56582  1.0000
  C   C2973     1.0  0.62859  0.64820  0.57759  1.0000
  H   H5069     1.0  0.64901  0.50018  0.50168  1.0000
  H   H5070     1.0  0.59016  0.61853  0.53975  1.0000
  C   C2974     1.0  0.63823  0.53576  0.48548  1.0000
  C   C2975     1.0  0.63185  0.63700  0.56249  1.0000
  H   H5071     1.0  0.61667  0.56089  0.48097  1.0000
  C   C2976     1.0  0.74226  0.60829  0.95233  1.0000
  H   H5072     1.0  0.59784  0.70980  0.77357  1.0000
  S   S863      1.0  0.60876  0.76486  0.65543  1.0000
  H   H5073     1.0  0.75502  0.64241  0.79582  1.0000
  C   C2977     1.0  0.59479  0.64873  0.58442  1.0000
  C   C2978     1.0  0.59240  0.52454  0.52537  1.0000
  C   C2979     1.0  0.74340  0.47728  0.89839  1.0000
  H   H5074     1.0  0.60967  0.49945  0.53641  1.0000
  H   H5075     1.0  0.59534  0.72233  0.62252  1.0000
  S   S864      1.0  0.59132  0.93478  0.66936  1.0000
  C   C2980     1.0  0.58563  0.71587  0.78314  1.0000
  C   C2981     1.0  0.77721  0.51550  0.83645  1.0000
  C   C2982     1.0  0.67467  0.73483  0.71827  1.0000
  C   C2983     1.0  0.64524  0.48081  0.87500  1.0000
  H   H5076     1.0  0.64665  0.63024  0.55964  1.0000
  H   H5077     1.0  0.78121  0.92702  0.62941  1.0000
  C   C2984     1.0  0.73526  0.49304  0.84397  1.0000
  H   H5078     1.0  0.76242  0.74309  0.57354  1.0000
  C   C2985     1.0  0.76909  0.72790  0.96093  1.0000
  H   H5079     1.0  0.66825  0.50543  0.89395  1.0000
  C   C2986     1.0  0.60194  0.55275  0.52479  1.0000
  C   C2987     1.0  0.64743  0.72645  0.86137  1.0000
  C   C2988     1.0  0.64133  0.73726  0.87481  1.0000
  H   H5080     1.0  0.59555  0.70348  0.80854  1.0000
  C   C2989     1.0  0.67997  0.61187  0.93722  1.0000
  C   C2990     1.0  0.60083  0.53516  0.47349  1.0000
  S   S865      1.0  0.74270  0.65638  0.91409  1.0000
  S   S866      1.0  0.63922  0.50451  0.94632  1.0000
  C   C2991     1.0  0.77242  0.69674  0.58837  1.0000
  H   H5081     1.0  0.60687  0.89734  0.90592  1.0000
  H   H5082     1.0  0.63994  0.52987  0.91104  1.0000
  Fe  Fe436     1.0  0.77746  0.75096  0.67679  1.0000
  C   C2992     1.0  0.70938  0.75254  0.60260  1.0000
  C   C2993     1.0  0.58995  0.81967  0.81270  1.0000
  H   H5083     1.0  0.59117  0.82977  0.94272  1.0000
  C   C2994     1.0  0.69025  0.62490  0.92613  1.0000
  H   H5084     1.0  0.63833  0.69089  0.87797  1.0000
  H   H5085     1.0  0.65676  0.75268  0.74777  1.0000
  H   H5086     1.0  0.69393  0.78449  0.68981  1.0000
  C   C2995     1.0  0.76200  0.58036  0.54160  1.0000
  H   H5087     1.0  0.77911  0.72516  0.83810  1.0000
  S   S867      1.0  0.73135  0.50047  0.92259  1.0000
  S   S868      1.0  0.70181  0.54389  0.94007  1.0000
  H   H5088     1.0  0.68031  0.68934  0.63314  1.0000
  C   C2996     1.0  0.58952  0.54379  0.52144  1.0000
  H   H5089     1.0  0.75646  0.54469  0.58409  1.0000
  S   S869      1.0  0.71041  0.67743  0.89058  1.0000
  H   H5090     1.0  0.70035  0.76539  0.60641  1.0000
  H   H5091     1.0  0.71515  0.75579  0.58762  1.0000
  H   H5092     1.0  0.72065  0.74880  0.61040  1.0000
  H   H5093     1.0  0.71079  0.71651  0.71267  1.0000
  C   C2997     1.0  0.60771  0.88897  0.94861  1.0000
  H   H5094     1.0  0.62378  0.62588  0.56693  1.0000
  H   H5095     1.0  0.65268  0.65286  0.92656  1.0000
  H   H5096     1.0  0.71402  0.57941  0.93296  1.0000
  H   H5097     1.0  0.76822  0.62073  0.46950  1.0000
  N   N211      1.0  0.60370  0.86492  0.93234  1.0000
  H   H5098     1.0  0.61666  0.68337  0.61229  1.0000
  C   C2998     1.0  0.74443  0.55198  0.57761  1.0000
  H   H5099     1.0  0.67209  0.68161  0.88568  1.0000
  H   H5100     1.0  0.70113  0.69264  0.60528  1.0000
  H   H5101     1.0  0.67418  0.76336  0.68826  1.0000
  H   H5102     1.0  0.68605  0.65400  0.87236  1.0000
  N   N212      1.0  0.72560  0.58079  0.96567  1.0000
  H   H5103     1.0  0.69726  0.71834  0.57048  1.0000
  H   H5104     1.0  0.63853  0.97409  0.69659  1.0000
  C   C2999     1.0  0.64996  0.49427  0.48959  1.0000
  H   H5105     1.0  0.61828  0.89635  0.94927  1.0000
  C   C3000     1.0  0.61437  0.85105  0.92059  1.0000
  C   C3001     1.0  0.77006  0.72946  0.59961  1.0000
  H   H5106     1.0  0.63916  0.65704  0.57300  1.0000
  H   H5107     1.0  0.60836  0.67383  0.90825  1.0000
  C   C3002     1.0  0.69771  0.73753  0.60754  1.0000
  C   C3003     1.0  0.71586  0.72911  0.71180  1.0000
  H   H5108     1.0  0.62916  0.66178  0.92749  1.0000
  C   C3004     1.0  0.60227  0.50116  0.91845  1.0000
  H   H5109     1.0  0.59094  0.69891  0.57891  1.0000
  S   S870      1.0  0.62011  0.73866  0.69338  1.0000
  H   H5110     1.0  0.76783  0.73123  0.90506  1.0000
  H   H5111     1.0  0.75072  0.57212  0.94645  1.0000
  C   C3005     1.0  0.63319  0.97233  0.62472  1.0000
  H   H5112     1.0  0.59967  0.82454  0.79995  1.0000
  H   H5113     1.0  0.76708  0.68779  0.79433  1.0000
  H   H5114     1.0  0.65597  0.70068  0.92860  1.0000
  S   S871      1.0  0.77663  0.51573  0.62737  1.0000
  H   H5115     1.0  0.74123  0.68773  0.62796  1.0000
  C   C3006     1.0  0.60739  0.51427  0.53325  1.0000
  N   N213      1.0  0.68395  0.75112  0.71359  1.0000
  H   H5116     1.0  0.67423  0.61247  0.95154  1.0000
  S   S872      1.0  0.59468  0.91511  0.63493  1.0000
  H   H5117     1.0  0.63863  0.49499  0.87711  1.0000
  H   H5118     1.0  0.65999  0.73852  0.72517  1.0000
  C   C3007     1.0  0.76639  0.72999  0.58239  1.0000
  H   H5119     1.0  0.68217  0.51201  0.87197  1.0000
  N   N214      1.0  0.64594  0.85967  0.65586  1.0000
  C   C3008     1.0  0.63522  0.87908  0.65140  1.0000
  C   C3009     1.0  0.65235  0.85221  0.63837  1.0000
  C   C3010     1.0  0.66258  0.85907  0.66335  1.0000
  C   C3011     1.0  0.63350  0.84842  0.67029  1.0000
  C   C3012     1.0  0.62933  0.88988  0.66712  1.0000
  C   C3013     1.0  0.63726  0.84738  0.63132  1.0000
  C   C3014     1.0  0.67598  0.87147  0.65111  1.0000
  C   C3015     1.0  0.64178  0.82782  0.67617  1.0000
  H   H5120     1.0  0.64305  0.88747  0.63932  1.0000
  H   H5121     1.0  0.62228  0.87914  0.64719  1.0000
  H   H5122     1.0  0.66353  0.83975  0.63971  1.0000
  H   H5123     1.0  0.65879  0.86229  0.62692  1.0000
  H   H5124     1.0  0.65839  0.86263  0.67723  1.0000
  H   H5125     1.0  0.67088  0.84480  0.66559  1.0000
  H   H5126     1.0  0.62913  0.85390  0.68319  1.0000
  H   H5127     1.0  0.62024  0.84970  0.66618  1.0000
  S   S873      1.0  0.58931  0.73258  0.83017  1.0000
  H   H5128     1.0  0.61915  0.88393  0.67875  1.0000
  H   H5129     1.0  0.64120  0.89133  0.67211  1.0000
  H   H5130     1.0  0.62588  0.85935  0.62895  1.0000
  H   H5131     1.0  0.64341  0.84311  0.61791  1.0000
  H   H5132     1.0  0.63158  0.83562  0.64077  1.0000
  H   H5133     1.0  0.66939  0.88627  0.64914  1.0000
  H   H5134     1.0  0.68194  0.86759  0.63752  1.0000
  H   H5135     1.0  0.68772  0.86973  0.65794  1.0000
  H   H5136     1.0  0.64854  0.82554  0.68802  1.0000
  H   H5137     1.0  0.65184  0.82186  0.66500  1.0000
  H   H5138     1.0  0.63051  0.81989  0.68026  1.0000
  H   H5139     1.0  0.74228  0.64159  0.48981  1.0000
  C   C3016     1.0  0.62770  0.94963  0.68602  1.0000
  H   H5140     1.0  0.65821  0.51307  0.87359  1.0000
  C   C3017     1.0  0.73571  0.57191  0.94949  1.0000
  H   H5141     1.0  0.75325  0.52283  0.81428  1.0000
  H   H5142     1.0  0.75134  0.60471  0.96247  1.0000
  C   C3018     1.0  0.67730  0.59788  0.92997  1.0000
  C   C3019     1.0  0.77641  0.69554  0.95960  1.0000
  H   H5143     1.0  0.58561  0.94696  0.87782  1.0000
  H   H5144     1.0  0.66256  0.48324  0.48875  1.0000
  C   C3020     1.0  0.78308  0.57344  0.65003  1.0000
  H   H5145     1.0  0.63544  0.66824  0.88121  1.0000
  C   C3021     1.0  0.67090  0.97075  0.62184  1.0000
  H   H5146     1.0  0.73020  0.59468  0.92578  1.0000
  H   H5147     1.0  0.59492  0.64464  0.57147  1.0000
  C   C3022     1.0  0.67049  0.50495  0.87919  1.0000
  C   C3023     1.0  0.77717  0.58645  0.60189  1.0000
  C   C3024     1.0  0.75007  0.52156  0.86064  1.0000
  H   H5148     1.0  0.64073  0.97259  0.55590  1.0000
  H   H5149     1.0  0.70459  0.56575  0.58030  1.0000
  H   H5150     1.0  0.68105  0.72349  0.72843  1.0000
  H   H5151     1.0  0.74350  0.55427  0.83606  1.0000
  C   C3025     1.0  0.67939  0.78536  0.69734  1.0000
  H   H5152     1.0  0.77266  0.58768  0.53199  1.0000
  H   H5153     1.0  0.73676  0.57219  0.92077  1.0000
  H   H5154     1.0  0.63247  0.63849  0.59011  1.0000
  C   C3026     1.0  0.75248  0.71602  0.94455  1.0000
  H   H5155     1.0  0.66528  0.51206  0.46854  1.0000
  H   H5156     1.0  0.66544  0.66657  0.86470  1.0000
  H   H5157     1.0  0.65817  0.76902  0.70799  1.0000
  H   H5158     1.0  0.68881  0.47852  0.88072  1.0000
  H   H5159     1.0  0.68620  0.74255  0.59991  1.0000
  C   C3027     1.0  0.58731  0.64791  0.53519  1.0000
  H   H5160     1.0  0.66521  0.73666  0.69285  1.0000
  C   C3028     1.0  0.75444  0.49584  0.84455  1.0000
  H   H5161     1.0  0.72048  0.53057  0.85799  1.0000
  H   H5162     1.0  0.67738  0.79104  0.70980  1.0000
  C   C3029     1.0  0.61949  0.52326  0.53711  1.0000
  C   C3030     1.0  0.63426  0.67909  0.88887  1.0000
  C   C3031     1.0  0.60639  0.51330  0.90174  1.0000
  C   C3032     1.0  0.78327  0.97219  0.64777  1.0000
  C   C3033     1.0  0.58860  0.87808  0.92349  1.0000
  H   H5163     1.0  0.61927  0.69123  0.58804  1.0000
  S   S874      1.0  0.77073  0.78072  0.66298  1.0000
  S   S875      1.0  0.69368  0.64177  0.93606  1.0000
  C   C3034     1.0  0.66548  0.76324  0.74291  1.0000
  C   C3035     1.0  0.68442  0.75621  0.73121  1.0000
  S   S876      1.0  0.68324  0.50748  0.95909  1.0000
  C   C3036     1.0  0.74749  0.52785  0.82745  1.0000
  H   H5164     1.0  0.71087  0.75809  0.70119  1.0000
  C   C3037     1.0  0.64216  0.65748  0.91773  1.0000
  Fe  Fe437     1.0  0.71185  0.66171  0.91922  1.0000
  N   N215      1.0  0.64700  0.67331  0.90240  1.0000
  Fe  Fe438     1.0  0.73945  0.68255  0.92374  1.0000
  H   H5165     1.0  0.63480  0.64251  0.89991  1.0000
  C   C3038     1.0  0.72908  0.52492  0.86850  1.0000
  C   C3039     1.0  0.77760  0.68840  0.78125  1.0000
  C   C3040     1.0  0.73022  0.69086  0.61987  1.0000
  H   H5166     1.0  0.58620  0.57339  0.90487  1.0000
  H   H5167     1.0  0.60351  0.75827  0.79762  1.0000
  C   C3041     1.0  0.59431  0.89253  0.90622  1.0000
  H   H5168     1.0  0.66546  0.64505  0.88133  1.0000
  H   H5169     1.0  0.59191  0.49301  0.92052  1.0000
  S   S877      1.0  0.77874  0.74369  0.70702  1.0000
  C   C3042     1.0  0.62567  0.50935  0.92968  1.0000
  H   H5170     1.0  0.75556  0.57516  0.53301  1.0000
  H   H5171     1.0  0.67083  0.79542  0.68810  1.0000
  H   H5172     1.0  0.60656  0.67073  0.55355  1.0000
  Fe  Fe439     1.0  0.60256  0.73780  0.85098  1.0000
  H   H5173     1.0  0.62234  0.90403  0.66175  1.0000
  C   C3043     1.0  0.67084  0.65791  0.87693  1.0000
  H   H5174     1.0  0.59734  0.54409  0.48364  1.0000
  H   H5175     1.0  0.73495  0.55708  0.95273  1.0000
  H   H5176     1.0  0.73251  0.49777  0.82979  1.0000
  C   C3044     1.0  0.77474  0.95147  0.60905  1.0000
  H   H5177     1.0  0.75633  0.48193  0.89524  1.0000
  H   H5178     1.0  0.76201  0.65588  0.80747  1.0000
  S   S878      1.0  0.77312  0.62365  0.59096  1.0000
  C   C3045     1.0  0.78362  0.73499  0.49773  1.0000
  H   H5179     1.0  0.77079  0.62156  0.49197  1.0000
  H   H5180     1.0  0.76956  0.56886  0.55062  1.0000
  H   H5181     1.0  0.74877  0.55087  0.56301  1.0000
  S   S879      1.0  0.58917  0.76787  0.84754  1.0000
  H   H5182     1.0  0.77013  0.58920  0.61531  1.0000
  H   H5183     1.0  0.64517  0.48340  0.55559  1.0000
  H   H5184     1.0  0.73338  0.54400  0.58451  1.0000
  H   H5185     1.0  0.77538  0.56391  0.64779  1.0000
  H   H5186     1.0  0.76841  0.66525  0.76547  1.0000
  H   H5187     1.0  0.78058  0.55698  0.61079  1.0000
  H   H5188     1.0  0.59893  0.96176  0.71615  1.0000
  H   H5189     1.0  0.58855  0.68753  0.79929  1.0000
  H   H5190     1.0  0.75506  0.53417  0.86024  1.0000
  C   C3046     1.0  0.61556  0.96731  0.67710  1.0000
  H   H5191     1.0  0.75634  0.51129  0.87159  1.0000
  H   H5192     1.0  0.59622  0.83281  0.84818  1.0000
  H   H5193     1.0  0.76890  0.74210  0.60394  1.0000
  C   C3047     1.0  0.67514  0.48827  0.56646  1.0000
  H   H5194     1.0  0.76346  0.55011  0.81767  1.0000
  H   H5195     1.0  0.74642  0.66702  0.79212  1.0000
  C   C3048     1.0  0.78291  0.72636  0.90047  1.0000
  H   H5196     1.0  0.59741  0.81594  0.82419  1.0000
  H   H5197     1.0  0.60525  0.84619  0.95867  1.0000
  H   H5198     1.0  0.62733  0.86431  0.94339  1.0000
  H   H5199     1.0  0.63572  0.96252  0.57973  1.0000
  H   H5200     1.0  0.75815  0.65609  0.48532  1.0000
  C   C3049     1.0  0.77963  0.71028  0.96534  1.0000
  H   H5201     1.0  0.63992  0.56419  0.47054  1.0000
  H   H5202     1.0  0.78002  0.52910  0.83636  1.0000
  H   H5203     1.0  0.78113  0.96062  0.64267  1.0000
  H   H5204     1.0  0.59729  0.73323  0.64970  1.0000
  H   H5205     1.0  0.78064  0.72409  0.51012  1.0000
  H   H5206     1.0  0.78230  0.51343  0.82203  1.0000
  S   S880      1.0  0.59467  0.81626  0.65192  1.0000
  H   H5207     1.0  0.58880  0.52841  0.47632  1.0000
  C   C3050     1.0  0.75381  0.64647  0.47923  1.0000
  S   S881      1.0  0.58630  0.77486  0.69599  1.0000
  C   C3051     1.0  0.58717  0.83442  0.68056  1.0000
  H   H5208     1.0  0.62006  0.96794  0.66202  1.0000
  H   H5209     1.0  0.77862  0.69911  0.90468  1.0000
  H   H5210     1.0  0.77581  0.58751  0.64500  1.0000
  H   H5211     1.0  0.78143  0.50733  0.73031  1.0000
  H   H5212     1.0  0.78014  0.71553  0.78302  1.0000
  Fe  Fe440     1.0  0.77619  0.73744  0.64299  1.0000
  H   H5213     1.0  0.59654  0.89950  0.94302  1.0000
  C   C3052     1.0  0.58585  0.72705  0.65026  1.0000
  C   C3053     1.0  0.65130  0.50875  0.47140  1.0000
  H   H5214     1.0  0.61865  0.97304  0.62580  1.0000
  H   H5215     1.0  0.77042  0.74086  0.49294  1.0000
  H   H5216     1.0  0.60488  0.84642  0.91460  1.0000
  H   H5217     1.0  0.77666  0.47980  0.59468  1.0000
  C   C3054     1.0  0.59466  0.85451  0.95054  1.0000
  N   N216      1.0  0.63649  0.52601  0.47132  1.0000
  H   H5218     1.0  0.78221  0.64473  0.77447  1.0000
  H   H5219     1.0  0.59101  0.55658  0.88043  1.0000
  S   S882      1.0  0.77897  0.71127  0.63320  1.0000
  H   H5220     1.0  0.77869  0.67616  0.89038  1.0000
  C   C3055     1.0  0.68722  0.97235  0.55911  1.0000
  C   C3056     1.0  0.78320  0.71053  0.83845  1.0000
  H   H5221     1.0  0.58953  0.62109  0.59629  1.0000
  H   H5222     1.0  0.75552  0.97417  0.66444  1.0000
  H   H5223     1.0  0.61586  0.97236  0.72068  1.0000
  C   C3057     1.0  0.78491  0.48606  0.79721  1.0000
  C   C3058     1.0  0.58513  0.70184  0.80154  1.0000
  H   H5224     1.0  0.77238  0.97435  0.58616  1.0000
  H   H5225     1.0  0.58536  0.86414  0.95921  1.0000
  S   S883      1.0  0.77238  0.74670  0.96821  1.0000
  H   H5226     1.0  0.91525  0.40072  0.09427  1.0000
  S   S884      1.0  0.92305  0.46386  0.18140  1.0000
  H   H5227     1.0  0.79609  0.38934  0.12130  1.0000
  S   S885      1.0  0.94196  0.42406  0.16930  1.0000
  H   H5228     1.0  0.91427  0.43107  0.97421  1.0000
  Fe  Fe441     1.0  0.92215  0.44959  0.15945  1.0000
  S   S886      1.0  0.89565  0.45075  0.15058  1.0000
  Fe  Fe442     1.0  0.94504  0.43953  0.18929  1.0000
  S   S887      1.0  0.94514  0.42848  0.21945  1.0000
  H   H5229     1.0  0.78738  0.16756  0.44939  1.0000
  H   H5230     1.0  0.78801  0.41807  0.07391  1.0000
  C   C3059     1.0  0.82309  0.07111  0.11458  1.0000
  C   C3060     1.0  0.96452  0.00733  0.26184  1.0000
  H   H5231     1.0  0.91747  0.37101  0.01995  1.0000
  C   C3061     1.0  0.97286  0.34180  0.26202  1.0000
  H   H5232     1.0  0.93091  0.38551  0.10844  1.0000
  Fe  Fe443     1.0  0.83356  0.19343  0.30908  1.0000
  S   S888      1.0  0.85572  0.20771  0.29019  1.0000
  S   S889      1.0  0.81089  0.20947  0.32746  1.0000
  Fe  Fe444     1.0  0.85005  0.15759  0.29592  1.0000
  S   S890      1.0  0.87400  0.16859  0.27660  1.0000
  S   S891      1.0  0.84488  0.12902  0.30005  1.0000
  Fe  Fe445     1.0  0.87501  0.18163  0.29935  1.0000
  S   S892      1.0  0.90192  0.17988  0.30748  1.0000
  Fe  Fe446     1.0  0.85265  0.19363  0.26905  1.0000
  S   S893      1.0  0.85576  0.20681  0.23884  1.0000
  S   S894      1.0  0.85310  0.16814  0.31954  1.0000
  S   S895      1.0  0.82852  0.18184  0.28706  1.0000
  Fe  Fe447     1.0  0.88262  0.03062  0.21622  1.0000
  S   S896      1.0  0.88596  0.00671  0.23992  1.0000
  S   S897      1.0  0.88146  0.03065  0.18705  1.0000
  Fe  Fe448     1.0  0.88308  0.05866  0.23832  1.0000
  S   S898      1.0  0.88652  0.03731  0.26398  1.0000
  S   S899      1.0  0.88361  0.08878  0.23370  1.0000
  Fe  Fe449     1.0  0.90684  0.02027  0.24488  1.0000
  Fe  Fe450     1.0  0.86535  0.02566  0.25700  1.0000
  S   S900      1.0  0.83884  0.02017  0.27655  1.0000
  S   S901      1.0  0.90503  0.04262  0.21982  1.0000
  S   S902      1.0  0.86037  0.04856  0.23276  1.0000
  H   H5233     1.0  0.87572  0.20999  0.37161  1.0000
  C   C3062     1.0  0.94859  0.05632  0.27505  1.0000
  H   H5234     1.0  0.79360  0.20016  0.23803  1.0000
  H   H5235     1.0  0.87695  0.00838  0.11729  1.0000
  C   C3063     1.0  0.81833  0.15466  0.97417  1.0000
  H   H5236     1.0  0.88168  0.18328  0.35966  1.0000
  S   S903      1.0  0.80928  0.19735  0.10942  1.0000
  H   H5237     1.0  0.86033  0.30211  0.02610  1.0000
  H   H5238     1.0  0.95810  0.34329  0.26148  1.0000
  S   S904      1.0  0.84167  0.99852  0.12110  1.0000
  Fe  Fe451     1.0  0.83773  0.97529  0.14537  1.0000
  H   H5239     1.0  0.91609  0.42369  0.10667  1.0000
  H   H5240     1.0  0.88548  0.38634  0.02868  1.0000
  H   H5241     1.0  0.81987  0.14069  0.26240  1.0000
  Fe  Fe452     1.0  0.83475  0.36505  0.11190  1.0000
  H   H5242     1.0  0.80863  0.29424  0.20954  1.0000
  Fe  Fe453     1.0  0.86845  0.38025  0.11024  1.0000
  S   S905      1.0  0.87106  0.39313  0.08021  1.0000
  S   S906      1.0  0.88983  0.37945  0.12624  1.0000
  H   H5243     1.0  0.83746  0.29727  0.03058  1.0000
  Fe  Fe454     1.0  0.86489  0.36706  0.07710  1.0000
  S   S907      1.0  0.88127  0.35254  0.05397  1.0000
  C   C3064     1.0  0.83554  0.31670  0.12689  1.0000
  S   S908      1.0  0.86511  0.35314  0.10653  1.0000
  H   H5244     1.0  0.78819  0.27781  0.18792  1.0000
  S   S909      1.0  0.79253  0.20374  0.20028  1.0000
  H   H5245     1.0  0.86702  0.30751  0.07954  1.0000
  S   S910      1.0  0.83718  0.34485  0.99766  1.0000
  H   H5246     1.0  0.93552  0.45660  0.09838  1.0000
  H   H5247     1.0  0.81518  0.34301  0.06034  1.0000
  C   C3065     1.0  0.84542  0.23729  0.32965  1.0000
  C   C3066     1.0  0.82565  0.28769  0.13202  1.0000
  S   S911      1.0  0.92126  0.25097  0.31980  1.0000
  H   H5248     1.0  0.79263  0.15189  0.35482  1.0000
  C   C3067     1.0  0.90904  0.35923  0.46236  1.0000
  C   C3068     1.0  0.96175  0.00674  0.29420  1.0000
  H   H5249     1.0  0.79930  0.33060  0.07791  1.0000
  H   H5250     1.0  0.93865  0.33798  0.38811  1.0000
  H   H5251     1.0  0.83688  0.06328  0.10906  1.0000
  H   H5252     1.0  0.93245  0.16863  0.25051  1.0000
  H   H5253     1.0  0.83101  0.14538  0.97689  1.0000
  H   H5254     1.0  0.81203  0.14164  0.07329  1.0000
  H   H5255     1.0  0.87441  0.22930  0.25435  1.0000
  C   C3069     1.0  0.89709  0.06374  0.29963  1.0000
  C   C3070     1.0  0.96837  0.42035  0.24349  1.0000
  H   H5256     1.0  0.83501  0.24141  0.35735  1.0000
  C   C3071     1.0  0.95035  0.34072  0.97110  1.0000
  H   H5257     1.0  0.97582  0.45592  0.42535  1.0000
  H   H5258     1.0  0.90024  0.40224  0.02152  1.0000
  H   H5259     1.0  0.92014  0.00723  0.28477  1.0000
  H   H5260     1.0  0.80545  0.26086  0.23039  1.0000
  H   H5261     1.0  0.82540  0.22546  0.35163  1.0000
  C   C3072     1.0  0.94280  0.00694  0.29711  1.0000
  H   H5262     1.0  0.82189  0.18631  0.46213  1.0000
  C   C3073     1.0  0.94635  0.27024  0.40973  1.0000
  H   H5263     1.0  0.79067  0.44583  0.13158  1.0000
  C   C3074     1.0  0.96330  0.26827  0.43896  1.0000
  C   C3075     1.0  0.94533  0.27827  0.43876  1.0000
  C   C3076     1.0  0.93695  0.27937  0.42411  1.0000
  H   H5264     1.0  0.93798  0.28555  0.44963  1.0000
  H   H5265     1.0  0.92324  0.28762  0.42375  1.0000
  H   H5266     1.0  0.94679  0.19219  0.25682  1.0000
  Fe  Fe455     1.0  0.84027  0.40219  0.08760  1.0000
  H   H5267     1.0  0.96589  0.30927  0.36748  1.0000
  C   C3077     1.0  0.81715  0.32596  0.12989  1.0000
  H   H5268     1.0  0.90420  0.36790  0.00531  1.0000
  H   H5269     1.0  0.79453  0.11497  0.08221  1.0000
  H   H5270     1.0  0.89032  0.23030  0.23289  1.0000
  H   H5271     1.0  0.86029  0.42944  0.00213  1.0000
  H   H5272     1.0  0.81759  0.42927  0.11217  1.0000
  H   H5273     1.0  0.97083  0.30143  0.33262  1.0000
  C   C3078     1.0  0.86934  0.35116  0.03766  1.0000
  C   C3079     1.0  0.87872  0.34224  0.02305  1.0000
  C   C3080     1.0  0.86922  0.34079  0.01010  1.0000
  C   C3081     1.0  0.85028  0.34811  0.01192  1.0000
  C   C3082     1.0  0.84107  0.35734  0.02626  1.0000
  C   C3083     1.0  0.85056  0.35885  0.03906  1.0000
  H   H5274     1.0  0.89329  0.33626  0.02188  1.0000
  H   H5275     1.0  0.87638  0.33358  0.99908  1.0000
  H   H5276     1.0  0.82644  0.36311  0.02762  1.0000
  H   H5277     1.0  0.84325  0.36596  0.04997  1.0000
  H   H5278     1.0  0.86632  0.98690  0.28553  1.0000
  H   H5279     1.0  0.85146  0.39163  0.98356  1.0000
  C   C3084     1.0  0.81724  0.20151  0.98366  1.0000
  H   H5280     1.0  0.86408  0.15506  0.18369  1.0000
  C   C3085     1.0  0.87255  0.39248  0.99760  1.0000
  H   H5281     1.0  0.85287  0.98972  0.24015  1.0000
  H   H5282     1.0  0.88246  0.38366  0.98847  1.0000
  N   N217      1.0  0.97721  0.31780  0.38658  1.0000
  H   H5283     1.0  0.80819  0.15037  0.32207  1.0000
  C   C3086     1.0  0.80686  0.43891  0.10590  1.0000
  C   C3087     1.0  0.83777  0.99972  0.29317  1.0000
  C   C3088     1.0  0.82071  0.99757  0.30478  1.0000
  H   H5284     1.0  0.87531  0.17267  0.34466  1.0000
  H   H5285     1.0  0.89364  0.01165  0.12811  1.0000
  H   H5286     1.0  0.87577  0.42822  0.01593  1.0000
  H   H5287     1.0  0.82296  0.29545  0.16778  1.0000
  H   H5288     1.0  0.80887  0.00876  0.30403  1.0000
  Fe  Fe456     1.0  0.80945  0.24730  0.14024  1.0000
  H   H5289     1.0  0.95182  0.21028  0.21593  1.0000
  C   C3089     1.0  0.83821  0.20574  0.22821  1.0000
  C   C3090     1.0  0.84147  0.20815  0.20900  1.0000
  C   C3091     1.0  0.82750  0.20773  0.20023  1.0000
  C   C3092     1.0  0.81021  0.20483  0.21068  1.0000
  C   C3093     1.0  0.80697  0.20236  0.22988  1.0000
  C   C3094     1.0  0.82087  0.20297  0.23861  1.0000
  H   H5290     1.0  0.85489  0.21018  0.20088  1.0000
  H   H5291     1.0  0.83018  0.20946  0.18541  1.0000
  N   N218      1.0  0.88214  0.40487  0.00280  1.0000
  H   H5292     1.0  0.81803  0.20153  0.25336  1.0000
  C   C3095     1.0  0.90658  0.19956  0.31190  1.0000
  C   C3096     1.0  0.89522  0.21681  0.30798  1.0000
  C   C3097     1.0  0.89982  0.23245  0.31062  1.0000
  C   C3098     1.0  0.91566  0.23092  0.31742  1.0000
  C   C3099     1.0  0.92687  0.21363  0.32170  1.0000
  C   C3100     1.0  0.92238  0.19799  0.31882  1.0000
  H   H5293     1.0  0.88308  0.21823  0.30258  1.0000
  H   H5294     1.0  0.89119  0.24585  0.30721  1.0000
  H   H5295     1.0  0.93912  0.21236  0.32698  1.0000
  H   H5296     1.0  0.93124  0.18467  0.32190  1.0000
  C   C3101     1.0  0.85543  0.11782  0.28156  1.0000
  C   C3102     1.0  0.86523  0.12694  0.26532  1.0000
  C   C3103     1.0  0.87373  0.11790  0.25067  1.0000
  C   C3104     1.0  0.87245  0.09966  0.25218  1.0000
  C   C3105     1.0  0.86250  0.09050  0.26831  1.0000
  C   C3106     1.0  0.85401  0.09959  0.28301  1.0000
  H   H5297     1.0  0.86614  0.14104  0.26393  1.0000
  H   H5298     1.0  0.88144  0.12500  0.23820  1.0000
  H   H5299     1.0  0.86135  0.07644  0.26949  1.0000
  H   H5300     1.0  0.84637  0.09247  0.29553  1.0000
  N   N219      1.0  0.97729  0.36041  0.26026  1.0000
  H   H5301     1.0  0.83182  0.00509  0.24627  1.0000
  H   H5302     1.0  0.82255  0.16358  0.25993  1.0000
  C   C3107     1.0  0.86966  0.18099  0.35550  1.0000
  H   H5303     1.0  0.89542  0.98909  0.16052  1.0000
  S   S912      1.0  0.78541  0.24952  0.16393  1.0000
  H   H5304     1.0  0.82522  0.23132  0.38673  1.0000
  H   H5305     1.0  0.91406  0.34949  0.45277  1.0000
  H   H5306     1.0  0.92152  0.36128  0.46587  1.0000
  H   H5307     1.0  0.83655  0.97606  0.27020  1.0000
  H   H5308     1.0  0.89245  0.24163  0.25021  1.0000
  C   C3108     1.0  0.81191  0.18016  0.35689  1.0000
  C   C3109     1.0  0.80360  0.19826  0.35025  1.0000
  H   H5309     1.0  0.84346  0.28677  0.09371  1.0000
  H   H5310     1.0  0.78849  0.13094  0.09670  1.0000
  H   H5311     1.0  0.84023  0.16575  0.18778  1.0000
  H   H5312     1.0  0.82308  0.17284  0.34812  1.0000
  C   C3110     1.0  0.94562  0.00738  0.26476  1.0000
  C   C3111     1.0  0.92748  0.17399  0.26340  1.0000
  H   H5313     1.0  0.80552  0.97950  0.32609  1.0000
  C   C3112     1.0  0.81286  0.03891  0.08395  1.0000
  C   C3113     1.0  0.81525  0.05566  0.07180  1.0000
  C   C3114     1.0  0.80020  0.07042  0.07022  1.0000
  H   H5314     1.0  0.79536  0.45745  0.06410  1.0000
  H   H5315     1.0  0.90690  0.07016  0.26167  1.0000
  H   H5316     1.0  0.82448  0.02751  0.08499  1.0000
  H   H5317     1.0  0.82876  0.05712  0.06351  1.0000
  H   H5318     1.0  0.80304  0.14745  0.00199  1.0000
  S   S913      1.0  0.80348  0.09109  0.05460  1.0000
  H   H5319     1.0  0.98103  0.33557  0.25006  1.0000
  C   C3115     1.0  0.85476  0.00538  0.16445  1.0000
  C   C3116     1.0  0.86366  0.01800  0.16747  1.0000
  C   C3117     1.0  0.86992  0.01487  0.18390  1.0000
  C   C3118     1.0  0.86747  0.99898  0.19720  1.0000
  H   H5320     1.0  0.94849  0.37422  0.26536  1.0000
  H   H5321     1.0  0.84970  0.00805  0.15191  1.0000
  H   H5322     1.0  0.86558  0.03028  0.15714  1.0000
  H   H5323     1.0  0.87260  0.99638  0.20972  1.0000
  C   C3119     1.0  0.83978  0.29764  0.12796  1.0000
  C   C3120     1.0  0.89347  0.43079  0.14441  1.0000
  C   C3121     1.0  0.90513  0.41392  0.14920  1.0000
  C   C3122     1.0  0.90359  0.39826  0.14380  1.0000
  C   C3123     1.0  0.89049  0.39934  0.13343  1.0000
  C   C3124     1.0  0.87873  0.41618  0.12864  1.0000
  C   C3125     1.0  0.88017  0.43186  0.13421  1.0000
  H   H5324     1.0  0.91521  0.41284  0.15725  1.0000
  H   H5325     1.0  0.91264  0.38524  0.14764  1.0000
  H   H5326     1.0  0.86857  0.41713  0.12064  1.0000
  H   H5327     1.0  0.87108  0.44487  0.13047  1.0000
  H   H5328     1.0  0.79936  0.00402  0.25298  1.0000
  C   C3126     1.0  0.98308  0.41986  0.21170  1.0000
  H   H5329     1.0  0.93558  0.33986  0.97609  1.0000
  C   C3127     1.0  0.90969  0.37835  0.00889  1.0000
  C   C3128     1.0  0.97623  0.42071  0.07038  1.0000
  C   C3129     1.0  0.79962  0.11955  0.09239  1.0000
  H   H5330     1.0  0.96956  0.98074  0.23831  1.0000
  H   H5331     1.0  0.96000  0.45928  0.24331  1.0000
  C   C3130     1.0  0.85504  0.41250  0.02967  1.0000
  H   H5332     1.0  0.89356  0.07771  0.30277  1.0000
  S   S914      1.0  0.83426  0.37710  0.08222  1.0000
  H   H5333     1.0  0.89124  0.05459  0.31237  1.0000
  H   H5334     1.0  0.91348  0.10676  0.25670  1.0000
  S   S915      1.0  0.93634  0.27421  0.39044  1.0000
  H   H5335     1.0  0.82525  0.31518  0.09497  1.0000
  H   H5336     1.0  0.92223  0.43689  0.08420  1.0000
  C   C3131     1.0  0.89167  0.98259  0.13117  1.0000
  C   C3132     1.0  0.94419  0.40449  0.08468  1.0000
  C   C3133     1.0  0.80296  0.31595  0.13440  1.0000
  H   H5337     1.0  0.82981  0.09430  0.23491  1.0000
  H   H5338     1.0  0.83668  0.25096  0.32554  1.0000
  H   H5339     1.0  0.85165  0.39919  0.03005  1.0000
  H   H5340     1.0  0.96426  0.38669  0.26774  1.0000
  H   H5341     1.0  0.80116  0.15163  0.22643  1.0000
  H   H5342     1.0  0.85537  0.16728  0.20199  1.0000
  C   C3134     1.0  0.83876  0.22964  0.35027  1.0000
  Fe  Fe457     1.0  0.85661  0.97620  0.10532  1.0000
  C   C3135     1.0  0.79536  0.03688  0.09446  1.0000
  H   H5343     1.0  0.86082  0.41206  0.97490  1.0000
  H   H5344     1.0  0.84484  0.19573  0.34559  1.0000
  C   C3136     1.0  0.90689  0.42500  0.98802  1.0000
  C   C3137     1.0  0.79173  0.27156  0.20169  1.0000
  H   H5345     1.0  0.92322  0.05822  0.30688  1.0000
  C   C3138     1.0  0.79831  0.12939  0.12705  1.0000
  C   C3139     1.0  0.85647  0.40218  0.98764  1.0000
  H   H5346     1.0  0.97744  0.42236  0.43856  1.0000
  H   H5347     1.0  0.95699  0.36260  0.23296  1.0000
  H   H5348     1.0  0.92777  0.44286  0.12069  1.0000
  C   C3140     1.0  0.95828  0.05552  0.29075  1.0000
  C   C3141     1.0  0.90963  0.98428  0.15292  1.0000
  C   C3142     1.0  0.81905  0.08971  0.10118  1.0000
  H   H5349     1.0  0.88115  0.24055  0.36483  1.0000
  N   N220      1.0  0.92861  0.06611  0.27703  1.0000
  H   H5350     1.0  0.97283  0.00791  0.24810  1.0000
  H   H5351     1.0  0.91970  0.38405  0.99690  1.0000
  Fe  Fe458     1.0  0.79959  0.21499  0.13091  1.0000
  S   S916      1.0  0.81846  0.21671  0.14841  1.0000
  H   H5352     1.0  0.91154  0.45621  0.10707  1.0000
  Fe  Fe459     1.0  0.94433  0.24809  0.33456  1.0000
  H   H5353     1.0  0.96503  0.31277  0.42886  1.0000
  H   H5354     1.0  0.95162  0.35433  0.97275  1.0000
  H   H5355     1.0  0.97187  0.41812  0.05864  1.0000
  H   H5356     1.0  0.93449  0.08446  0.23994  1.0000
  H   H5357     1.0  0.92656  0.24794  0.25983  1.0000
  H   H5358     1.0  0.93801  0.40411  0.12297  1.0000
  S   S917      1.0  0.94324  0.23415  0.36416  1.0000
  H   H5359     1.0  0.80125  0.13110  0.13993  1.0000
  C   C3143     1.0  0.93224  0.07032  0.24185  1.0000
  H   H5360     1.0  0.91282  0.23198  0.27276  1.0000
  C   C3144     1.0  0.95743  0.32243  0.41851  1.0000
  C   C3145     1.0  0.92949  0.39260  0.09421  1.0000
  H   H5361     1.0  0.89959  0.43654  0.99505  1.0000
  N   N221      1.0  0.94550  0.41849  0.09483  1.0000
  C   C3146     1.0  0.93471  0.00734  0.28239  1.0000
  H   H5362     1.0  0.83035  0.20028  0.37677  1.0000
  H   H5363     1.0  0.84457  0.40916  0.99680  1.0000
  C   C3147     1.0  0.85238  0.98942  0.17771  1.0000
  C   C3148     1.0  0.95959  0.42996  0.08345  1.0000
  C   C3149     1.0  0.94465  0.19852  0.21981  1.0000
  C   C3150     1.0  0.81372  0.30072  0.17980  1.0000
  S   S918      1.0  0.96868  0.45145  0.17047  1.0000
  C   C3151     1.0  0.92766  0.08606  0.27691  1.0000
  C   C3152     1.0  0.85310  0.98531  0.29442  1.0000
  Fe  Fe460     1.0  0.79313  0.21866  0.17075  1.0000
  H   H5364     1.0  0.93636  0.32936  0.36941  1.0000
  C   C3153     1.0  0.92156  0.06345  0.26135  1.0000
  H   H5365     1.0  0.84852  0.10310  0.21917  1.0000
  H   H5366     1.0  0.84165  0.42246  0.03085  1.0000
  H   H5367     1.0  0.80779  0.98238  0.23453  1.0000
  H   H5368     1.0  0.87468  0.29559  0.06047  1.0000
  H   H5369     1.0  0.93601  0.47435  0.26227  1.0000
  C   C3154     1.0  0.86845  0.41947  0.01187  1.0000
  C   C3155     1.0  0.97262  0.00690  0.27652  1.0000
  H   H5370     1.0  0.90196  0.40396  0.97698  1.0000
  S   S919      1.0  0.97445  0.23646  0.32512  1.0000
  C   C3156     1.0  0.92567  0.44760  0.10635  1.0000
  H   H5371     1.0  0.97648  0.22626  0.46786  1.0000
  N   N222      1.0  0.83409  0.30478  0.06970  1.0000
  C   C3157     1.0  0.82871  0.32040  0.07990  1.0000
  C   C3158     1.0  0.84826  0.29004  0.07852  1.0000
  C   C3159     1.0  0.81772  0.29670  0.07062  1.0000
  C   C3160     1.0  0.84175  0.31208  0.04980  1.0000
  C   C3161     1.0  0.81231  0.33575  0.07488  1.0000
  H   H5372     1.0  0.96604  0.31846  0.28368  1.0000
  C   C3162     1.0  0.80716  0.28975  0.09016  1.0000
  C   C3163     1.0  0.84868  0.29791  0.03712  1.0000
  C   C3164     1.0  0.97675  0.32707  0.27930  1.0000
  H   H5373     1.0  0.84052  0.32732  0.07773  1.0000
  H   H5374     1.0  0.85005  0.27674  0.07429  1.0000
  C   C3165     1.0  0.89353  0.41411  0.98545  1.0000
  H   H5375     1.0  0.80767  0.30670  0.06284  1.0000
  H   H5376     1.0  0.82210  0.28473  0.06367  1.0000
  H   H5377     1.0  0.83106  0.32271  0.04346  1.0000
  H   H5378     1.0  0.85294  0.31958  0.04834  1.0000
  H   H5379     1.0  0.97319  0.04946  0.28679  1.0000
  H   H5380     1.0  0.86154  0.17255  0.36717  1.0000
  H   H5381     1.0  0.80990  0.34617  0.08347  1.0000
  C   C3166     1.0  0.78851  0.03231  0.03699  1.0000
  H   H5382     1.0  0.80890  0.00017  0.27273  1.0000
  H   H5383     1.0  0.80061  0.13213  0.20783  1.0000
  C   C3167     1.0  0.97097  0.32956  0.40092  1.0000
  H   H5384     1.0  0.80140  0.30082  0.09814  1.0000
  H   H5385     1.0  0.97757  0.29238  0.40655  1.0000
  H   H5386     1.0  0.97117  0.25204  0.39953  1.0000
  H   H5387     1.0  0.95304  0.44222  0.07421  1.0000
  H   H5388     1.0  0.97715  0.45144  0.26572  1.0000
  N   N223      1.0  0.85209  0.21388  0.35911  1.0000
  H   H5389     1.0  0.86517  0.20412  0.33373  1.0000
  C   C3168     1.0  0.83156  0.97552  0.25792  1.0000
  C   C3169     1.0  0.84219  0.20573  0.37796  1.0000
  C   C3170     1.0  0.86949  0.21937  0.36013  1.0000
  H   H5390     1.0  0.86082  0.41107  0.04201  1.0000
  C   C3171     1.0  0.94992  0.40964  0.11358  1.0000
  H   H5391     1.0  0.92046  0.04180  0.29553  1.0000
  C   C3172     1.0  0.86783  0.23923  0.36237  1.0000
  H   H5392     1.0  0.91260  0.17382  0.26850  1.0000
  H   H5393     1.0  0.89835  0.21076  0.27156  1.0000
  C   C3173     1.0  0.97980  0.32694  0.32832  1.0000
  C   C3174     1.0  0.81919  0.15426  0.25283  1.0000
  Fe  Fe461     1.0  0.95112  0.25925  0.36744  1.0000
  H   H5394     1.0  0.93974  0.09091  0.26698  1.0000
  H   H5395     1.0  0.80081  0.15393  0.19195  1.0000
  H   H5396     1.0  0.93112  0.38171  0.08638  1.0000
  C   C3175     1.0  0.97244  0.25839  0.42504  1.0000
  N   N224      1.0  0.80295  0.10385  0.10837  1.0000
  H   H5397     1.0  0.96683  0.33363  0.33562  1.0000
  C   C3176     1.0  0.85739  0.19918  0.34774  1.0000
  H   H5398     1.0  0.85997  0.23891  0.32639  1.0000
  S   S920      1.0  0.94381  0.46299  0.13851  1.0000
  H   H5399     1.0  0.92869  0.08766  0.29065  1.0000
  H   H5400     1.0  0.96837  0.38876  0.12884  1.0000
  C   C3177     1.0  0.83461  0.21854  0.39187  1.0000
  H   H5401     1.0  0.86545  0.24942  0.34965  1.0000
  H   H5402     1.0  0.85144  0.19379  0.38483  1.0000
  H   H5403     1.0  0.85695  0.24310  0.37409  1.0000
  H   H5404     1.0  0.84655  0.32417  0.12376  1.0000
  C   C3178     1.0  0.95608  0.36631  0.29139  1.0000
  H   H5405     1.0  0.93437  0.00678  0.31079  1.0000
  H   H5406     1.0  0.86719  0.38255  0.00978  1.0000
  H   H5407     1.0  0.95733  0.06932  0.29338  1.0000
  H   H5408     1.0  0.96056  0.30301  0.97157  1.0000
  S   S921      1.0  0.83794  0.39121  0.11800  1.0000
  H   H5409     1.0  0.95223  0.41997  0.12025  1.0000
  H   H5410     1.0  0.82582  0.10891  0.21356  1.0000
  C   C3179     1.0  0.91047  0.09995  0.27144  1.0000
  H   H5411     1.0  0.82261  0.10895  0.12185  1.0000
  H   H5412     1.0  0.79890  0.03770  0.02520  1.0000
  C   C3180     1.0  0.86757  0.29465  0.07511  1.0000
  C   C3181     1.0  0.96702  0.42266  0.22513  1.0000
  S   S922      1.0  0.82634  0.42949  0.07303  1.0000
  H   H5413     1.0  0.92188  0.04856  0.26255  1.0000
  H   H5414     1.0  0.84595  0.22169  0.39644  1.0000
  C   C3182     1.0  0.80896  0.14284  0.20088  1.0000
  H   H5415     1.0  0.95267  0.34385  0.36538  1.0000
  H   H5416     1.0  0.80637  0.18545  0.07789  1.0000
  C   C3183     1.0  0.89404  0.39344  0.01621  1.0000
  H   H5417     1.0  0.88039  0.40464  0.46724  1.0000
  H   H5418     1.0  0.96763  0.36457  0.29835  1.0000
  C   C3184     1.0  0.85186  0.15821  0.19469  1.0000
  C   C3185     1.0  0.94652  0.33279  0.37554  1.0000
  S   S923      1.0  0.81166  0.35002  0.12762  1.0000
  H   H5419     1.0  0.81641  0.24216  0.21913  1.0000
  H   H5420     1.0  0.91508  0.99699  0.14580  1.0000
  H   H5421     1.0  0.85407  0.29061  0.12545  1.0000
  H   H5422     1.0  0.84384  0.22824  0.32114  1.0000
  C   C3186     1.0  0.80814  0.44203  0.08689  1.0000
  H   H5423     1.0  0.81568  0.19098  0.97686  1.0000
  H   H5424     1.0  0.81300  0.06246  0.11564  1.0000
  Fe  Fe462     1.0  0.97378  0.22441  0.35518  1.0000
  H   H5425     1.0  0.82629  0.21125  0.40439  1.0000
  H   H5426     1.0  0.88038  0.21772  0.34754  1.0000
  C   C3187     1.0  0.79166  0.44836  0.11686  1.0000
  H   H5427     1.0  0.80239  0.21130  0.00937  1.0000
  H   H5428     1.0  0.80393  0.10004  0.13716  1.0000
  H   H5429     1.0  0.78751  0.41193  0.12500  1.0000
  S   S924      1.0  0.83174  0.26401  0.13225  1.0000
  C   C3188     1.0  0.96689  0.39390  0.11426  1.0000
  H   H5430     1.0  0.81723  0.31404  0.17950  1.0000
  C   C3189     1.0  0.80720  0.29681  0.13544  1.0000
  Fe  Fe463     1.0  0.81609  0.99382  0.11514  1.0000
  S   S925      1.0  0.79147  0.01595  0.10908  1.0000
  H   H5431     1.0  0.90058  0.00318  0.10669  1.0000
  S   S926      1.0  0.94949  0.27427  0.33857  1.0000
  N   N225      1.0  0.81230  0.26868  0.20064  1.0000
  H   H5432     1.0  0.78672  0.15999  0.31476  1.0000
  C   C3190     1.0  0.81684  0.28737  0.19800  1.0000
  C   C3191     1.0  0.81649  0.25677  0.21866  1.0000
  C   C3192     1.0  0.82208  0.25935  0.18469  1.0000
  H   H5433     1.0  0.81354  0.16604  0.20913  1.0000
  C   C3193     1.0  0.78623  0.09499  0.11505  1.0000
  C   C3194     1.0  0.83470  0.25702  0.22381  1.0000
  C   C3195     1.0  0.84331  0.25676  0.17951  1.0000
  C   C3196     1.0  0.96395  0.25934  0.41043  1.0000
  C   C3197     1.0  0.79346  0.18578  0.10628  1.0000
  H   H5434     1.0  0.83141  0.28646  0.19853  1.0000
  C   C3198     1.0  0.80087  0.99421  0.26623  1.0000
  C   C3199     1.0  0.96138  0.37262  0.27038  1.0000
  H   H5435     1.0  0.92815  0.19635  0.27518  1.0000
  H   H5436     1.0  0.81900  0.24540  0.18732  1.0000
  C   C3200     1.0  0.85874  0.98625  0.19409  1.0000
  H   H5437     1.0  0.95754  0.39473  0.08202  1.0000
  S   S927      1.0  0.93641  0.00645  0.24625  1.0000
  C   C3201     1.0  0.98043  0.36964  0.24013  1.0000
  H   H5438     1.0  0.96518  0.43570  0.09243  1.0000
  C   C3202     1.0  0.80252  0.15583  0.98840  1.0000
  H   H5439     1.0  0.82332  0.07286  0.12844  1.0000
  H   H5440     1.0  0.84707  0.25323  0.21336  1.0000
  H   H5441     1.0  0.83622  0.24664  0.23668  1.0000
  H   H5442     1.0  0.83452  0.27046  0.22690  1.0000
  H   H5443     1.0  0.84991  0.24332  0.18693  1.0000
  H   H5444     1.0  0.84881  0.26789  0.18170  1.0000
  H   H5445     1.0  0.84790  0.25698  0.16452  1.0000
  H   H5446     1.0  0.81275  0.23563  0.99105  1.0000
  C   C3203     1.0  0.79026  0.18019  0.38619  1.0000
  H   H5447     1.0  0.97976  0.39870  0.10676  1.0000
  H   H5448     1.0  0.98214  0.42113  0.19759  1.0000
  C   C3204     1.0  0.80748  0.10973  0.12388  1.0000
  H   H5449     1.0  0.92412  0.07048  0.23162  1.0000
  C   C3205     1.0  0.81663  0.12795  0.08174  1.0000
  C   C3206     1.0  0.92685  0.43120  0.09756  1.0000
  H   H5450     1.0  0.96504  0.34405  0.39506  1.0000
  H   H5451     1.0  0.83209  0.09508  0.09707  1.0000
  C   C3207     1.0  0.80544  0.17126  0.37490  1.0000
  H   H5452     1.0  0.81595  0.27822  0.09795  1.0000
  H   H5453     1.0  0.82140  0.20843  0.46606  1.0000
  H   H5454     1.0  0.95720  0.06289  0.26226  1.0000
  H   H5455     1.0  0.88979  0.97443  0.12189  1.0000
  C   C3208     1.0  0.78891  0.20748  0.36183  1.0000
  Fe  Fe464     1.0  0.97950  0.26166  0.33166  1.0000
  H   H5456     1.0  0.89000  0.06320  0.28889  1.0000
  S   S928      1.0  0.98160  0.24852  0.36088  1.0000
  H   H5457     1.0  0.82571  0.11924  0.07207  1.0000
  H   H5458     1.0  0.79378  0.38113  0.15201  1.0000
  H   H5459     1.0  0.82478  0.12983  0.09100  1.0000
  H   H5460     1.0  0.95262  0.18655  0.22795  1.0000
  H   H5461     1.0  0.94999  0.04197  0.27358  1.0000
  H   H5462     1.0  0.78869  0.32303  0.13680  1.0000
  N   N226      1.0  0.83074  0.14174  0.22259  1.0000
  C   C3209     1.0  0.83337  0.15348  0.23453  1.0000
  C   C3210     1.0  0.84786  0.14002  0.20761  1.0000
  C   C3211     1.0  0.82865  0.12305  0.23445  1.0000
  C   C3212     1.0  0.81355  0.15121  0.21509  1.0000
  H   H5463     1.0  0.94481  0.19455  0.20677  1.0000
  C   C3213     1.0  0.91814  0.05683  0.29502  1.0000
  C   C3214     1.0  0.83345  0.10665  0.22467  1.0000
  C   C3215     1.0  0.93156  0.19325  0.26112  1.0000
  H   H5464     1.0  0.84727  0.14880  0.23808  1.0000
  H   H5465     1.0  0.83292  0.16796  0.22701  1.0000
  H   H5466     1.0  0.84756  0.13086  0.19861  1.0000
  H   H5467     1.0  0.86024  0.13320  0.21379  1.0000
  H   H5468     1.0  0.83772  0.11899  0.24472  1.0000
  H   H5469     1.0  0.81432  0.12345  0.24268  1.0000
  H   H5470     1.0  0.98207  0.46122  0.11756  1.0000
  H   H5471     1.0  0.92748  0.98388  0.17118  1.0000
  H   H5472     1.0  0.94417  0.22297  0.24054  1.0000
  H   H5473     1.0  0.85412  0.28390  0.04423  1.0000
  H   H5474     1.0  0.79649  0.02243  0.04692  1.0000
  C   C3216     1.0  0.79440  0.45494  0.07882  1.0000
  H   H5475     1.0  0.89797  0.09419  0.27429  1.0000
  C   C3217     1.0  0.79524  0.18160  0.08904  1.0000
  H   H5476     1.0  0.95595  0.42248  0.25392  1.0000
  H   H5477     1.0  0.93478  0.16424  0.27393  1.0000
  H   H5478     1.0  0.81182  0.15718  0.37988  1.0000
  H   H5479     1.0  0.94114  0.41148  0.07084  1.0000
  H   H5480     1.0  0.82119  0.13716  0.19125  1.0000
  H   H5481     1.0  0.78959  0.23364  0.97721  1.0000
  N   N227      1.0  0.92151  0.20849  0.24833  1.0000
  C   C3218     1.0  0.92438  0.20375  0.22973  1.0000
  C   C3219     1.0  0.90108  0.21132  0.25651  1.0000
  C   C3220     1.0  0.92635  0.23301  0.26355  1.0000
  C   C3221     1.0  0.92900  0.22557  0.24591  1.0000
  H   H5482     1.0  0.81660  0.26641  0.17201  1.0000
  C   C3222     1.0  0.88916  0.22924  0.24781  1.0000
  H   H5483     1.0  0.83889  0.25437  0.97190  1.0000
  H   H5484     1.0  0.88445  0.42390  0.97648  1.0000
  H   H5485     1.0  0.91741  0.19229  0.23067  1.0000
  H   H5486     1.0  0.91773  0.21552  0.22014  1.0000
  H   H5487     1.0  0.93737  0.22572  0.27144  1.0000
  H   H5488     1.0  0.89513  0.19987  0.25535  1.0000
  C   C3223     1.0  0.98203  0.30869  0.32658  1.0000
  C   C3224     1.0  0.83764  0.99146  0.24248  1.0000
  H   H5489     1.0  0.83422  0.99153  0.22925  1.0000
  H   H5490     1.0  0.92358  0.23690  0.23512  1.0000
  H   H5491     1.0  0.79980  0.40361  0.09125  1.0000
  H   H5492     1.0  0.95329  0.38631  0.23542  1.0000
  C   C3225     1.0  0.78681  0.40667  0.08614  1.0000
  C   C3226     1.0  0.96363  0.37450  0.23080  1.0000
  H   H5493     1.0  0.78546  0.39471  0.08126  1.0000
  H   H5494     1.0  0.94498  0.37712  0.29698  1.0000
  H   H5495     1.0  0.90189  0.37214  0.45462  1.0000
  S   S929      1.0  0.97128  0.00740  0.31258  1.0000
  H   H5496     1.0  0.94868  0.33421  0.42458  1.0000
  S   S930      1.0  0.97494  0.26933  0.45564  1.0000
  H   H5497     1.0  0.95029  0.35364  0.29517  1.0000
  H   H5498     1.0  0.94765  0.31538  0.41585  1.0000
  C   C3227     1.0  0.82373  0.23204  0.97915  1.0000
  C   C3228     1.0  0.80159  0.20180  0.00096  1.0000
  H   H5499     1.0  0.83037  0.19586  0.98873  1.0000
  H   H5500     1.0  0.96545  0.38205  0.10928  1.0000
  H   H5501     1.0  0.79695  0.17305  0.32493  1.0000
  H   H5502     1.0  0.94564  0.06082  0.23854  1.0000
  Fe  Fe465     1.0  0.96368  0.43834  0.14964  1.0000
  H   H5503     1.0  0.95369  0.30501  0.39027  1.0000
  S   S931      1.0  0.88305  0.97910  0.08426  1.0000
  H   H5504     1.0  0.81708  0.08664  0.08844  1.0000
  Fe  Fe466     1.0  0.85095  0.33664  0.97047  1.0000
  H   H5505     1.0  0.91773  0.41605  0.99536  1.0000
  H   H5506     1.0  0.87627  0.28340  0.08334  1.0000
  C   C3229     1.0  0.79439  0.15925  0.32551  1.0000
  H   H5507     1.0  0.90692  0.11115  0.27930  1.0000
  N   N228      1.0  0.81804  0.21956  0.97010  1.0000
  H   H5508     1.0  0.97964  0.46935  0.43992  1.0000
  C   C3230     1.0  0.89097  0.00258  0.12027  1.0000
  H   H5509     1.0  0.80490  0.15998  0.25064  1.0000
  H   H5510     1.0  0.83589  0.22486  0.98554  1.0000
  C   C3231     1.0  0.98312  0.46889  0.20180  1.0000
  H   H5511     1.0  0.92649  0.98877  0.11678  1.0000
  C   C3232     1.0  0.96107  0.31525  0.38009  1.0000
  H   H5512     1.0  0.80289  0.18779  0.00979  1.0000
  H   H5513     1.0  0.79531  0.28437  0.08910  1.0000
  H   H5514     1.0  0.79375  0.18843  0.44931  1.0000
  H   H5515     1.0  0.97317  0.44120  0.45870  1.0000
  H   H5516     1.0  0.87903  0.98291  0.14220  1.0000
  S   S932      1.0  0.79273  0.24552  0.12084  1.0000
  H   H5517     1.0  0.79917  0.30376  0.17821  1.0000
  C   C3233     1.0  0.78560  0.17801  0.45780  1.0000
  H   H5518     1.0  0.98396  0.40774  0.07732  1.0000
  H   H5519     1.0  0.78771  0.20508  0.99749  1.0000
  H   H5520     1.0  0.95894  0.33025  0.98001  1.0000
  C   C3234     1.0  0.81875  0.98095  0.31719  1.0000
  H   H5521     1.0  0.97653  0.33250  0.29137  1.0000
  H   H5522     1.0  0.79623  0.28918  0.13859  1.0000
  H   H5523     1.0  0.80404  0.14004  0.11584  1.0000
  H   H5524     1.0  0.96934  0.46531  0.20439  1.0000
  H   H5525     1.0  0.96832  0.37901  0.21572  1.0000
  H   H5526     1.0  0.95293  0.04632  0.30364  1.0000
  H   H5527     1.0  0.91159  0.37356  0.97005  1.0000
  H   H5528     1.0  0.79072  0.24284  0.20176  1.0000
  C   C3235     1.0  0.78631  0.16836  0.98514  1.0000
  H   H5529     1.0  0.98299  0.33080  0.40591  1.0000
  H   H5530     1.0  0.98249  0.34109  0.36456  1.0000
  H   H5531     1.0  0.78839  0.08283  0.12637  1.0000
  H   H5532     1.0  0.78641  0.13601  0.34529  1.0000
  H   H5533     1.0  0.78513  0.05499  0.04995  1.0000
  N   N229      1.0  0.81114  0.97537  0.26283  1.0000
  H   H5534     1.0  0.81547  0.26166  0.96840  1.0000
  N   N230      1.0  0.95507  0.46235  0.84136  1.0000
  C   C3236     1.0  0.94907  0.21943  0.52745  1.0000
  Fe  Fe467     1.0  0.85862  0.19750  0.87386  1.0000
  S   S933      1.0  0.83671  0.22243  0.86721  1.0000
  S   S934      1.0  0.88330  0.19302  0.85076  1.0000
  Fe  Fe468     1.0  0.83747  0.18643  0.91275  1.0000
  S   S935      1.0  0.81416  0.21050  0.90909  1.0000
  S   S936      1.0  0.83855  0.16609  0.93977  1.0000
  Fe  Fe469     1.0  0.81676  0.20381  0.88157  1.0000
  C   C3237     1.0  0.98095  0.13029  0.76295  1.0000
  Fe  Fe470     1.0  0.83614  0.22688  0.89519  1.0000
  S   S937      1.0  0.83131  0.25564  0.90023  1.0000
  S   S938      1.0  0.83864  0.17834  0.88610  1.0000
  S   S939      1.0  0.85958  0.20338  0.90086  1.0000
  S   S940      1.0  0.88698  0.30447  0.49242  1.0000
  H   H5535     1.0  0.82662  0.15937  0.69949  1.0000
  C   C3238     1.0  0.79389  0.00837  0.65105  1.0000
  H   H5536     1.0  0.83356  0.25006  0.95265  1.0000
  S   S941      1.0  0.86688  0.32597  0.92154  1.0000
  C   C3239     1.0  0.85178  0.20711  0.95527  1.0000
  H   H5537     1.0  0.90741  0.22003  0.89421  1.0000
  H   H5538     1.0  0.88674  0.13896  0.78820  1.0000
  C   C3240     1.0  0.81089  0.31656  0.88441  1.0000
  H   H5539     1.0  0.87313  0.12194  0.80058  1.0000
  S   S942      1.0  0.81125  0.40568  0.85090  1.0000
  H   H5540     1.0  0.87689  0.18575  0.80510  1.0000
  S   S943      1.0  0.95831  0.14217  0.86870  1.0000
  C   C3241     1.0  0.85742  0.25644  0.51939  1.0000
  S   S944      1.0  0.80230  0.06341  0.63439  1.0000
  H   H5541     1.0  0.83795  0.15394  0.84747  1.0000
  S   S945      1.0  0.81805  0.10674  0.63522  1.0000
  Fe  Fe471     1.0  0.82927  0.10059  0.66100  1.0000
  S   S946      1.0  0.85934  0.09407  0.66252  1.0000
  C   C3242     1.0  0.96844  0.22492  0.48225  1.0000
  H   H5542     1.0  0.85569  0.14055  0.85917  1.0000
  H   H5543     1.0  0.94977  0.99674  0.83129  1.0000
  C   C3243     1.0  0.95165  0.13025  0.79337  1.0000
  S   S947      1.0  0.80983  0.21999  0.51554  1.0000
  H   H5544     1.0  0.83177  0.09111  0.71550  1.0000
  Fe  Fe472     1.0  0.81682  0.23971  0.52863  1.0000
  H   H5545     1.0  0.91209  0.34860  0.50679  1.0000
  H   H5546     1.0  0.81856  0.39259  0.92713  1.0000
  C   C3244     1.0  0.87361  0.47248  0.60525  1.0000
  H   H5547     1.0  0.83235  0.22762  0.94166  1.0000
  Fe  Fe473     1.0  0.92947  0.08565  0.72964  1.0000
  S   S948      1.0  0.90660  0.10590  0.74294  1.0000
  H   H5548     1.0  0.90263  0.46126  0.64327  1.0000
  H   H5549     1.0  0.85130  0.13355  0.83990  1.0000
  S   S949      1.0  0.93203  0.13732  0.72168  1.0000
  Fe  Fe474     1.0  0.92937  0.11648  0.74822  1.0000
  S   S950      1.0  0.92770  0.12394  0.77532  1.0000
  Fe  Fe475     1.0  0.91124  0.12480  0.71539  1.0000
  S   S951      1.0  0.88778  0.14182  0.70183  1.0000
  S   S952      1.0  0.93260  0.10392  0.70169  1.0000
  C   C3245     1.0  0.94109  0.35314  0.54149  1.0000
  C   C3246     1.0  0.93115  0.04611  0.71536  1.0000
  S   S953      1.0  0.94938  0.26505  0.54654  1.0000
  H   H5550     1.0  0.87084  0.35649  0.52191  1.0000
  C   C3247     1.0  0.84973  0.27114  0.50678  1.0000
  H   H5551     1.0  0.83663  0.27128  0.50366  1.0000
  C   C3248     1.0  0.86620  0.10748  0.67413  1.0000
  C   C3249     1.0  0.87936  0.09909  0.68510  1.0000
  C   C3250     1.0  0.88564  0.10955  0.69396  1.0000
  C   C3251     1.0  0.87920  0.12855  0.69150  1.0000
  C   C3252     1.0  0.86593  0.13699  0.68063  1.0000
  C   C3253     1.0  0.85932  0.12643  0.67205  1.0000
  H   H5552     1.0  0.88464  0.08444  0.68690  1.0000
  H   H5553     1.0  0.89543  0.10281  0.70275  1.0000
  H   H5554     1.0  0.86086  0.15170  0.67871  1.0000
  H   H5555     1.0  0.84926  0.13300  0.66346  1.0000
  H   H5556     1.0  0.90091  0.16842  0.82127  1.0000
  H   H5557     1.0  0.86165  0.33923  0.49392  1.0000
  C   C3254     1.0  0.95819  0.00912  0.78681  1.0000
  C   C3255     1.0  0.82343  0.31022  0.85287  1.0000
  H   H5558     1.0  0.81082  0.44911  0.60951  1.0000
  C   C3256     1.0  0.97248  0.46992  0.83344  1.0000
  H   H5559     1.0  0.88139  0.16926  0.79041  1.0000
  C   C3257     1.0  0.94916  0.12751  0.77682  1.0000
  Fe  Fe476     1.0  0.95609  0.40245  0.55782  1.0000
  H   H5560     1.0  0.80729  0.16229  0.47225  1.0000
  C   C3258     1.0  0.84287  0.34290  0.84435  1.0000
  H   H5561     1.0  0.84058  0.31638  0.89988  1.0000
  C   C3259     1.0  0.81230  0.38770  0.87024  1.0000
  C   C3260     1.0  0.79747  0.37874  0.87824  1.0000
  C   C3261     1.0  0.79806  0.36523  0.89437  1.0000
  C   C3262     1.0  0.81355  0.36052  0.90249  1.0000
  C   C3263     1.0  0.82867  0.36902  0.89423  1.0000
  C   C3264     1.0  0.82804  0.38258  0.87808  1.0000
  H   H5562     1.0  0.84071  0.36534  0.90042  1.0000
  H   H5563     1.0  0.83961  0.38940  0.87186  1.0000
  C   C3265     1.0  0.92801  0.38571  0.94481  1.0000
  C   C3266     1.0  0.93212  0.38792  0.92565  1.0000
  C   C3267     1.0  0.92289  0.37996  0.91697  1.0000
  C   C3268     1.0  0.90952  0.36978  0.92739  1.0000
  S   S954      1.0  0.98385  0.41583  0.92418  1.0000
  H   H5564     1.0  0.91405  0.36989  0.49224  1.0000
  H   H5565     1.0  0.92632  0.38145  0.90215  1.0000
  C   C3269     1.0  0.95707  0.33957  0.95058  1.0000
  C   C3270     1.0  0.80010  0.43308  0.89126  1.0000
  H   H5566     1.0  0.91740  0.11936  0.83467  1.0000
  H   H5567     1.0  0.92223  0.14184  0.83282  1.0000
  C   C3271     1.0  0.87599  0.35008  0.50960  1.0000
  H   H5568     1.0  0.93462  0.05881  0.66894  1.0000
  H   H5569     1.0  0.80365  0.23588  0.93548  1.0000
  C   C3272     1.0  0.90406  0.17926  0.85627  1.0000
  C   C3273     1.0  0.92006  0.17846  0.84242  1.0000
  C   C3274     1.0  0.93667  0.16692  0.84608  1.0000
  C   C3275     1.0  0.93743  0.15618  0.86363  1.0000
  C   C3276     1.0  0.92145  0.15704  0.87755  1.0000
  C   C3277     1.0  0.90477  0.16860  0.87389  1.0000
  H   H5570     1.0  0.91959  0.18672  0.82877  1.0000
  H   H5571     1.0  0.94881  0.16623  0.83523  1.0000
  H   H5572     1.0  0.92196  0.14877  0.89119  1.0000
  H   H5573     1.0  0.89244  0.16907  0.88462  1.0000
  C   C3278     1.0  0.84457  0.26058  0.91345  1.0000
  C   C3279     1.0  0.86046  0.24836  0.91816  1.0000
  C   C3280     1.0  0.87065  0.25306  0.92870  1.0000
  C   C3281     1.0  0.86509  0.27004  0.93429  1.0000
  C   C3282     1.0  0.84920  0.28211  0.92956  1.0000
  C   C3283     1.0  0.83892  0.27732  0.91935  1.0000
  H   H5574     1.0  0.86491  0.23540  0.91367  1.0000
  S   S955      1.0  0.97997  0.11614  0.69032  1.0000
  H   H5575     1.0  0.82644  0.28663  0.91621  1.0000
  H   H5576     1.0  0.79883  0.13551  0.72394  1.0000
  H   H5577     1.0  0.81398  0.41814  0.57768  1.0000
  H   H5578     1.0  0.80975  0.32167  0.53073  1.0000
  Fe  Fe477     1.0  0.78715  0.24311  0.50687  1.0000
  C   C3284     1.0  0.80423  0.17746  0.83179  1.0000
  C   C3285     1.0  0.80547  0.18616  0.84546  1.0000
  H   H5579     1.0  0.88084  0.11956  0.82835  1.0000
  H   H5580     1.0  0.81658  0.17264  0.82232  1.0000
  H   H5581     1.0  0.81870  0.18812  0.84648  1.0000
  H   H5582     1.0  0.91763  0.12712  0.85469  1.0000
  C   C3286     1.0  0.88368  0.27089  0.51481  1.0000
  C   C3287     1.0  0.89837  0.37191  0.51933  1.0000
  H   H5583     1.0  0.79988  0.14008  0.51128  1.0000
  Fe  Fe478     1.0  0.98393  0.14472  0.84653  1.0000
  H   H5584     1.0  0.79978  0.28216  0.55440  1.0000
  H   H5585     1.0  0.90088  0.12480  0.81303  1.0000
  H   H5586     1.0  0.93743  0.45067  0.83112  1.0000
  Fe  Fe479     1.0  0.91677  0.29847  0.49484  1.0000
  C   C3288     1.0  0.96777  0.22570  0.52139  1.0000
  H   H5587     1.0  0.98377  0.45938  0.82762  1.0000
  H   H5588     1.0  0.80228  0.01876  0.64976  1.0000
  H   H5589     1.0  0.89823  0.18226  0.78905  1.0000
  H   H5590     1.0  0.86395  0.14503  0.80205  1.0000
  Fe  Fe480     1.0  0.95630  0.28439  0.47727  1.0000
  H   H5591     1.0  0.84139  0.35811  0.84025  1.0000
  C   C3289     1.0  0.87596  0.28569  0.50235  1.0000
  C   C3290     1.0  0.90504  0.36793  0.94654  1.0000
  H   H5592     1.0  0.87882  0.43749  0.58062  1.0000
  S   S956      1.0  0.85662  0.47406  0.62537  1.0000
  H   H5593     1.0  0.96898  0.00912  0.77408  1.0000
  H   H5594     1.0  0.94012  0.42780  0.85579  1.0000
  Fe  Fe481     1.0  0.79178  0.09894  0.68610  1.0000
  C   C3291     1.0  0.98405  0.41770  0.47753  1.0000
  C   C3292     1.0  0.97206  0.25509  0.54955  1.0000
  H   H5595     1.0  0.82270  0.45164  0.56426  1.0000
  H   H5596     1.0  0.95988  0.47390  0.58781  1.0000
  H   H5597     1.0  0.97585  0.18842  0.52941  1.0000
  H   H5598     1.0  0.79352  0.46088  0.75738  1.0000
  H   H5599     1.0  0.96573  0.23851  0.48585  1.0000
  C   C3293     1.0  0.79698  0.15819  0.58298  1.0000
  C   C3294     1.0  0.81014  0.14277  0.72259  1.0000
  H   H5600     1.0  0.84380  0.46581  0.76406  1.0000
  C   C3295     1.0  0.80612  0.99223  0.64227  1.0000
  H   H5601     1.0  0.78970  0.09846  0.60883  1.0000
  H   H5602     1.0  0.88450  0.34870  0.47366  1.0000
  H   H5603     1.0  0.80885  0.28801  0.87011  1.0000
  H   H5604     1.0  0.79808  0.17886  0.51492  1.0000
  H   H5605     1.0  0.97316  0.98079  0.89415  1.0000
  Fe  Fe482     1.0  0.94659  0.31896  0.49331  1.0000
  H   H5606     1.0  0.83343  0.28049  0.86244  1.0000
  H   H5607     1.0  0.78684  0.31457  0.59159  1.0000
  H   H5608     1.0  0.80828  0.43336  0.64049  1.0000
  H   H5609     1.0  0.95876  0.12055  0.65923  1.0000
  H   H5610     1.0  0.84287  0.33787  0.83200  1.0000
  H   H5611     1.0  0.93845  0.23041  0.53335  1.0000
  C   C3296     1.0  0.85072  0.31592  0.88674  1.0000
  C   C3297     1.0  0.82667  0.33841  0.86030  1.0000
  Fe  Fe483     1.0  0.94567  0.28162  0.51846  1.0000
  H   H5612     1.0  0.82721  0.20558  0.94716  1.0000
  H   H5613     1.0  0.88404  0.33611  0.51440  1.0000
  C   C3298     1.0  0.87447  0.25628  0.52324  1.0000
  H   H5614     1.0  0.80327  0.15538  0.72820  1.0000
  S   S957      1.0  0.84864  0.35873  0.94511  1.0000
  H   H5615     1.0  0.94233  0.00450  0.70251  1.0000
  S   S958      1.0  0.95338  0.34699  0.48853  1.0000
  H   H5616     1.0  0.95903  0.08296  0.86743  1.0000
  H   H5617     1.0  0.81343  0.16527  0.50022  1.0000
  H   H5618     1.0  0.96111  0.33607  0.89786  1.0000
  H   H5619     1.0  0.89386  0.36216  0.53217  1.0000
  C   C3299     1.0  0.88971  0.45903  0.60634  1.0000
  Fe  Fe484     1.0  0.79465  0.12574  0.64955  1.0000
  H   H5620     1.0  0.84915  0.36072  0.50063  1.0000
  C   C3300     1.0  0.94768  0.36897  0.54027  1.0000
  S   S959      1.0  0.88032  0.32327  0.96019  1.0000
  S   S960      1.0  0.95193  0.09442  0.73746  1.0000
  C   C3301     1.0  0.88709  0.39583  0.47863  1.0000
  C   C3302     1.0  0.89880  0.06052  0.63706  1.0000
  H   H5621     1.0  0.94015  0.33683  0.91451  1.0000
  H   H5622     1.0  0.94942  0.20688  0.53846  1.0000
  N   N231      1.0  0.88815  0.36133  0.49459  1.0000
  H   H5623     1.0  0.84464  0.29512  0.93395  1.0000
  N   N232      1.0  0.94609  0.20713  0.87798  1.0000
  C   C3303     1.0  0.92847  0.21028  0.87101  1.0000
  C   C3304     1.0  0.96122  0.21079  0.86133  1.0000
  C   C3305     1.0  0.94334  0.22066  0.89024  1.0000
  C   C3306     1.0  0.94956  0.18760  0.88865  1.0000
  H   H5624     1.0  0.79191  0.15069  0.53122  1.0000
  H   H5625     1.0  0.98233  0.04102  0.66936  1.0000
  C   C3307     1.0  0.96085  0.22515  0.89331  1.0000
  C   C3308     1.0  0.79904  0.22743  0.96574  1.0000
  C   C3309     1.0  0.85846  0.34746  0.50472  1.0000
  H   H5626     1.0  0.92932  0.19996  0.86276  1.0000
  H   H5627     1.0  0.81230  0.32383  0.89469  1.0000
  C   C3310     1.0  0.79626  0.30181  0.58798  1.0000
  H   H5628     1.0  0.97292  0.31962  0.53379  1.0000
  H   H5629     1.0  0.93511  0.21588  0.90412  1.0000
  H   H5630     1.0  0.93886  0.18578  0.90148  1.0000
  H   H5631     1.0  0.94774  0.17783  0.88104  1.0000
  H   H5632     1.0  0.81278  0.42341  0.89476  1.0000
  H   H5633     1.0  0.79466  0.04521  0.60967  1.0000
  H   H5634     1.0  0.94051  0.46895  0.58196  1.0000
  N   N233      1.0  0.78908  0.18059  0.48966  1.0000
  H   H5635     1.0  0.97124  0.34261  0.94636  1.0000
  H   H5636     1.0  0.94871  0.10347  0.87605  1.0000
  C   C3311     1.0  0.96843  0.30644  0.95722  1.0000
  H   H5637     1.0  0.84326  0.29353  0.88029  1.0000
  C   C3312     1.0  0.94691  0.47141  0.80888  1.0000
  H   H5638     1.0  0.96192  0.32506  0.56403  1.0000
  H   H5639     1.0  0.96383  0.06815  0.67432  1.0000
  H   H5640     1.0  0.96760  0.46368  0.61478  1.0000
  H   H5641     1.0  0.84433  0.46388  0.58668  1.0000
  H   H5642     1.0  0.95767  0.22509  0.85340  1.0000
  H   H5643     1.0  0.89879  0.21195  0.87878  1.0000
  H   H5644     1.0  0.81155  0.30196  0.89171  1.0000
  C   C3313     1.0  0.88692  0.03977  0.69842  1.0000
  H   H5645     1.0  0.83548  0.31040  0.84116  1.0000
  H   H5646     1.0  0.98125  0.40630  0.47282  1.0000
  Fe  Fe485     1.0  0.97043  0.39222  0.94043  1.0000
  H   H5647     1.0  0.88746  0.38444  0.51777  1.0000
  C   C3314     1.0  0.98281  0.06574  0.90594  1.0000
  H   H5648     1.0  0.79434  0.25916  0.57867  1.0000
  H   H5649     1.0  0.87285  0.41565  0.58164  1.0000
  H   H5650     1.0  0.85309  0.19315  0.96410  1.0000
  C   C3315     1.0  0.80842  0.26164  0.57729  1.0000
  C   C3316     1.0  0.79111  0.32426  0.88088  1.0000
  Fe  Fe486     1.0  0.86767  0.30625  0.94849  1.0000
  H   H5651     1.0  0.81385  0.34578  0.85517  1.0000
  C   C3317     1.0  0.80455  0.40045  0.93198  1.0000
  C   C3318     1.0  0.90389  0.36258  0.50254  1.0000
  H   H5652     1.0  0.96450  0.15233  0.69907  1.0000
  H   H5653     1.0  0.91032  0.06811  0.63301  1.0000
  H   H5654     1.0  0.80152  0.13750  0.60725  1.0000
  H   H5655     1.0  0.94428  0.21725  0.51581  1.0000
  H   H5656     1.0  0.80831  0.41145  0.60194  1.0000
  H   H5657     1.0  0.84319  0.03597  0.65237  1.0000
  H   H5658     1.0  0.97142  0.22720  0.53404  1.0000
  Fe  Fe487     1.0  0.87709  0.34402  0.93407  1.0000
  H   H5659     1.0  0.79275  0.21624  0.96446  1.0000
  H   H5660     1.0  0.78643  0.35853  0.90067  1.0000
  H   H5661     1.0  0.96265  0.28363  0.57948  1.0000
  S   S961      1.0  0.83864  0.31752  0.96145  1.0000
  H   H5662     1.0  0.91608  0.44701  0.59178  1.0000
  S   S962      1.0  0.96809  0.29319  0.49697  1.0000
  H   H5663     1.0  0.81826  0.45430  0.73332  1.0000
  H   H5664     1.0  0.79671  0.31199  0.55959  1.0000
  C   C3319     1.0  0.80741  0.45893  0.76052  1.0000
  H   H5665     1.0  0.89523  0.02565  0.70118  1.0000
  H   H5666     1.0  0.83740  0.45659  0.70595  1.0000
  S   S963      1.0  0.94594  0.37647  0.56058  1.0000
  H   H5667     1.0  0.97443  0.21029  0.86514  1.0000
  S   S964      1.0  0.98116  0.37603  0.91812  1.0000
  C   C3320     1.0  0.96876  0.13298  0.79474  1.0000
  C   C3321     1.0  0.96550  0.32308  0.92554  1.0000
  C   C3322     1.0  0.98357  0.13819  0.67876  1.0000
  C   C3323     1.0  0.96241  0.98697  0.83464  1.0000
  C   C3324     1.0  0.79238  0.16853  0.47589  1.0000
  S   S965      1.0  0.93545  0.27075  0.49906  1.0000
  N   N234      1.0  0.88281  0.03929  0.66597  1.0000
  C   C3325     1.0  0.87373  0.04172  0.68538  1.0000
  C   C3326     1.0  0.86772  0.04373  0.65509  1.0000
  C   C3327     1.0  0.89594  0.05256  0.65797  1.0000
  C   C3328     1.0  0.89321  0.01967  0.66691  1.0000
  H   H5668     1.0  0.97060  0.13500  0.80758  1.0000
  C   C3329     1.0  0.85269  0.03195  0.66222  1.0000
  Fe  Fe488     1.0  0.94913  0.99111  0.66852  1.0000
  C   C3330     1.0  0.90235  0.01388  0.64839  1.0000
  H   H5669     1.0  0.95678  0.23352  0.90413  1.0000
  H   H5670     1.0  0.86482  0.03147  0.69233  1.0000
  H   H5671     1.0  0.87341  0.04248  0.64055  1.0000
  H   H5672     1.0  0.86049  0.05836  0.65451  1.0000
  H   H5673     1.0  0.89123  0.06492  0.66432  1.0000
  H   H5674     1.0  0.90979  0.04623  0.66125  1.0000
  H   H5675     1.0  0.90460  0.01688  0.67449  1.0000
  H   H5676     1.0  0.88407  0.00988  0.67485  1.0000
  H   H5677     1.0  0.81062  0.44500  0.76917  1.0000
  H   H5678     1.0  0.78912  0.43881  0.91857  1.0000
  H   H5679     1.0  0.82695  0.34516  0.87140  1.0000
  S   S966      1.0  0.78907  0.18367  0.55243  1.0000
  H   H5680     1.0  0.97974  0.32579  0.92281  1.0000
  H   H5681     1.0  0.80378  0.44683  0.88566  1.0000
  N   N235      1.0  0.93765  0.47121  0.62239  1.0000
  H   H5682     1.0  0.90236  0.04989  0.62863  1.0000
  H   H5683     1.0  0.95935  0.46536  0.63794  1.0000
  H   H5684     1.0  0.89221  0.01517  0.63981  1.0000
  H   H5685     1.0  0.81428  0.14754  0.76554  1.0000
  H   H5686     1.0  0.91343  0.02152  0.64074  1.0000
  Fe  Fe489     1.0  0.80148  0.08497  0.65020  1.0000
  H   H5687     1.0  0.97087  0.21279  0.89802  1.0000
  H   H5688     1.0  0.89131  0.44985  0.61936  1.0000
  Fe  Fe490     1.0  0.83867  0.33852  0.93521  1.0000
  H   H5689     1.0  0.81371  0.31837  0.56751  1.0000
  C   C3331     1.0  0.81737  0.14954  0.70190  1.0000
  H   H5690     1.0  0.89478  0.36000  0.95465  1.0000
  Fe  Fe491     1.0  0.78932  0.21390  0.54172  1.0000
  H   H5691     1.0  0.89621  0.04978  0.69327  1.0000
  H   H5692     1.0  0.94527  0.01758  0.78256  1.0000
  N   N236      1.0  0.83883  0.43643  0.59763  1.0000
  C   C3332     1.0  0.85683  0.42987  0.60435  1.0000
  C   C3333     1.0  0.82430  0.44269  0.61343  1.0000
  C   C3334     1.0  0.84101  0.45270  0.58192  1.0000
  C   C3335     1.0  0.83479  0.42088  0.59142  1.0000
  H   H5693     1.0  0.80985  0.99520  0.59371  1.0000
  C   C3336     1.0  0.82073  0.42772  0.63088  1.0000
  H   H5694     1.0  0.80819  0.01282  0.60647  1.0000
  C   C3337     1.0  0.81442  0.42184  0.59066  1.0000
  H   H5695     1.0  0.85931  0.44036  0.61073  1.0000
  H   H5696     1.0  0.85630  0.41733  0.61543  1.0000
  C   C3338     1.0  0.93719  0.45173  0.62221  1.0000
  H   H5697     1.0  0.82819  0.45381  0.61778  1.0000
  C   C3339     1.0  0.97505  0.24413  0.56658  1.0000
  H   H5698     1.0  0.85277  0.44902  0.57070  1.0000
  H   H5699     1.0  0.84333  0.41953  0.57754  1.0000
  H   H5700     1.0  0.83904  0.40754  0.60071  1.0000
  H   H5701     1.0  0.80508  0.29660  0.59838  1.0000
  C   C3340     1.0  0.96578  0.19766  0.84781  1.0000
  H   H5702     1.0  0.97335  0.10101  0.89140  1.0000
  S   S967      1.0  0.93693  0.31139  0.47142  1.0000
  H   H5703     1.0  0.92380  0.45083  0.61965  1.0000
  C   C3341     1.0  0.78880  0.17634  0.57612  1.0000
  H   H5704     1.0  0.96148  0.01609  0.79628  1.0000
  H   H5705     1.0  0.97060  0.43505  0.84996  1.0000
  H   H5706     1.0  0.80543  0.15694  0.69533  1.0000
  C   C3342     1.0  0.95764  0.08965  0.87910  1.0000
  H   H5707     1.0  0.80405  0.25378  0.94676  1.0000
  H   H5708     1.0  0.79934  0.39392  0.94644  1.0000
  N   N237      1.0  0.93044  0.16253  0.65248  1.0000
  C   C3343     1.0  0.91693  0.17470  0.66473  1.0000
  C   C3344     1.0  0.92041  0.16090  0.63850  1.0000
  C   C3345     1.0  0.94629  0.17218  0.64281  1.0000
  C   C3346     1.0  0.93692  0.14425  0.66437  1.0000
  C   C3347     1.0  0.92465  0.17992  0.67910  1.0000
  C   C3348     1.0  0.90344  0.15169  0.64644  1.0000
  C   C3349     1.0  0.96179  0.16260  0.62913  1.0000
  C   C3350     1.0  0.94560  0.12769  0.65473  1.0000
  H   H5709     1.0  0.91067  0.18781  0.65633  1.0000
  H   H5710     1.0  0.90518  0.16802  0.67274  1.0000
  H   H5711     1.0  0.92953  0.15324  0.62806  1.0000
  H   H5712     1.0  0.91560  0.17476  0.63032  1.0000
  H   H5713     1.0  0.94107  0.18625  0.63528  1.0000
  H   H5714     1.0  0.95344  0.17414  0.65290  1.0000
  H   H5715     1.0  0.94715  0.14550  0.67182  1.0000
  H   H5716     1.0  0.92520  0.14009  0.67540  1.0000
  H   H5717     1.0  0.93216  0.16779  0.68747  1.0000
  H   H5718     1.0  0.80696  0.46837  0.76942  1.0000
  N   N238      1.0  0.79697  0.98228  0.63353  1.0000
  H   H5719     1.0  0.89865  0.14903  0.63498  1.0000
  H   H5720     1.0  0.90657  0.13829  0.65589  1.0000
  H   H5721     1.0  0.89166  0.16079  0.65364  1.0000
  H   H5722     1.0  0.96778  0.23362  0.88069  1.0000
  H   H5723     1.0  0.96514  0.23995  0.51350  1.0000
  C   C3351     1.0  0.95682  0.47192  0.62385  1.0000
  Fe  Fe492     1.0  0.97145  0.42107  0.58011  1.0000
  H   H5724     1.0  0.94896  0.13100  0.63956  1.0000
  H   H5725     1.0  0.93647  0.11745  0.65915  1.0000
  N   N239      1.0  0.82439  0.13096  0.73339  1.0000
  H   H5726     1.0  0.94768  0.44689  0.61051  1.0000
  H   H5727     1.0  0.82439  0.11406  0.76078  1.0000
  C   C3352     1.0  0.83464  0.11439  0.72519  1.0000
  C   C3353     1.0  0.83812  0.14230  0.73296  1.0000
  H   H5728     1.0  0.84411  0.11843  0.71195  1.0000
  H   H5729     1.0  0.80077  0.18610  0.93977  1.0000
  C   C3354     1.0  0.82260  0.10262  0.72177  1.0000
  C   C3355     1.0  0.85248  0.13321  0.74525  1.0000
  C   C3356     1.0  0.81467  0.12435  0.75281  1.0000
  H   H5730     1.0  0.97075  0.03325  0.70467  1.0000
  H   H5731     1.0  0.91295  0.18651  0.68880  1.0000
  H   H5732     1.0  0.93298  0.29105  0.95439  1.0000
  H   H5733     1.0  0.91064  0.37609  0.52118  1.0000
  H   H5734     1.0  0.84379  0.10485  0.73423  1.0000
  H   H5735     1.0  0.84625  0.14579  0.71874  1.0000
  H   H5736     1.0  0.83095  0.15576  0.73674  1.0000
  S   S968      1.0  0.87772  0.27620  0.94732  1.0000
  H   H5737     1.0  0.81805  0.41533  0.62792  1.0000
  H   H5738     1.0  0.88568  0.40494  0.48832  1.0000
  H   H5739     1.0  0.80450  0.14924  0.57353  1.0000
  H   H5740     1.0  0.94425  0.30244  0.58413  1.0000
  H   H5741     1.0  0.90317  0.33673  0.48462  1.0000
  H   H5742     1.0  0.94041  0.13008  0.80517  1.0000
  H   H5743     1.0  0.81368  0.11045  0.71190  1.0000
  H   H5744     1.0  0.98104  0.46241  0.50762  1.0000
  H   H5745     1.0  0.84600  0.13075  0.76008  1.0000
  H   H5746     1.0  0.86213  0.14262  0.74316  1.0000
  H   H5747     1.0  0.86103  0.12020  0.74152  1.0000
  H   H5748     1.0  0.85644  0.33747  0.84843  1.0000
  S   S969      1.0  0.81455  0.07735  0.67491  1.0000
  H   H5749     1.0  0.82452  0.13809  0.69476  1.0000
  S   S970      1.0  0.94535  0.02183  0.66374  1.0000
  H   H5750     1.0  0.97218  0.16507  0.89514  1.0000
  H   H5751     1.0  0.93015  0.44019  0.65205  1.0000
  S   S971      1.0  0.95174  0.97832  0.64448  1.0000
  H   H5752     1.0  0.80847  0.26525  0.59031  1.0000
  C   C3357     1.0  0.81284  0.27619  0.55954  1.0000
  C   C3358     1.0  0.87443  0.42496  0.58986  1.0000
  H   H5753     1.0  0.86842  0.37872  0.47845  1.0000
  Fe  Fe493     1.0  0.94388  0.44352  0.55651  1.0000
  H   H5754     1.0  0.88290  0.24364  0.93239  1.0000
  C   C3359     1.0  0.93055  0.05748  0.69805  1.0000
  C   C3360     1.0  0.85901  0.28578  0.49828  1.0000
  H   H5755     1.0  0.92684  0.07215  0.69670  1.0000
  H   H5756     1.0  0.91892  0.30803  0.94003  1.0000
  C   C3361     1.0  0.93476  0.04986  0.68233  1.0000
  H   H5757     1.0  0.79713  0.46303  0.81600  1.0000
  H   H5758     1.0  0.96512  0.28247  0.94788  1.0000
  H   H5759     1.0  0.93816  0.33385  0.52690  1.0000
  C   C3362     1.0  0.93921  0.03078  0.68385  1.0000
  H   H5760     1.0  0.88044  0.24493  0.53299  1.0000
  C   C3363     1.0  0.97687  0.17131  0.67615  1.0000
  C   C3364     1.0  0.83172  0.21535  0.95292  1.0000
  C   C3365     1.0  0.90176  0.46896  0.57379  1.0000
  H   H5761     1.0  0.93366  0.19013  0.67261  1.0000
  C   C3366     1.0  0.80731  0.30656  0.56822  1.0000
  C   C3367     1.0  0.95127  0.35527  0.50852  1.0000
  H   H5762     1.0  0.90959  0.15283  0.80597  1.0000
  S   S972      1.0  0.94280  0.41901  0.57963  1.0000
  C   C3368     1.0  0.79841  0.16994  0.50534  1.0000
  H   H5763     1.0  0.81815  0.99727  0.63247  1.0000
  H   H5764     1.0  0.91081  0.19555  0.89486  1.0000
  C   C3369     1.0  0.78579  0.17915  0.96749  1.0000
  C   C3370     1.0  0.95644  0.29794  0.57364  1.0000
  H   H5765     1.0  0.87858  0.04262  0.71191  1.0000
  S   S973      1.0  0.84583  0.23850  0.53141  1.0000
  N   N240      1.0  0.82166  0.29125  0.56091  1.0000
  C   C3371     1.0  0.83118  0.29940  0.54185  1.0000
  C   C3372     1.0  0.83619  0.28443  0.57257  1.0000
  C   C3373     1.0  0.84008  0.47077  0.70166  1.0000
  H   H5766     1.0  0.97943  0.05618  0.87617  1.0000
  C   C3374     1.0  0.81873  0.30856  0.52765  1.0000
  C   C3375     1.0  0.85247  0.26940  0.56608  1.0000
  S   S974      1.0  0.98473  0.40213  0.56041  1.0000
  C   C3376     1.0  0.81794  0.16589  0.95663  1.0000
  H   H5767     1.0  0.83881  0.30983  0.54243  1.0000
  H   H5768     1.0  0.84180  0.28866  0.53566  1.0000
  H   H5769     1.0  0.83041  0.27894  0.58710  1.0000
  H   H5770     1.0  0.84216  0.29608  0.57322  1.0000
  C   C3377     1.0  0.79764  0.24203  0.94786  1.0000
  H   H5771     1.0  0.95434  0.19941  0.84063  1.0000
  C   C3378     1.0  0.78943  0.19290  0.85736  1.0000
  H   H5772     1.0  0.82187  0.26841  0.54898  1.0000
  H   H5773     1.0  0.81030  0.29923  0.52638  1.0000
  H   H5774     1.0  0.92619  0.22394  0.86154  1.0000
  H   H5775     1.0  0.82761  0.31213  0.51389  1.0000
  H   H5776     1.0  0.86039  0.26303  0.57721  1.0000
  H   H5777     1.0  0.84787  0.25823  0.56270  1.0000
  H   H5778     1.0  0.86226  0.27533  0.55399  1.0000
  H   H5779     1.0  0.85566  0.30681  0.86112  1.0000
  C   C3379     1.0  0.96827  0.18013  0.89474  1.0000
  S   S975      1.0  0.80752  0.12165  0.67396  1.0000
  H   H5780     1.0  0.83230  0.42384  0.63832  1.0000
  H   H5781     1.0  0.86444  0.05552  0.68520  1.0000
  H   H5782     1.0  0.90910  0.99914  0.65112  1.0000
  N   N241      1.0  0.88501  0.14720  0.82634  1.0000
  C   C3380     1.0  0.89280  0.13993  0.84366  1.0000
  C   C3381     1.0  0.86540  0.15719  0.83192  1.0000
  C   C3382     1.0  0.89657  0.16042  0.81339  1.0000
  C   C3383     1.0  0.88617  0.13105  0.81793  1.0000
  C   C3384     1.0  0.91371  0.13164  0.84099  1.0000
  C   C3385     1.0  0.85208  0.14536  0.84538  1.0000
  C   C3386     1.0  0.88750  0.17510  0.79871  1.0000
  C   C3387     1.0  0.87701  0.13477  0.80122  1.0000
  H   H5783     1.0  0.89016  0.15097  0.85161  1.0000
  H   H5784     1.0  0.88582  0.12893  0.85306  1.0000
  H   H5785     1.0  0.85884  0.16393  0.81993  1.0000
  H   H5786     1.0  0.86526  0.16874  0.83841  1.0000
  C   C3388     1.0  0.93902  0.01928  0.70123  1.0000
  H   H5787     1.0  0.94248  0.39570  0.91752  1.0000
  C   C3389     1.0  0.89576  0.35076  0.47925  1.0000
  H   H5788     1.0  0.85854  0.01707  0.66306  1.0000
  H   H5789     1.0  0.95570  0.35194  0.91278  1.0000
  H   H5790     1.0  0.96946  0.18335  0.68171  1.0000
  C   C3390     1.0  0.93499  0.02696  0.71698  1.0000
  C   C3391     1.0  0.94305  0.34620  0.52570  1.0000
  C   C3392     1.0  0.96384  0.12759  0.76159  1.0000
  Fe  Fe494     1.0  0.95306  0.11452  0.71050  1.0000
  H   H5791     1.0  0.93511  0.23420  0.88458  1.0000
  H   H5792     1.0  0.96341  0.24197  0.57779  1.0000
  H   H5793     1.0  0.83540  0.45120  0.74579  1.0000
  H   H5794     1.0  0.96120  0.39026  0.52211  1.0000
  H   H5795     1.0  0.81142  0.31870  0.84687  1.0000
  S   S976      1.0  0.92836  0.05550  0.73485  1.0000
  H   H5796     1.0  0.89662  0.27080  0.51819  1.0000
  C   C3393     1.0  0.95599  0.37808  0.52311  1.0000
  H   H5797     1.0  0.85053  0.33960  0.51711  1.0000
  S   S977      1.0  0.89958  0.35852  0.91623  1.0000
  H   H5798     1.0  0.96746  0.30997  0.92103  1.0000
  C   C3394     1.0  0.95764  0.37130  0.50723  1.0000
  H   H5799     1.0  0.85389  0.32979  0.88066  1.0000
  S   S978      1.0  0.95511  0.42679  0.53435  1.0000
  C   C3395     1.0  0.87667  0.37986  0.48808  1.0000
  H   H5800     1.0  0.78723  0.29212  0.58903  1.0000
  H   H5801     1.0  0.82621  0.18883  0.48360  1.0000
  C   C3396     1.0  0.94274  0.43539  0.86514  1.0000
  H   H5802     1.0  0.80513  0.43535  0.59103  1.0000
  C   C3397     1.0  0.91055  0.20936  0.88581  1.0000
  H   H5803     1.0  0.97617  0.29574  0.53898  1.0000
  H   H5804     1.0  0.93450  0.34617  0.55472  1.0000
  H   H5805     1.0  0.93529  0.01805  0.73037  1.0000
  C   C3398     1.0  0.80478  0.13938  0.76412  1.0000
  H   H5806     1.0  0.85306  0.29715  0.48853  1.0000
  S   S979      1.0  0.94085  0.39395  0.95591  1.0000
  S   S980      1.0  0.92487  0.30815  0.51635  1.0000
  C   C3399     1.0  0.91436  0.37583  0.95523  1.0000
  C   C3400     1.0  0.80146  0.17778  0.95326  1.0000
  H   H5807     1.0  0.94035  0.42364  0.63775  1.0000
  C   C3401     1.0  0.78764  0.99496  0.61855  1.0000
  H   H5808     1.0  0.81400  0.09640  0.73467  1.0000
  H   H5809     1.0  0.95026  0.08190  0.89188  1.0000
  S   S981      1.0  0.81341  0.34420  0.92303  1.0000
  C   C3402     1.0  0.95502  0.98957  0.79604  1.0000
  H   H5810     1.0  0.96352  0.06388  0.70555  1.0000
  N   N242      1.0  0.82631  0.31829  0.86771  1.0000
  H   H5811     1.0  0.97791  0.20093  0.83696  1.0000
  H   H5812     1.0  0.80386  0.11693  0.75281  1.0000
  H   H5813     1.0  0.88632  0.07062  0.63357  1.0000
  H   H5814     1.0  0.95684  0.16019  0.61771  1.0000
  S   S982      1.0  0.92758  0.97600  0.68705  1.0000
  C   C3403     1.0  0.82456  0.46110  0.57219  1.0000
  S   S983      1.0  0.91948  0.46719  0.55411  1.0000
  C   C3404     1.0  0.96988  0.31131  0.56927  1.0000
  C   C3405     1.0  0.95902  0.44533  0.85592  1.0000
  C   C3406     1.0  0.79532  0.15154  0.60205  1.0000
  H   H5815     1.0  0.84400  0.03453  0.67563  1.0000
  H   H5816     1.0  0.97991  0.18573  0.88516  1.0000
  H   H5817     1.0  0.96957  0.18307  0.85463  1.0000
  H   H5818     1.0  0.81247  0.98251  0.65348  1.0000
  H   H5819     1.0  0.96987  0.06105  0.90691  1.0000
  H   H5820     1.0  0.90183  0.39172  0.47250  1.0000
  H   H5821     1.0  0.96204  0.12560  0.74873  1.0000
  H   H5822     1.0  0.78738  0.21679  0.81612  1.0000
  H   H5823     1.0  0.81821  0.28593  0.84680  1.0000
  S   S984      1.0  0.79791  0.23186  0.55557  1.0000
  H   H5824     1.0  0.96732  0.18245  0.90871  1.0000
  H   H5825     1.0  0.95472  0.43638  0.64225  1.0000
  H   H5826     1.0  0.97199  0.17170  0.62273  1.0000
  H   H5827     1.0  0.97028  0.19806  0.49982  1.0000
  N   N243      1.0  0.98349  0.21330  0.51126  1.0000
  H   H5828     1.0  0.78539  0.15661  0.48203  1.0000
  H   H5829     1.0  0.95108  0.29816  0.56139  1.0000
  C   C3407     1.0  0.84425  0.30797  0.87336  1.0000
  H   H5830     1.0  0.86639  0.38458  0.49999  1.0000
  H   H5831     1.0  0.97890  0.07579  0.91519  1.0000
  H   H5832     1.0  0.96410  0.44803  0.86710  1.0000
  H   H5833     1.0  0.92988  0.44486  0.86999  1.0000
  H   H5834     1.0  0.86366  0.30677  0.89028  1.0000
  H   H5835     1.0  0.96400  0.37839  0.49396  1.0000
  C   C3408     1.0  0.95481  0.33790  0.91216  1.0000
  H   H5836     1.0  0.88602  0.41778  0.59701  1.0000
  H   H5837     1.0  0.96134  0.44503  0.82121  1.0000
  C   C3409     1.0  0.90370  0.45727  0.59069  1.0000
  H   H5838     1.0  0.97192  0.42206  0.48817  1.0000
  C   C3410     1.0  0.95028  0.45635  0.82608  1.0000
  Fe  Fe495     1.0  0.98290  0.42791  0.53851  1.0000
  C   C3411     1.0  0.78698  0.17554  0.82998  1.0000
  C   C3412     1.0  0.93705  0.31936  0.95013  1.0000
  S   S985      1.0  0.97177  0.44696  0.55850  1.0000
  H   H5839     1.0  0.94836  0.35128  0.94292  1.0000
  C   C3413     1.0  0.80031  0.00491  0.60209  1.0000
  C   C3414     1.0  0.79165  0.40028  0.91940  1.0000
  C   C3415     1.0  0.82239  0.46070  0.74278  1.0000
  H   H5840     1.0  0.97302  0.02970  0.73469  1.0000
  H   H5841     1.0  0.85749  0.21625  0.96057  1.0000
  C   C3416     1.0  0.94079  0.43740  0.63972  1.0000
  H   H5842     1.0  0.80645  0.41434  0.93173  1.0000
  C   C3417     1.0  0.97884  0.20886  0.49504  1.0000
  H   H5843     1.0  0.96834  0.99331  0.84280  1.0000
  H   H5844     1.0  0.94243  0.99085  0.80711  1.0000
  H   H5845     1.0  0.85441  0.46868  0.72303  1.0000
  C   C3418     1.0  0.82082  0.29006  0.85866  1.0000
  H   H5846     1.0  0.92771  0.33234  0.94506  1.0000
  H   H5847     1.0  0.94639  0.42495  0.87735  1.0000
  C   C3419     1.0  0.81784  0.19476  0.47282  1.0000
  H   H5848     1.0  0.92870  0.47061  0.65176  1.0000
  H   H5849     1.0  0.86054  0.20552  0.94157  1.0000
  H   H5850     1.0  0.96957  0.14968  0.63623  1.0000
  C   C3420     1.0  0.97398  0.15378  0.68592  1.0000
  H   H5851     1.0  0.78754  0.31694  0.87189  1.0000
  H   H5852     1.0  0.95495  0.22205  0.48196  1.0000
  H   H5853     1.0  0.80027  0.39748  0.90605  1.0000
  H   H5854     1.0  0.79165  0.01486  0.59284  1.0000
  C   C3421     1.0  0.97702  0.98321  0.81729  1.0000
  H   H5855     1.0  0.81148  0.46530  0.58166  1.0000
  H   H5856     1.0  0.79606  0.42918  0.88006  1.0000
  N   N244      1.0  0.95686  0.32172  0.94572  1.0000
  H   H5857     1.0  0.79445  0.20649  0.49131  1.0000
  H   H5858     1.0  0.95120  0.98437  0.78547  1.0000
  C   C3422     1.0  0.97424  0.07418  0.67731  1.0000
  H   H5859     1.0  0.79301  0.14868  0.75839  1.0000
  H   H5860     1.0  0.79884  0.13269  0.77829  1.0000
  S   S986      1.0  0.78992  0.20600  0.87300  1.0000
  H   H5861     1.0  0.78877  0.33924  0.87510  1.0000
  H   H5862     1.0  0.80113  0.10042  0.58532  1.0000
  H   H5863     1.0  0.96907  0.08924  0.67565  1.0000
  C   C3423     1.0  0.79696  0.19769  0.48109  1.0000
  C   C3424     1.0  0.78755  0.09959  0.59478  1.0000
  S   S987      1.0  0.79623  0.26375  0.51746  1.0000
  H   H5864     1.0  0.78836  0.00353  0.66590  1.0000
  C   C3425     1.0  0.98331  0.30713  0.53776  1.0000
  C   C3426     1.0  0.97721  0.06631  0.69720  1.0000
  C   C3427     1.0  0.93289  0.30370  0.94345  1.0000
  H   H5865     1.0  0.81800  0.24824  0.57616  1.0000
  H   H5866     1.0  0.97950  0.07757  0.70260  1.0000
  H   H5867     1.0  0.96632  0.05401  0.73517  1.0000
  H   H5868     1.0  0.94217  0.30035  0.93066  1.0000
  N   N245      1.0  0.97088  0.97624  0.80349  1.0000
  C   C3428     1.0  0.79127  0.15240  0.51653  1.0000
  H   H5869     1.0  0.78981  0.20638  0.47004  1.0000
  H   H5870     1.0  0.94124  0.46586  0.79987  1.0000
  C   C3429     1.0  0.97646  0.09211  0.88111  1.0000
  H   H5871     1.0  0.85320  0.47033  0.69124  1.0000
  S   S988      1.0  0.97869  0.41558  0.60808  1.0000
  H   H5872     1.0  0.97255  0.31221  0.58265  1.0000
  C   C3430     1.0  0.97597  0.28817  0.95042  1.0000
  H   H5873     1.0  0.97888  0.34643  0.55691  1.0000
  C   C3431     1.0  0.98335  0.97728  0.88225  1.0000
  H   H5874     1.0  0.98214  0.99617  0.81102  1.0000
  C   C3432     1.0  0.97790  0.04198  0.73527  1.0000
  H   H5875     1.0  0.98242  0.10059  0.86797  1.0000
  H   H5876     1.0  0.78840  0.22081  0.79206  1.0000
  H   H5877     1.0  0.98305  0.46708  0.85871  1.0000
  H   H5878     1.0  0.98145  0.01767  0.67969  1.0000
  H   H5879     1.0  0.98086  0.31096  0.95837  1.0000
  C   C3433     1.0  0.82794  0.25052  0.96725  1.0000
  H   H5880     1.0  0.93171  0.31685  0.96527  1.0000
  H   H5881     1.0  0.78553  0.38220  0.87206  1.0000
  H   H5882     1.0  0.82750  0.47376  0.56209  1.0000
  H   H5883     1.0  0.98195  0.03924  0.74879  1.0000
  H   H5884     1.0  0.98246  0.27780  0.96116  1.0000
  C   C3434     1.0  0.98346  0.13296  0.77952  1.0000
  H   H5885     1.0  0.78582  0.38765  0.92558  1.0000
  S   S989      1.0  0.78549  0.16623  0.81173  1.0000
  H   H5886     1.0  0.92582  0.47354  0.84823  1.0000
  H   H5887     1.0  0.98502  0.26594  0.52194  1.0000
  C   C3435     1.0  0.78519  0.16296  0.61430  1.0000
  H   H5888     1.0  0.82349  0.97460  0.61557  1.0000
  H   H5889     1.0  0.95021  0.47418  0.87379  1.0000
  Fe  Fe496     1.0  0.86824  0.84745  0.45238  1.0000
  S   S990      1.0  0.96408  0.64576  0.33163  1.0000
  H   H5890     1.0  0.91956  0.94616  0.15352  1.0000
  C   C3436     1.0  0.91796  0.96148  0.07065  1.0000
  S   S991      1.0  0.96170  0.84970  0.46733  1.0000
  H   H5891     1.0  0.81438  0.66669  0.11666  1.0000
  H   H5892     1.0  0.91150  0.96922  0.18108  1.0000
  H   H5893     1.0  0.88614  0.91399  0.11139  1.0000
  Fe  Fe497     1.0  0.96876  0.67270  0.33424  1.0000
  S   S992      1.0  0.94734  0.69792  0.33968  1.0000
  C   C3437     1.0  0.94856  0.61650  0.14687  1.0000
  S   S993      1.0  0.79919  0.74622  0.38108  1.0000
  S   S994      1.0  0.95116  0.50362  0.15733  1.0000
  Fe  Fe498     1.0  0.81352  0.73864  0.01505  1.0000
  S   S995      1.0  0.84383  0.73096  0.01617  1.0000
  H   H5894     1.0  0.81486  0.94948  0.38977  1.0000
  S   S996      1.0  0.93115  0.81370  0.98795  1.0000
  H   H5895     1.0  0.86301  0.53565  0.14619  1.0000
  Fe  Fe499     1.0  0.94672  0.76743  0.01936  1.0000
  S   S997      1.0  0.92182  0.78808  0.02894  1.0000
  S   S998      1.0  0.95370  0.74056  0.03894  1.0000
  Fe  Fe500     1.0  0.91524  0.79122  0.00129  1.0000
  S   S999      1.0  0.88672  0.79660  0.99521  1.0000
  Fe  Fe501     1.0  0.93978  0.80880  0.01490  1.0000
  S   S1000     1.0  0.93712  0.83202  0.02920  1.0000
  S   S1001     1.0  0.93846  0.76862  0.99287  1.0000
  S   S1002     1.0  0.96528  0.78796  0.00731  1.0000
  Fe  Fe502     1.0  0.92815  0.56943  0.22222  1.0000
  S   S1003     1.0  0.93215  0.58741  0.19415  1.0000
  S   S1004     1.0  0.92590  0.53963  0.22753  1.0000
  Fe  Fe503     1.0  0.92702  0.60011  0.24119  1.0000
  S   S1005     1.0  0.93113  0.62073  0.21466  1.0000
  S   S1006     1.0  0.92230  0.60726  0.26909  1.0000
  Fe  Fe504     1.0  0.91078  0.60886  0.20690  1.0000
  S   S1007     1.0  0.88985  0.62755  0.19081  1.0000
  Fe  Fe505     1.0  0.95228  0.59774  0.20396  1.0000
  H   H5896     1.0  0.81026  0.70617  0.12236  1.0000
  S   S1008     1.0  0.90475  0.59009  0.23434  1.0000
  S   S1009     1.0  0.95002  0.57793  0.23123  1.0000
  Fe  Fe506     1.0  0.84396  0.70952  0.38345  1.0000
  S   S1010     1.0  0.84224  0.73444  0.36054  1.0000
  S   S1011     1.0  0.86833  0.68584  0.38537  1.0000
  H   H5897     1.0  0.95432  0.90796  0.99655  1.0000
  C   C3438     1.0  0.89684  0.54315  0.18151  1.0000
  H   H5898     1.0  0.98433  0.51358  0.23983  1.0000
  S   S1012     1.0  0.85241  0.78631  0.45504  1.0000
  Fe  Fe507     1.0  0.82679  0.74992  0.38303  1.0000
  S   S1013     1.0  0.82746  0.77879  0.38475  1.0000
  S   S1014     1.0  0.81739  0.70248  0.38238  1.0000
  S   S1015     1.0  0.83091  0.72547  0.40597  1.0000
  H   H5899     1.0  0.86324  0.63279  0.23337  1.0000
  H   H5900     1.0  0.98008  0.63019  0.24834  1.0000
  H   H5901     1.0  0.80252  0.64349  0.26825  1.0000
  S   S1016     1.0  0.85452  0.95332  0.13004  1.0000
  C   C3439     1.0  0.83382  0.71245  0.46078  1.0000
  Fe  Fe508     1.0  0.82795  0.95226  0.12324  1.0000
  S   S1017     1.0  0.82123  0.92436  0.12664  1.0000
  N   N246      1.0  0.87285  0.92088  0.07398  1.0000
  H   H5902     1.0  0.90815  0.54191  0.13562  1.0000
  H   H5903     1.0  0.91272  0.65006  0.31107  1.0000
  H   H5904     1.0  0.96230  0.73287  0.31541  1.0000
  S   S1018     1.0  0.83663  0.58553  0.17355  1.0000
  H   H5905     1.0  0.82841  0.93742  0.40661  1.0000
  H   H5906     1.0  0.91156  0.53854  0.18256  1.0000
  H   H5907     1.0  0.91506  0.81765  0.43956  1.0000
  H   H5908     1.0  0.91783  0.97290  0.05899  1.0000
  H   H5909     1.0  0.79092  0.81393  0.32493  1.0000
  H   H5910     1.0  0.82305  0.49341  0.10450  1.0000
  C   C3440     1.0  0.80705  0.54330  0.12385  1.0000
  H   H5911     1.0  0.79031  0.87538  0.32779  1.0000
  H   H5912     1.0  0.89641  0.92273  0.05127  1.0000
  H   H5913     1.0  0.80297  0.75266  0.42711  1.0000
  C   C3441     1.0  0.81745  0.68070  0.11275  1.0000
  H   H5914     1.0  0.88024  0.54853  0.13180  1.0000
  H   H5915     1.0  0.87787  0.95329  0.15660  1.0000
  C   C3442     1.0  0.95516  0.57545  0.30638  1.0000
  H   H5916     1.0  0.93203  0.96241  0.16438  1.0000
  C   C3443     1.0  0.79311  0.50103  0.11502  1.0000
  S   S1019     1.0  0.80193  0.87561  0.45416  1.0000
  H   H5917     1.0  0.85829  0.56044  0.14069  1.0000
  S   S1020     1.0  0.84869  0.84125  0.43827  1.0000
  H   H5918     1.0  0.90922  0.77137  0.97133  1.0000
  C   C3444     1.0  0.87474  0.54879  0.16173  1.0000
  C   C3445     1.0  0.80299  0.93693  0.09778  1.0000
  H   H5919     1.0  0.80883  0.83032  0.37987  1.0000
  H   H5920     1.0  0.81769  0.52443  0.10562  1.0000
  S   S1021     1.0  0.79404  0.74666  0.04032  1.0000
  C   C3446     1.0  0.80433  0.67544  0.46239  1.0000
  C   C3447     1.0  0.80370  0.67046  0.07151  1.0000
  H   H5921     1.0  0.94490  0.77624  0.06347  1.0000
  H   H5922     1.0  0.98130  0.48516  0.25807  1.0000
  H   H5923     1.0  0.98234  0.71010  0.01924  1.0000
  C   C3448     1.0  0.80176  0.86209  0.42426  1.0000
  H   H5924     1.0  0.88097  0.95519  0.04928  1.0000
  H   H5925     1.0  0.84241  0.88901  0.35863  1.0000
  C   C3449     1.0  0.96651  0.63441  0.27567  1.0000
  H   H5926     1.0  0.80917  0.84916  0.43084  1.0000
  H   H5927     1.0  0.81692  0.68645  0.09806  1.0000
  H   H5928     1.0  0.90686  0.51095  0.17518  1.0000
  C   C3450     1.0  0.91839  0.93202  0.10067  1.0000
  H   H5929     1.0  0.89963  0.49495  0.15444  1.0000
  H   H5930     1.0  0.90822  0.73991  0.98357  1.0000
  H   H5931     1.0  0.81852  0.76305  0.45671  1.0000
  C   C3451     1.0  0.80807  0.92224  0.11176  1.0000
  H   H5932     1.0  0.83285  0.93918  0.27614  1.0000
  H   H5933     1.0  0.79028  0.70806  0.97313  1.0000
  H   H5934     1.0  0.78564  0.52896  0.07905  1.0000
  C   C3452     1.0  0.96107  0.65200  0.13347  1.0000
  H   H5935     1.0  0.81299  0.72285  0.44493  1.0000
  H   H5936     1.0  0.88739  0.95975  0.17283  1.0000
  C   C3453     1.0  0.79315  0.68634  0.06254  1.0000
  H   H5937     1.0  0.94682  0.60358  0.15701  1.0000
  S   S1022     1.0  0.80530  0.59589  0.13718  1.0000
  C   C3454     1.0  0.90746  0.95386  0.14748  1.0000
  H   H5938     1.0  0.94985  0.66809  0.15990  1.0000
  H   H5939     1.0  0.83022  0.76639  0.04997  1.0000
  C   C3455     1.0  0.83442  0.78069  0.40437  1.0000
  C   C3456     1.0  0.84530  0.76578  0.41402  1.0000
  C   C3457     1.0  0.85090  0.76767  0.42947  1.0000
  C   C3458     1.0  0.84570  0.78450  0.43531  1.0000
  C   C3459     1.0  0.83477  0.79940  0.42572  1.0000
  C   C3460     1.0  0.82913  0.79746  0.41034  1.0000
  H   H5940     1.0  0.84979  0.75291  0.40935  1.0000
  H   H5941     1.0  0.78882  0.68608  0.00639  1.0000
  H   H5942     1.0  0.83049  0.81235  0.43028  1.0000
  H   H5943     1.0  0.82044  0.80893  0.40325  1.0000
  C   C3461     1.0  0.90711  0.90372  0.07341  1.0000
  H   H5944     1.0  0.95773  0.78091  0.43527  1.0000
  H   H5945     1.0  0.82920  0.81909  0.36587  1.0000
  H   H5946     1.0  0.92856  0.79500  0.44018  1.0000
  H   H5947     1.0  0.79993  0.69569  0.05132  1.0000
  H   H5948     1.0  0.96493  0.63482  0.19640  1.0000
  H   H5949     1.0  0.95244  0.48540  0.26492  1.0000
  H   H5950     1.0  0.89377  0.55823  0.18090  1.0000
  C   C3462     1.0  0.85116  0.96864  0.30699  1.0000
  H   H5951     1.0  0.78556  0.69689  0.16236  1.0000
  Fe  Fe509     1.0  0.98425  0.86472  0.45054  1.0000
  H   H5952     1.0  0.88900  0.74891  0.97244  1.0000
  H   H5953     1.0  0.95208  0.81308  0.46384  1.0000
  H   H5954     1.0  0.80419  0.71981  0.09356  1.0000
  C   C3463     1.0  0.85562  0.74930  0.01063  1.0000
  C   C3464     1.0  0.87310  0.74634  0.01490  1.0000
  C   C3465     1.0  0.88279  0.76080  0.01036  1.0000
  C   C3466     1.0  0.87513  0.77816  0.00122  1.0000
  C   C3467     1.0  0.85772  0.78109  0.99689  1.0000
  C   C3468     1.0  0.84791  0.76677  0.00175  1.0000
  H   H5955     1.0  0.87913  0.73284  0.02177  1.0000
  H   H5956     1.0  0.89621  0.75845  0.01379  1.0000
  H   H5957     1.0  0.85177  0.79448  0.98974  1.0000
  H   H5958     1.0  0.83453  0.76921  0.99834  1.0000
  C   C3469     1.0  0.85196  0.59723  0.17739  1.0000
  C   C3470     1.0  0.86370  0.58804  0.18968  1.0000
  C   C3471     1.0  0.87568  0.59715  0.19353  1.0000
  C   C3472     1.0  0.87579  0.61560  0.18527  1.0000
  C   C3473     1.0  0.86414  0.62480  0.17288  1.0000
  C   C3474     1.0  0.85233  0.61558  0.16884  1.0000
  H   H5959     1.0  0.86320  0.57397  0.19658  1.0000
  H   H5960     1.0  0.88457  0.58999  0.20318  1.0000
  H   H5961     1.0  0.86425  0.63906  0.16641  1.0000
  S   S1023     1.0  0.83121  0.94508  0.33291  1.0000
  S   S1024     1.0  0.80904  0.63985  0.09850  1.0000
  H   H5962     1.0  0.92584  0.80696  0.45864  1.0000
  C   C3475     1.0  0.94599  0.51244  0.17751  1.0000
  C   C3476     1.0  0.93632  0.50354  0.19401  1.0000
  C   C3477     1.0  0.93033  0.51192  0.20936  1.0000
  C   C3478     1.0  0.93443  0.52900  0.20845  1.0000
  C   C3479     1.0  0.94499  0.53742  0.19226  1.0000
  C   C3480     1.0  0.95058  0.52925  0.17676  1.0000
  H   H5963     1.0  0.92217  0.50534  0.22184  1.0000
  H   H5964     1.0  0.94870  0.55031  0.19159  1.0000
  H   H5965     1.0  0.95824  0.53611  0.16409  1.0000
  C   C3481     1.0  0.80986  0.49579  0.09982  1.0000
  C   C3482     1.0  0.78652  0.89380  0.42447  1.0000
  C   C3483     1.0  0.92575  0.69462  0.35339  1.0000
  C   C3484     1.0  0.91085  0.70962  0.35383  1.0000
  C   C3485     1.0  0.89319  0.70715  0.36382  1.0000
  C   C3486     1.0  0.89042  0.68967  0.37356  1.0000
  C   C3487     1.0  0.90542  0.67474  0.37339  1.0000
  C   C3488     1.0  0.92306  0.67718  0.36330  1.0000
  H   H5966     1.0  0.91289  0.72315  0.34621  1.0000
  H   H5967     1.0  0.88174  0.71875  0.36398  1.0000
  H   H5968     1.0  0.90335  0.66121  0.38100  1.0000
  H   H5969     1.0  0.93453  0.66558  0.36314  1.0000
  C   C3489     1.0  0.93920  0.61799  0.27134  1.0000
  C   C3490     1.0  0.95456  0.62029  0.25718  1.0000
  H   H5970     1.0  0.98293  0.48290  0.19318  1.0000
  H   H5971     1.0  0.98238  0.81258  0.09742  1.0000
  C   C3491     1.0  0.95104  0.63229  0.28981  1.0000
  C   C3492     1.0  0.93742  0.62404  0.28764  1.0000
  H   H5972     1.0  0.95603  0.61566  0.24457  1.0000
  Fe  Fe510     1.0  0.81237  0.60257  0.16113  1.0000
  H   H5973     1.0  0.94965  0.63689  0.30240  1.0000
  H   H5974     1.0  0.92558  0.62211  0.29863  1.0000
  C   C3493     1.0  0.90886  0.56602  0.14448  1.0000
  Fe  Fe511     1.0  0.80201  0.94038  0.33940  1.0000
  C   C3494     1.0  0.91060  0.84920  0.46187  1.0000
  H   H5975     1.0  0.79507  0.48990  0.12734  1.0000
  S   S1025     1.0  0.80080  0.76235  0.99528  1.0000
  H   H5976     1.0  0.90695  0.89182  0.06770  1.0000
  H   H5977     1.0  0.80057  0.55490  0.11405  1.0000
  C   C3495     1.0  0.90285  0.94633  0.10021  1.0000
  H   H5978     1.0  0.82908  0.83987  0.37237  1.0000
  N   N247      1.0  0.80555  0.73936  0.46582  1.0000
  H   H5979     1.0  0.89117  0.94587  0.11151  1.0000
  H   H5980     1.0  0.83981  0.83627  0.02166  1.0000
  S   S1026     1.0  0.89077  0.86193  0.43433  1.0000
  C   C3496     1.0  0.78929  0.74867  0.45668  1.0000
  H   H5981     1.0  0.94444  0.80054  0.06018  1.0000
  S   S1027     1.0  0.80718  0.63299  0.15035  1.0000
  C   C3497     1.0  0.96262  0.89389  0.99988  1.0000
  C   C3498     1.0  0.79518  0.65861  0.08655  1.0000
  H   H5982     1.0  0.78529  0.72673  0.08199  1.0000
  S   S1028     1.0  0.83123  0.97352  0.09710  1.0000
  H   H5983     1.0  0.96053  0.81282  0.07783  1.0000
  H   H5984     1.0  0.93769  0.49692  0.24862  1.0000
  S   S1029     1.0  0.98437  0.64382  0.27803  1.0000
  H   H5985     1.0  0.79436  0.64393  0.21551  1.0000
  C   C3499     1.0  0.89318  0.92092  0.06657  1.0000
  H   H5986     1.0  0.79823  0.87269  0.30442  1.0000
  C   C3500     1.0  0.96283  0.59383  0.33837  1.0000
  C   C3501     1.0  0.82042  0.83255  0.36821  1.0000
  H   H5987     1.0  0.78856  0.84475  0.31932  1.0000
  N   N248      1.0  0.90877  0.97365  0.13909  1.0000
  H   H5988     1.0  0.95863  0.88952  0.01505  1.0000
  H   H5989     1.0  0.80575  0.66069  0.21692  1.0000
  H   H5990     1.0  0.80649  0.83917  0.04784  1.0000
  C   C3502     1.0  0.84845  0.90045  0.08219  1.0000
  H   H5991     1.0  0.91523  0.50998  0.14292  1.0000
  C   C3503     1.0  0.90857  0.65422  0.14067  1.0000
  H   H5992     1.0  0.84420  0.90191  0.09678  1.0000
  H   H5993     1.0  0.97762  0.81589  0.05772  1.0000
  C   C3504     1.0  0.81396  0.84415  0.35060  1.0000
  H   H5994     1.0  0.97417  0.60777  0.31125  1.0000
  S   S1030     1.0  0.97748  0.90540  0.03749  1.0000
  C   C3505     1.0  0.94425  0.96466  0.12763  1.0000
  H   H5995     1.0  0.81234  0.96434  0.29147  1.0000
  H   H5996     1.0  0.81833  0.63741  0.18670  1.0000
  H   H5997     1.0  0.90732  0.64011  0.14838  1.0000
  H   H5998     1.0  0.94419  0.81940  0.41796  1.0000
  H   H5999     1.0  0.78772  0.51087  0.14928  1.0000
  H   H6000     1.0  0.97173  0.92491  0.97008  1.0000
  H   H6001     1.0  0.96586  0.71793  0.07121  1.0000
  H   H6002     1.0  0.91149  0.65816  0.17512  1.0000
  C   C3506     1.0  0.82759  0.93911  0.39202  1.0000
  H   H6003     1.0  0.89139  0.51624  0.14035  1.0000
  H   H6004     1.0  0.97941  0.66912  0.11457  1.0000
  H   H6005     1.0  0.92128  0.90666  0.06834  1.0000
  H   H6006     1.0  0.92345  0.87735  0.42091  1.0000
  C   C3507     1.0  0.80600  0.97110  0.24682  1.0000
  Fe  Fe512     1.0  0.95501  0.79088  0.98143  1.0000
  C   C3508     1.0  0.78686  0.71517  0.31846  1.0000
  H   H6007     1.0  0.92323  0.96828  0.11219  1.0000
  H   H6008     1.0  0.85706  0.97384  0.20431  1.0000
  C   C3509     1.0  0.94132  0.85488  0.45885  1.0000
  H   H6009     1.0  0.81567  0.95895  0.24201  1.0000
  C   C3510     1.0  0.83692  0.89897  0.42403  1.0000
  H   H6010     1.0  0.94514  0.94982  0.13370  1.0000
  C   C3511     1.0  0.96458  0.95439  0.23811  1.0000
  H   H6011     1.0  0.93152  0.65203  0.18535  1.0000
  C   C3512     1.0  0.93714  0.66618  0.15655  1.0000
  C   C3513     1.0  0.79728  0.86368  0.40719  1.0000
  H   H6012     1.0  0.81339  0.93634  0.26807  1.0000
  C   C3514     1.0  0.86669  0.92602  0.09264  1.0000
  H   H6013     1.0  0.89554  0.57458  0.14141  1.0000
  H   H6014     1.0  0.91246  0.57018  0.15579  1.0000
  N   N249      1.0  0.89126  0.67247  0.32021  1.0000
  C   C3515     1.0  0.87562  0.67409  0.33675  1.0000
  C   C3516     1.0  0.90139  0.65269  0.32287  1.0000
  C   C3517     1.0  0.88274  0.67698  0.30346  1.0000
  C   C3518     1.0  0.90333  0.68586  0.31886  1.0000
  C   C3519     1.0  0.86240  0.69301  0.33643  1.0000
  C   C3520     1.0  0.91003  0.64557  0.34014  1.0000
  C   C3521     1.0  0.89605  0.67513  0.28491  1.0000
  H   H6015     1.0  0.86698  0.66366  0.33886  1.0000
  H   H6016     1.0  0.88103  0.67119  0.34958  1.0000
  C   C3522     1.0  0.95713  0.83887  0.03011  1.0000
  H   H6017     1.0  0.89197  0.64341  0.32354  1.0000
  H   H6018     1.0  0.87246  0.66818  0.30547  1.0000
  H   H6019     1.0  0.87499  0.69144  0.30131  1.0000
  H   H6020     1.0  0.89681  0.70008  0.31284  1.0000
  H   H6021     1.0  0.90434  0.68648  0.33289  1.0000
  H   H6022     1.0  0.85284  0.69281  0.35004  1.0000
  H   H6023     1.0  0.86982  0.70435  0.33426  1.0000
  H   H6024     1.0  0.85353  0.69603  0.32615  1.0000
  H   H6025     1.0  0.87040  0.53916  0.20076  1.0000
  H   H6026     1.0  0.91924  0.63196  0.33926  1.0000
  H   H6027     1.0  0.88775  0.67807  0.27411  1.0000
  H   H6028     1.0  0.87231  0.56349  0.16259  1.0000
  H   H6029     1.0  0.79015  0.65587  0.25018  1.0000
  H   H6030     1.0  0.82683  0.84429  0.33978  1.0000
  C   C3523     1.0  0.98305  0.72106  0.33222  1.0000
  C   C3524     1.0  0.96807  0.78979  0.42863  1.0000
  H   H6031     1.0  0.80913  0.48258  0.09676  1.0000
  H   H6032     1.0  0.80605  0.66057  0.18496  1.0000
  H   H6033     1.0  0.83941  0.94488  0.38280  1.0000
  H   H6034     1.0  0.83859  0.91018  0.07412  1.0000
  C   C3525     1.0  0.95019  0.78662  0.06749  1.0000
  C   C3526     1.0  0.94456  0.81728  0.43278  1.0000
  H   H6035     1.0  0.91969  0.67533  0.18112  1.0000
  H   H6036     1.0  0.87135  0.93873  0.09236  1.0000
  H   H6037     1.0  0.95380  0.56467  0.31898  1.0000
  H   H6038     1.0  0.97098  0.71946  0.34376  1.0000
  C   C3527     1.0  0.80828  0.52447  0.11922  1.0000
  H   H6039     1.0  0.78652  0.89110  0.10510  1.0000
  H   H6040     1.0  0.93322  0.67659  0.31763  1.0000
  H   H6041     1.0  0.81206  0.68873  0.43392  1.0000
  C   C3528     1.0  0.92351  0.68194  0.30801  1.0000
  Fe  Fe513     1.0  0.82662  0.85362  0.45971  1.0000
  H   H6042     1.0  0.81371  0.84420  0.06613  1.0000
  Fe  Fe514     1.0  0.80420  0.72082  0.40274  1.0000
  C   C3529     1.0  0.96816  0.62851  0.25934  1.0000
  C   C3530     1.0  0.80157  0.68875  0.44642  1.0000
  H   H6043     1.0  0.95308  0.96062  0.23062  1.0000
  Fe  Fe515     1.0  0.84939  0.81502  0.45959  1.0000
  H   H6044     1.0  0.85751  0.96410  0.04720  1.0000
  H   H6045     1.0  0.92262  0.53775  0.15137  1.0000
  H   H6046     1.0  0.95838  0.88431  0.99385  1.0000
  N   N250      1.0  0.94182  0.65169  0.14491  1.0000
  H   H6047     1.0  0.97225  0.66581  0.18295  1.0000
  C   C3531     1.0  0.79372  0.76070  0.43723  1.0000
  H   H6048     1.0  0.93379  0.64693  0.12159  1.0000
  C   C3532     1.0  0.92873  0.65594  0.13190  1.0000
  H   H6049     1.0  0.96746  0.79342  0.41378  1.0000
  N   N251      1.0  0.96327  0.80690  0.43658  1.0000
  S   S1031     1.0  0.79715  0.71919  0.01188  1.0000
  H   H6050     1.0  0.95096  0.57022  0.29608  1.0000
  H   H6051     1.0  0.81669  0.61881  0.25388  1.0000
  C   C3533     1.0  0.78609  0.96837  0.24943  1.0000
  H   H6052     1.0  0.90180  0.66431  0.14961  1.0000
  C   C3534     1.0  0.79097  0.80908  0.33982  1.0000
  H   H6053     1.0  0.85398  0.61286  0.23637  1.0000
  C   C3535     1.0  0.94582  0.48350  0.25447  1.0000
  C   C3536     1.0  0.79191  0.93512  0.08650  1.0000
  C   C3537     1.0  0.80439  0.81731  0.34596  1.0000
  H   H6054     1.0  0.83789  0.88389  0.42872  1.0000
  H   H6055     1.0  0.81466  0.86986  0.31839  1.0000
  S   S1032     1.0  0.79892  0.91443  0.33316  1.0000
  C   C3538     1.0  0.80056  0.84650  0.32408  1.0000
  H   H6056     1.0  0.81858  0.66761  0.06708  1.0000
  H   H6057     1.0  0.94039  0.61769  0.13642  1.0000
  H   H6058     1.0  0.82123  0.54533  0.12275  1.0000
  H   H6059     1.0  0.78587  0.95956  0.24000  1.0000
  H   H6060     1.0  0.90063  0.65734  0.12957  1.0000
  C   C3539     1.0  0.98352  0.89426  0.99459  1.0000
  C   C3540     1.0  0.80831  0.60712  0.21715  1.0000
  H   H6061     1.0  0.95739  0.60753  0.34211  1.0000
  C   C3541     1.0  0.97767  0.75819  0.09790  1.0000
  N   N252      1.0  0.84311  0.90578  0.38843  1.0000
  C   C3542     1.0  0.85783  0.91076  0.37182  1.0000
  C   C3543     1.0  0.82624  0.92099  0.38763  1.0000
  C   C3544     1.0  0.83789  0.88804  0.38856  1.0000
  C   C3545     1.0  0.85048  0.90338  0.40555  1.0000
  C   C3546     1.0  0.87544  0.89581  0.36879  1.0000
  C   C3547     1.0  0.89023  0.95088  0.16264  1.0000
  C   C3548     1.0  0.83147  0.88744  0.37120  1.0000
  C   C3549     1.0  0.97273  0.51390  0.23338  1.0000
  H   H6062     1.0  0.85227  0.91480  0.35894  1.0000
  H   H6063     1.0  0.86248  0.92315  0.37260  1.0000
  H   H6064     1.0  0.81367  0.91651  0.39688  1.0000
  H   H6065     1.0  0.82296  0.92469  0.37364  1.0000
  H   H6066     1.0  0.84941  0.87611  0.39092  1.0000
  H   H6067     1.0  0.82641  0.88509  0.40040  1.0000
  H   H6068     1.0  0.86256  0.89174  0.40615  1.0000
  H   H6069     1.0  0.85625  0.91540  0.40548  1.0000
  H   H6070     1.0  0.87251  0.88310  0.36674  1.0000
  H   H6071     1.0  0.88493  0.90113  0.35604  1.0000
  H   H6072     1.0  0.88306  0.89246  0.38014  1.0000
  H   H6073     1.0  0.81888  0.89800  0.36910  1.0000
  H   H6074     1.0  0.82778  0.87388  0.37302  1.0000
  N   N253      1.0  0.97829  0.47902  0.23278  1.0000
  H   H6075     1.0  0.98157  0.86422  0.98301  1.0000
  H   H6076     1.0  0.97473  0.75292  0.11302  1.0000
  H   H6077     1.0  0.82801  0.73822  0.44199  1.0000
  H   H6078     1.0  0.97908  0.69811  0.36741  1.0000
  H   H6079     1.0  0.91852  0.92061  0.11234  1.0000
  H   H6080     1.0  0.96556  0.83671  0.40361  1.0000
  H   H6081     1.0  0.92729  0.69513  0.29982  1.0000
  H   H6082     1.0  0.80713  0.68645  0.13976  1.0000
  H   H6083     1.0  0.98222  0.81604  0.39877  1.0000
  H   H6084     1.0  0.83178  0.60345  0.22915  1.0000
  C   C3550     1.0  0.96203  0.80214  0.45721  1.0000
  C   C3551     1.0  0.97583  0.63670  0.18440  1.0000
  H   H6085     1.0  0.91857  0.65480  0.34131  1.0000
  H   H6086     1.0  0.98082  0.97223  0.21831  1.0000
  H   H6087     1.0  0.79356  0.72228  0.30537  1.0000
  H   H6088     1.0  0.97357  0.55987  0.33591  1.0000
  C   C3552     1.0  0.80477  0.69330  0.12568  1.0000
  H   H6089     1.0  0.96723  0.50225  0.21307  1.0000
  H   H6090     1.0  0.80138  0.82612  0.07121  1.0000
  H   H6091     1.0  0.84703  0.93701  0.06648  1.0000
  H   H6092     1.0  0.97634  0.76778  0.06186  1.0000
  H   H6093     1.0  0.94847  0.97176  0.13639  1.0000
  Fe  Fe516     1.0  0.97763  0.91255  0.06405  1.0000
  H   H6094     1.0  0.97157  0.94127  0.23364  1.0000
  H   H6095     1.0  0.92823  0.63134  0.16568  1.0000
  H   H6096     1.0  0.97322  0.83158  0.43433  1.0000
  Fe  Fe517     1.0  0.81477  0.72840  0.36087  1.0000
  C   C3553     1.0  0.90960  0.86009  0.44440  1.0000
  C   C3554     1.0  0.90069  0.50969  0.15012  1.0000
  H   H6097     1.0  0.92641  0.67265  0.29828  1.0000
  H   H6098     1.0  0.89696  0.93285  0.06953  1.0000
  H   H6099     1.0  0.80891  0.85855  0.35276  1.0000
  H   H6100     1.0  0.86411  0.54338  0.17329  1.0000
  H   H6101     1.0  0.81582  0.51371  0.12901  1.0000
  H   H6102     1.0  0.85944  0.75612  0.43678  1.0000
  H   H6103     1.0  0.90509  0.89988  0.08855  1.0000
  H   H6104     1.0  0.97711  0.74164  0.35529  1.0000
  H   H6105     1.0  0.96247  0.78551  0.10074  1.0000
  H   H6106     1.0  0.80301  0.53848  0.08392  1.0000
  H   H6107     1.0  0.81851  0.81307  0.33785  1.0000
  H   H6108     1.0  0.88283  0.51391  0.17601  1.0000
  H   H6109     1.0  0.91970  0.56913  0.13206  1.0000
  C   C3555     1.0  0.81986  0.72884  0.45261  1.0000
  H   H6110     1.0  0.81395  0.65672  0.24829  1.0000
  H   H6111     1.0  0.81372  0.59368  0.21277  1.0000
  H   H6112     1.0  0.97053  0.52750  0.22388  1.0000
  C   C3556     1.0  0.80789  0.96095  0.28016  1.0000
  N   N254      1.0  0.82007  0.63267  0.22496  1.0000
  C   C3557     1.0  0.82468  0.61437  0.21919  1.0000
  C   C3558     1.0  0.83794  0.63877  0.22299  1.0000
  C   C3559     1.0  0.80830  0.64706  0.21307  1.0000
  C   C3560     1.0  0.80941  0.63036  0.24456  1.0000
  H   H6113     1.0  0.94521  0.58830  0.30877  1.0000
  C   C3561     1.0  0.97878  0.59534  0.32141  1.0000
  C   C3562     1.0  0.81618  0.65002  0.19216  1.0000
  C   C3563     1.0  0.79633  0.87716  0.43294  1.0000
  H   H6114     1.0  0.83471  0.61482  0.20591  1.0000
  H   H6115     1.0  0.97608  0.82071  0.01337  1.0000
  H   H6116     1.0  0.83552  0.65353  0.22366  1.0000
  H   H6117     1.0  0.84675  0.63796  0.20911  1.0000
  H   H6118     1.0  0.79559  0.79388  0.34220  1.0000
  C   C3564     1.0  0.81761  0.94104  0.27867  1.0000
  Fe  Fe518     1.0  0.79766  0.62654  0.12765  1.0000
  C   C3565     1.0  0.87317  0.91173  0.10910  1.0000
  H   H6119     1.0  0.84437  0.70735  0.44929  1.0000
  C   C3566     1.0  0.90253  0.96109  0.08520  1.0000
  C   C3567     1.0  0.79105  0.71657  0.33482  1.0000
  H   H6120     1.0  0.82927  0.65514  0.18848  1.0000
  C   C3568     1.0  0.86649  0.95479  0.05651  1.0000
  C   C3569     1.0  0.96480  0.67094  0.12212  1.0000
  H   H6121     1.0  0.79960  0.54415  0.13814  1.0000
  C   C3570     1.0  0.97742  0.49863  0.22216  1.0000
  N   N255      1.0  0.89386  0.53884  0.16441  1.0000
  N   N256      1.0  0.83111  0.80459  0.04710  1.0000
  C   C3571     1.0  0.81730  0.79308  0.05873  1.0000
  C   C3572     1.0  0.83050  0.81932  0.05724  1.0000
  C   C3573     1.0  0.84998  0.79213  0.04519  1.0000
  C   C3574     1.0  0.82578  0.81236  0.02859  1.0000
  C   C3575     1.0  0.81673  0.77610  0.05164  1.0000
  C   C3576     1.0  0.81185  0.83282  0.06063  1.0000
  C   C3577     1.0  0.86688  0.80125  0.04084  1.0000
  C   C3578     1.0  0.83641  0.82663  0.01507  1.0000
  H   H6122     1.0  0.95146  0.87284  0.43375  1.0000
  H   H6123     1.0  0.80306  0.80141  0.06001  1.0000
  H   H6124     1.0  0.84097  0.82787  0.05011  1.0000
  H   H6125     1.0  0.83422  0.81289  0.07093  1.0000
  H   H6126     1.0  0.85127  0.78169  0.05812  1.0000
  H   H6127     1.0  0.85201  0.78406  0.03440  1.0000
  H   H6128     1.0  0.82770  0.80115  0.02105  1.0000
  H   H6129     1.0  0.89227  0.93635  0.17018  1.0000
  H   H6130     1.0  0.80674  0.76841  0.06187  1.0000
  H   H6131     1.0  0.81171  0.78008  0.03853  1.0000
  H   H6132     1.0  0.95809  0.95180  0.25295  1.0000
  H   H6133     1.0  0.96327  0.68095  0.13090  1.0000
  H   H6134     1.0  0.93127  0.67987  0.14883  1.0000
  H   H6135     1.0  0.87959  0.79083  0.03757  1.0000
  H   H6136     1.0  0.86808  0.80605  0.05293  1.0000
  H   H6137     1.0  0.86686  0.81276  0.02881  1.0000
  H   H6138     1.0  0.84923  0.81977  0.00682  1.0000
  H   H6139     1.0  0.93290  0.49049  0.19482  1.0000
  H   H6140     1.0  0.84029  0.90440  0.43467  1.0000
  H   H6141     1.0  0.94191  0.85830  0.04722  1.0000
  C   C3579     1.0  0.86866  0.90262  0.07408  1.0000
  H   H6142     1.0  0.87726  0.89093  0.08187  1.0000
  H   H6143     1.0  0.87230  0.89994  0.05983  1.0000
  H   H6144     1.0  0.82234  0.90541  0.42350  1.0000
  C   C3580     1.0  0.97437  0.73720  0.04650  1.0000
  C   C3581     1.0  0.92781  0.80844  0.44354  1.0000
  H   H6145     1.0  0.88924  0.51945  0.20314  1.0000
  C   C3582     1.0  0.88548  0.53469  0.20005  1.0000
  C   C3583     1.0  0.92423  0.86886  0.43442  1.0000
  H   H6146     1.0  0.86295  0.95742  0.30779  1.0000
  H   H6147     1.0  0.95649  0.78932  0.46341  1.0000
  H   H6148     1.0  0.83973  0.96264  0.25345  1.0000
  H   H6149     1.0  0.98207  0.94500  0.26682  1.0000
  C   C3584     1.0  0.89573  0.51824  0.16738  1.0000
  H   H6150     1.0  0.88868  0.53942  0.21127  1.0000
  C   C3585     1.0  0.95543  0.85226  0.04029  1.0000
  C   C3586     1.0  0.90874  0.54526  0.14867  1.0000
  C   C3587     1.0  0.93372  0.93228  0.08608  1.0000
  C   C3588     1.0  0.93352  0.94705  0.07103  1.0000
  H   H6151     1.0  0.84352  0.62269  0.15916  1.0000
  H   H6152     1.0  0.94533  0.94735  0.05972  1.0000
  H   H6153     1.0  0.85137  0.93008  0.09631  1.0000
  H   H6154     1.0  0.97495  0.78964  0.04775  1.0000
  S   S1033     1.0  0.80658  0.73052  0.33393  1.0000
  H   H6155     1.0  0.79621  0.62609  0.24562  1.0000
  H   H6156     1.0  0.81019  0.50599  0.08675  1.0000
  H   H6157     1.0  0.80521  0.80985  0.36023  1.0000
  H   H6158     1.0  0.95991  0.51349  0.24395  1.0000
  C   C3589     1.0  0.86899  0.54801  0.14410  1.0000
  H   H6159     1.0  0.94165  0.83128  0.43576  1.0000
  H   H6160     1.0  0.89937  0.64351  0.35292  1.0000
  H   H6161     1.0  0.80728  0.94981  0.09585  1.0000
  H   H6162     1.0  0.96967  0.86793  0.04982  1.0000
  H   H6163     1.0  0.97330  0.59265  0.28922  1.0000
  H   H6164     1.0  0.90501  0.68546  0.28061  1.0000
  C   C3590     1.0  0.97113  0.85779  0.04170  1.0000
  S   S1034     1.0  0.95259  0.91372  0.08722  1.0000
  H   H6165     1.0  0.81071  0.81824  0.02996  1.0000
  C   C3591     1.0  0.94007  0.86632  0.44166  1.0000
  H   H6166     1.0  0.90762  0.94646  0.13663  1.0000
  H   H6167     1.0  0.98227  0.56942  0.28929  1.0000
  C   C3592     1.0  0.86218  0.93530  0.06094  1.0000
  H   H6168     1.0  0.83198  0.67910  0.11398  1.0000
  H   H6169     1.0  0.79969  0.77250  0.43723  1.0000
  H   H6170     1.0  0.96784  0.58452  0.35055  1.0000
  C   C3593     1.0  0.92409  0.66256  0.17548  1.0000
  H   H6171     1.0  0.95113  0.63036  0.16693  1.0000
  H   H6172     1.0  0.82751  0.83550  0.00548  1.0000
  C   C3594     1.0  0.80372  0.64769  0.25309  1.0000
  H   H6173     1.0  0.90440  0.66107  0.28477  1.0000
  N   N257      1.0  0.79971  0.83791  0.34428  1.0000
  H   H6174     1.0  0.97142  0.64658  0.14243  1.0000
  H   H6175     1.0  0.80635  0.89417  0.12493  1.0000
  H   H6176     1.0  0.92814  0.67022  0.12374  1.0000
  H   H6177     1.0  0.87498  0.89728  0.10803  1.0000
  H   H6178     1.0  0.94463  0.78558  0.08240  1.0000
  C   C3595     1.0  0.80092  0.86728  0.31858  1.0000
  H   H6179     1.0  0.84715  0.88640  0.08196  1.0000
  H   H6180     1.0  0.86242  0.91318  0.12176  1.0000
  C   C3596     1.0  0.85011  0.62767  0.23693  1.0000
  H   H6181     1.0  0.81978  0.78813  0.07305  1.0000
  S   S1035     1.0  0.81088  0.97223  0.14077  1.0000
  C   C3597     1.0  0.97494  0.57903  0.29876  1.0000
  C   C3598     1.0  0.80231  0.90563  0.11421  1.0000
  H   H6182     1.0  0.86457  0.93105  0.04751  1.0000
  H   H6183     1.0  0.84344  0.62945  0.25117  1.0000
  S   S1036     1.0  0.97954  0.59998  0.18432  1.0000
  C   C3599     1.0  0.94201  0.63276  0.15697  1.0000
  C   C3600     1.0  0.90431  0.74563  0.96994  1.0000
  C   C3601     1.0  0.78811  0.53852  0.08653  1.0000
  H   H6184     1.0  0.86341  0.96065  0.06898  1.0000
  H   H6185     1.0  0.81342  0.93180  0.29202  1.0000
  H   H6186     1.0  0.96464  0.64281  0.12341  1.0000
  H   H6187     1.0  0.96353  0.61470  0.14067  1.0000
  C   C3602     1.0  0.97770  0.96803  0.23351  1.0000
  H   H6188     1.0  0.79305  0.96061  0.28540  1.0000
  S   S1037     1.0  0.84204  0.97293  0.17402  1.0000
  C   C3603     1.0  0.79103  0.90389  0.10307  1.0000
  H   H6189     1.0  0.95199  0.47831  0.22740  1.0000
  C   C3604     1.0  0.97839  0.82710  0.40676  1.0000
  H   H6190     1.0  0.80138  0.85197  0.40061  1.0000
  H   H6191     1.0  0.81307  0.83952  0.31542  1.0000
  H   H6192     1.0  0.95605  0.67684  0.11170  1.0000
  H   H6193     1.0  0.95115  0.58930  0.33598  1.0000
  C   C3605     1.0  0.97652  0.77916  0.09408  1.0000
  H   H6194     1.0  0.80115  0.61629  0.20631  1.0000
  C   C3606     1.0  0.78778  0.88044  0.39856  1.0000
  C   C3607     1.0  0.97675  0.72511  0.06317  1.0000
  H   H6195     1.0  0.79825  0.60466  0.23028  1.0000
  C   C3608     1.0  0.97687  0.81946  0.42762  1.0000
  N   N258      1.0  0.79010  0.51974  0.11965  1.0000
  S   S1038     1.0  0.98102  0.89524  0.44552  1.0000
  H   H6196     1.0  0.78683  0.69457  0.09755  1.0000
  N   N259      1.0  0.98136  0.78832  0.07410  1.0000
  C   C3609     1.0  0.83390  0.96636  0.31818  1.0000
  C   C3610     1.0  0.97535  0.73592  0.31677  1.0000
  H   H6197     1.0  0.97197  0.74992  0.31976  1.0000
  C   C3611     1.0  0.97465  0.83102  0.02128  1.0000
  C   C3612     1.0  0.97562  0.80884  0.07239  1.0000
  H   H6198     1.0  0.79412  0.66265  0.01727  1.0000
  H   H6199     1.0  0.98039  0.83268  0.07958  1.0000
  C   C3613     1.0  0.98003  0.65422  0.17681  1.0000
  C   C3614     1.0  0.78891  0.72245  0.09583  1.0000
  H   H6200     1.0  0.81698  0.66518  0.46216  1.0000
  H   H6201     1.0  0.96727  0.75459  0.09229  1.0000
  C   C3615     1.0  0.97151  0.78256  0.06238  1.0000
  C   C3616     1.0  0.97991  0.80005  0.46427  1.0000
  H   H6202     1.0  0.95468  0.96549  0.11453  1.0000
  H   H6203     1.0  0.78528  0.70855  0.36437  1.0000
  Fe  Fe519     1.0  0.94661  0.47485  0.16140  1.0000
  H   H6204     1.0  0.97842  0.96878  0.26702  1.0000
  H   H6205     1.0  0.98362  0.81363  0.46233  1.0000
  H   H6206     1.0  0.98491  0.90846  0.99427  1.0000
  H   H6207     1.0  0.98486  0.73558  0.30322  1.0000
  C   C3617     1.0  0.78564  0.91872  0.08933  1.0000
  H   H6208     1.0  0.78780  0.94659  0.07583  1.0000
  C   C3618     1.0  0.92086  0.97398  0.16799  1.0000
  C   C3619     1.0  0.92516  0.97432  0.12324  1.0000
  C   C3620     1.0  0.95929  0.47440  0.23909  1.0000
  H   H6209     1.0  0.96564  0.75789  0.96152  1.0000
  S   S1039     1.0  0.96094  0.73636  0.85756  1.0000
  C   C3621     1.0  0.85259  0.76384  0.57071  1.0000
  Fe  Fe520     1.0  0.96154  0.78845  0.84073  1.0000
  S   S1040     1.0  0.93888  0.77779  0.86285  1.0000
  S   S1041     1.0  0.95818  0.81932  0.83071  1.0000
  Fe  Fe521     1.0  0.96167  0.75663  0.87380  1.0000
  S   S1042     1.0  0.96130  0.74477  0.90387  1.0000
  Fe  Fe522     1.0  0.93994  0.75846  0.84475  1.0000
  S   S1043     1.0  0.91255  0.75348  0.84284  1.0000
  H   H6210     1.0  0.95889  0.97406  0.84380  1.0000
  S   S1044     1.0  0.96078  0.77075  0.82165  1.0000
  C   C3622     1.0  0.98481  0.91526  0.61180  1.0000
  H   H6211     1.0  0.82702  0.70077  0.46859  1.0000
  C   C3623     1.0  0.80232  0.73215  0.73112  1.0000
  H   H6212     1.0  0.85902  0.49454  0.58739  1.0000
  C   C3624     1.0  0.80329  0.66992  0.76206  1.0000
  C   C3625     1.0  0.80566  0.68450  0.82888  1.0000
  H   H6213     1.0  0.85183  0.74559  0.65841  1.0000
  H   H6214     1.0  0.83694  0.75706  0.64270  1.0000
  H   H6215     1.0  0.78768  0.67490  0.73992  1.0000
  C   C3626     1.0  0.81744  0.69645  0.90075  1.0000
  C   C3627     1.0  0.96661  0.76303  0.94691  1.0000
  Fe  Fe523     1.0  0.88336  0.88994  0.60948  1.0000
  S   S1045     1.0  0.88110  0.90249  0.58017  1.0000
  S   S1046     1.0  0.90728  0.89147  0.62124  1.0000
  Fe  Fe524     1.0  0.85078  0.87130  0.61627  1.0000
  S   S1047     1.0  0.84586  0.88216  0.58758  1.0000
  S   S1048     1.0  0.83167  0.85481  0.63770  1.0000
  Fe  Fe525     1.0  0.87663  0.87512  0.57879  1.0000
  S   S1049     1.0  0.89108  0.86535  0.55238  1.0000
  Fe  Fe526     1.0  0.85052  0.90865  0.59103  1.0000
  S   S1050     1.0  0.83369  0.93493  0.57783  1.0000
  S   S1051     1.0  0.88135  0.86175  0.60728  1.0000
  S   S1052     1.0  0.85300  0.89861  0.62066  1.0000
  S   S1053     1.0  0.84244  0.82920  0.52162  1.0000
  Fe  Fe527     1.0  0.80079  0.52116  0.60444  1.0000
  S   S1054     1.0  0.81936  0.52203  0.62265  1.0000
  H   H6216     1.0  0.97204  0.91928  0.63998  1.0000
  H   H6217     1.0  0.81364  0.50175  0.71325  1.0000
  H   H6218     1.0  0.85124  0.74686  0.69124  1.0000
  Fe  Fe528     1.0  0.79605  0.51431  0.64565  1.0000
  H   H6219     1.0  0.84682  0.75123  0.57693  1.0000
  H   H6220     1.0  0.88289  0.78608  0.96097  1.0000
  N   N260      1.0  0.97393  0.92257  0.59663  1.0000
  H   H6221     1.0  0.92359  0.49260  0.63778  1.0000
  C   C3628     1.0  0.84597  0.90339  0.53275  1.0000
  H   H6222     1.0  0.90299  0.63915  0.74170  1.0000
  H   H6223     1.0  0.79779  0.79770  0.55086  1.0000
  N   N261      1.0  0.81627  0.88972  0.54315  1.0000
  S   S1055     1.0  0.95655  0.51694  0.80779  1.0000
  C   C3629     1.0  0.81350  0.71316  0.86994  1.0000
  S   S1056     1.0  0.90987  0.70577  0.78709  1.0000
  Fe  Fe529     1.0  0.85214  0.53924  0.72930  1.0000
  S   S1057     1.0  0.86721  0.51881  0.74980  1.0000
  S   S1058     1.0  0.85411  0.52896  0.70359  1.0000
  Fe  Fe530     1.0  0.84527  0.56980  0.75074  1.0000
  S   S1059     1.0  0.86000  0.55168  0.77279  1.0000
  S   S1060     1.0  0.83460  0.60041  0.74875  1.0000
  Fe  Fe531     1.0  0.88110  0.54136  0.74953  1.0000
  S   S1061     1.0  0.91210  0.53756  0.74373  1.0000
  Fe  Fe532     1.0  0.84459  0.53078  0.77106  1.0000
  Fe  Fe533     1.0  0.84684  0.83401  0.49071  1.0000
  S   S1062     1.0  0.86760  0.56108  0.72753  1.0000
  S   S1063     1.0  0.82820  0.54961  0.75060  1.0000
  H   H6224     1.0  0.80999  0.68063  0.73263  1.0000
  H   H6225     1.0  0.82689  0.80292  0.67052  1.0000
  H   H6226     1.0  0.83012  0.78276  0.58268  1.0000
  H   H6227     1.0  0.95866  0.88356  0.59441  1.0000
  H   H6228     1.0  0.84239  0.74556  0.47103  1.0000
  C   C3630     1.0  0.81317  0.48432  0.80716  1.0000
  C   C3631     1.0  0.81079  0.94058  0.58958  1.0000
  H   H6229     1.0  0.98221  0.97231  0.77534  1.0000
  H   H6230     1.0  0.98254  0.65444  0.82932  1.0000
  H   H6231     1.0  0.84214  0.79972  0.68499  1.0000
  S   S1064     1.0  0.90716  0.96043  0.65297  1.0000
  H   H6232     1.0  0.97657  0.94116  0.56991  1.0000
  H   H6233     1.0  0.95372  0.84402  0.53365  1.0000
  H   H6234     1.0  0.92546  0.79422  0.95922  1.0000
  N   N262      1.0  0.81516  0.58262  0.63805  1.0000
  C   C3632     1.0  0.81503  0.76474  0.56318  1.0000
  H   H6235     1.0  0.91769  0.90502  0.50895  1.0000
  H   H6236     1.0  0.97027  0.89356  0.96363  1.0000
  C   C3633     1.0  0.81121  0.68436  0.91960  1.0000
  C   C3634     1.0  0.84426  0.62932  0.75662  1.0000
  C   C3635     1.0  0.84253  0.61083  0.76251  1.0000
  C   C3636     1.0  0.84674  0.60106  0.77947  1.0000
  C   C3637     1.0  0.78616  0.93522  0.61617  1.0000
  H   H6237     1.0  0.84105  0.63694  0.74349  1.0000
  C   C3638     1.0  0.94416  0.52200  0.79009  1.0000
  C   C3639     1.0  0.92479  0.52499  0.79436  1.0000
  C   C3640     1.0  0.91470  0.52934  0.78027  1.0000
  C   C3641     1.0  0.92403  0.53069  0.76191  1.0000
  C   C3642     1.0  0.94338  0.52744  0.75773  1.0000
  C   C3643     1.0  0.95343  0.52310  0.77177  1.0000
  H   H6238     1.0  0.91757  0.52411  0.80854  1.0000
  H   H6239     1.0  0.89977  0.53186  0.78357  1.0000
  H   H6240     1.0  0.95063  0.52846  0.74353  1.0000
  H   H6241     1.0  0.80902  0.55523  0.64765  1.0000
  C   C3644     1.0  0.95355  0.88335  0.50011  1.0000
  H   H6242     1.0  0.93561  0.85737  0.49964  1.0000
  C   C3645     1.0  0.97979  0.47749  0.84643  1.0000
  H   H6243     1.0  0.79652  0.65672  0.88703  1.0000
  C   C3646     1.0  0.93488  0.81633  0.79310  1.0000
  H   H6244     1.0  0.84649  0.49156  0.71201  1.0000
  C   C3647     1.0  0.80920  0.49099  0.72515  1.0000
  H   H6245     1.0  0.91375  0.87767  0.48763  1.0000
  H   H6246     1.0  0.80428  0.96494  0.56915  1.0000
  H   H6247     1.0  0.79379  0.60710  0.63298  1.0000
  H   H6248     1.0  0.86757  0.78656  0.65676  1.0000
  H   H6249     1.0  0.95986  0.96239  0.59831  1.0000
  H   H6250     1.0  0.84386  0.71254  0.69576  1.0000
  H   H6251     1.0  0.80321  0.61365  0.65818  1.0000
  H   H6252     1.0  0.81492  0.77460  0.52483  1.0000
  C   C3648     1.0  0.81298  0.75415  0.46977  1.0000
  C   C3649     1.0  0.80528  0.52835  0.67974  1.0000
  C   C3650     1.0  0.80227  0.53775  0.69410  1.0000
  C   C3651     1.0  0.81717  0.53838  0.70150  1.0000
  C   C3652     1.0  0.83505  0.52970  0.69439  1.0000
  C   C3653     1.0  0.83801  0.52064  0.67983  1.0000
  C   C3654     1.0  0.82318  0.51989  0.67258  1.0000
  H   H6253     1.0  0.93455  0.49493  0.86757  1.0000
  H   H6254     1.0  0.81484  0.54539  0.71274  1.0000
  H   H6255     1.0  0.85183  0.51391  0.67432  1.0000
  H   H6256     1.0  0.82561  0.51256  0.66158  1.0000
  C   C3655     1.0  0.82558  0.83693  0.63139  1.0000
  C   C3656     1.0  0.83522  0.83039  0.61545  1.0000
  Fe  Fe534     1.0  0.85859  0.70222  0.75849  1.0000
  C   C3657     1.0  0.85043  0.63791  0.76750  1.0000
  H   H6257     1.0  0.84398  0.55554  0.65189  1.0000
  H   H6258     1.0  0.80373  0.83370  0.65529  1.0000
  H   H6259     1.0  0.84627  0.83678  0.60643  1.0000
  H   H6260     1.0  0.95533  0.65614  0.79599  1.0000
  C   C3658     1.0  0.81131  0.82856  0.64304  1.0000
  C   C3659     1.0  0.78930  0.70199  0.78162  1.0000
  C   C3660     1.0  0.90635  0.91044  0.63078  1.0000
  C   C3661     1.0  0.89301  0.92654  0.62808  1.0000
  C   C3662     1.0  0.89331  0.94174  0.63510  1.0000
  C   C3663     1.0  0.90698  0.94096  0.64473  1.0000
  C   C3664     1.0  0.92021  0.92480  0.64757  1.0000
  C   C3665     1.0  0.91981  0.90956  0.64070  1.0000
  H   H6261     1.0  0.88258  0.92732  0.62046  1.0000
  H   H6262     1.0  0.88300  0.95418  0.63292  1.0000
  H   H6263     1.0  0.93064  0.92400  0.65518  1.0000
  H   H6264     1.0  0.92994  0.89701  0.64309  1.0000
  C   C3666     1.0  0.87846  0.85407  0.54406  1.0000
  C   C3667     1.0  0.88149  0.85478  0.52508  1.0000
  C   C3668     1.0  0.87073  0.84684  0.51808  1.0000
  C   C3669     1.0  0.85708  0.83793  0.53008  1.0000
  C   C3670     1.0  0.85446  0.83665  0.54910  1.0000
  C   C3671     1.0  0.86506  0.84483  0.55608  1.0000
  H   H6265     1.0  0.89179  0.86191  0.51569  1.0000
  H   H6266     1.0  0.87282  0.84782  0.50338  1.0000
  H   H6267     1.0  0.84399  0.82966  0.55843  1.0000
  H   H6268     1.0  0.86280  0.84407  0.57075  1.0000
  H   H6269     1.0  0.85209  0.65205  0.76269  1.0000
  H   H6270     1.0  0.85608  0.60199  0.80348  1.0000
  H   H6271     1.0  0.94024  0.78240  0.78338  1.0000
  C   C3672     1.0  0.79872  0.72625  0.48309  1.0000
  H   H6272     1.0  0.94610  0.92625  0.61346  1.0000
  H   H6273     1.0  0.94536  0.90048  0.60701  1.0000
  C   C3673     1.0  0.79824  0.47650  0.80763  1.0000
  H   H6274     1.0  0.81298  0.91730  0.61212  1.0000
  H   H6275     1.0  0.85299  0.76337  0.71453  1.0000
  H   H6276     1.0  0.82147  0.75707  0.67505  1.0000
  Fe  Fe535     1.0  0.97368  0.95673  0.65647  1.0000
  C   C3674     1.0  0.81507  0.50157  0.79602  1.0000
  H   H6277     1.0  0.79082  0.73789  0.74092  1.0000
  H   H6278     1.0  0.95150  0.50029  0.62845  1.0000
  C   C3675     1.0  0.84584  0.47957  0.75592  1.0000
  H   H6279     1.0  0.81001  0.71815  0.49021  1.0000
  H   H6280     1.0  0.84506  0.58695  0.78432  1.0000
  H   H6281     1.0  0.96626  0.88551  0.61376  1.0000
  H   H6282     1.0  0.92813  0.75815  0.95843  1.0000
  N   N263      1.0  0.82556  0.47980  0.73341  1.0000
  C   C3676     1.0  0.80240  0.78400  0.69680  1.0000
  H   H6283     1.0  0.86123  0.89873  0.53061  1.0000
  S   S1065     1.0  0.82541  0.82689  0.47983  1.0000
  C   C3677     1.0  0.84411  0.55629  0.63722  1.0000
  C   C3678     1.0  0.91196  0.74042  0.82711  1.0000
  C   C3679     1.0  0.89545  0.73504  0.82782  1.0000
  C   C3680     1.0  0.89455  0.72461  0.81548  1.0000
  C   C3681     1.0  0.91013  0.71969  0.80218  1.0000
  C   C3682     1.0  0.92649  0.72551  0.80115  1.0000
  C   C3683     1.0  0.92750  0.73562  0.81372  1.0000
  H   H6284     1.0  0.88335  0.73880  0.83809  1.0000
  C   C3684     1.0  0.85400  0.76107  0.68612  1.0000
  H   H6285     1.0  0.93839  0.72224  0.79054  1.0000
  H   H6286     1.0  0.94022  0.73989  0.81293  1.0000
  H   H6287     1.0  0.84125  0.71611  0.46955  1.0000
  H   H6288     1.0  0.87834  0.77113  0.94909  1.0000
  C   C3685     1.0  0.91897  0.89051  0.50819  1.0000
  C   C3686     1.0  0.97155  0.90713  0.58903  1.0000
  H   H6289     1.0  0.83672  0.71701  0.84710  1.0000
  C   C3687     1.0  0.83727  0.78119  0.56855  1.0000
  H   H6290     1.0  0.95057  0.83818  0.78256  1.0000
  C   C3688     1.0  0.82225  0.77406  0.69893  1.0000
  H   H6291     1.0  0.82084  0.67357  0.87974  1.0000
  H   H6292     1.0  0.91236  0.59476  0.72498  1.0000
  C   C3689     1.0  0.96564  0.75848  0.91690  1.0000
  C   C3690     1.0  0.96439  0.75196  0.93587  1.0000
  H   H6293     1.0  0.79606  0.80695  0.64824  1.0000
  H   H6294     1.0  0.81258  0.63518  0.78589  1.0000
  H   H6295     1.0  0.96138  0.73843  0.94212  1.0000
  C   C3691     1.0  0.87143  0.48410  0.58834  1.0000
  H   H6296     1.0  0.81553  0.81045  0.54621  1.0000
  C   C3692     1.0  0.95541  0.95123  0.60973  1.0000
  H   H6297     1.0  0.79001  0.48679  0.84736  1.0000
  H   H6298     1.0  0.84215  0.91256  0.54280  1.0000
  H   H6299     1.0  0.79130  0.60892  0.55815  1.0000
  C   C3693     1.0  0.93585  0.85892  0.51356  1.0000
  H   H6300     1.0  0.95172  0.87473  0.53513  1.0000
  C   C3694     1.0  0.93726  0.87922  0.53291  1.0000
  C   C3695     1.0  0.86217  0.76527  0.70073  1.0000
  H   H6301     1.0  0.86484  0.79819  0.93298  1.0000
  H   H6302     1.0  0.79763  0.65814  0.83957  1.0000
  H   H6303     1.0  0.93968  0.49039  0.83864  1.0000
  H   H6304     1.0  0.80182  0.76401  0.47678  1.0000
  H   H6305     1.0  0.92575  0.75310  0.92915  1.0000
  H   H6306     1.0  0.90235  0.75040  0.93508  1.0000
  H   H6307     1.0  0.83275  0.50346  0.73846  1.0000
  H   H6308     1.0  0.97203  0.95442  0.88165  1.0000
  C   C3696     1.0  0.79352  0.67279  0.83915  1.0000
  C   C3697     1.0  0.92942  0.89784  0.53900  1.0000
  H   H6309     1.0  0.80313  0.52448  0.77694  1.0000
  H   H6310     1.0  0.93832  0.81348  0.77904  1.0000
  S   S1066     1.0  0.97242  0.79489  0.95276  1.0000
  H   H6311     1.0  0.90324  0.80708  0.95442  1.0000
  C   C3698     1.0  0.98460  0.93469  0.58101  1.0000
  H   H6312     1.0  0.81907  0.67887  0.82142  1.0000
  H   H6313     1.0  0.95187  0.96106  0.82430  1.0000
  H   H6314     1.0  0.89755  0.48405  0.62926  1.0000
  C   C3699     1.0  0.93655  0.83653  0.79056  1.0000
  H   H6315     1.0  0.84456  0.76722  0.53688  1.0000
  C   C3700     1.0  0.93771  0.47991  0.86788  1.0000
  H   H6316     1.0  0.84406  0.79334  0.56294  1.0000
  C   C3701     1.0  0.80186  0.51107  0.78540  1.0000
  H   H6317     1.0  0.83877  0.80983  0.59945  1.0000
  C   C3702     1.0  0.95911  0.94811  0.80116  1.0000
  H   H6318     1.0  0.89441  0.63103  0.76543  1.0000
  H   H6319     1.0  0.84360  0.70169  0.86698  1.0000
  H   H6320     1.0  0.93252  0.89671  0.55270  1.0000
  C   C3703     1.0  0.78882  0.59762  0.56961  1.0000
  H   H6321     1.0  0.82741  0.73559  0.49155  1.0000
  C   C3704     1.0  0.79163  0.56473  0.58182  1.0000
  H   H6322     1.0  0.82709  0.85952  0.57300  1.0000
  C   C3705     1.0  0.89785  0.58640  0.75448  1.0000
  H   H6323     1.0  0.79616  0.69738  0.79358  1.0000
  S   S1067     1.0  0.79826  0.54209  0.57827  1.0000
  C   C3706     1.0  0.80705  0.90246  0.55653  1.0000
  C   C3707     1.0  0.89938  0.59081  0.73334  1.0000
  Fe  Fe536     1.0  0.78942  0.48592  0.62757  1.0000
  C   C3708     1.0  0.83700  0.88642  0.54031  1.0000
  H   H6324     1.0  0.96835  0.52066  0.76836  1.0000
  H   H6325     1.0  0.96523  0.84504  0.50964  1.0000
  C   C3709     1.0  0.95524  0.93419  0.60256  1.0000
  H   H6326     1.0  0.97601  0.96625  0.71680  1.0000
  H   H6327     1.0  0.89834  0.57134  0.75925  1.0000
  H   H6328     1.0  0.88357  0.59298  0.76037  1.0000
  S   S1068     1.0  0.81559  0.71828  0.81617  1.0000
  H   H6329     1.0  0.79319  0.78263  0.71064  1.0000
  H   H6330     1.0  0.81487  0.72570  0.87387  1.0000
  C   C3710     1.0  0.79449  0.57942  0.56697  1.0000
  H   H6331     1.0  0.80447  0.50309  0.84242  1.0000
  H   H6332     1.0  0.97103  0.92479  0.94703  1.0000
  C   C3711     1.0  0.92953  0.57808  0.76114  1.0000
  S   S1069     1.0  0.81300  0.78651  0.61899  1.0000
  H   H6333     1.0  0.80327  0.48228  0.71941  1.0000
  H   H6334     1.0  0.89831  0.57843  0.72895  1.0000
  H   H6335     1.0  0.95747  0.69626  0.80529  1.0000
  C   C3712     1.0  0.80989  0.89729  0.52511  1.0000
  N   N264      1.0  0.91661  0.81154  0.80386  1.0000
  C   C3713     1.0  0.91512  0.81293  0.82354  1.0000
  C   C3714     1.0  0.85485  0.79725  0.65685  1.0000
  C   C3715     1.0  0.91617  0.79188  0.80394  1.0000
  H   H6336     1.0  0.97062  0.48151  0.82170  1.0000
  C   C3716     1.0  0.89794  0.80736  0.83749  1.0000
  H   H6337     1.0  0.89849  0.83847  0.80004  1.0000
  C   C3717     1.0  0.92492  0.78469  0.78598  1.0000
  H   H6338     1.0  0.80787  0.84937  0.57552  1.0000
  H   H6339     1.0  0.92742  0.80419  0.82888  1.0000
  H   H6340     1.0  0.91502  0.82715  0.82457  1.0000
  N   N265      1.0  0.80574  0.69982  0.88660  1.0000
  H   H6341     1.0  0.78668  0.50252  0.86267  1.0000
  H   H6342     1.0  0.92356  0.78220  0.81442  1.0000
  H   H6343     1.0  0.90174  0.78948  0.80813  1.0000
  C   C3718     1.0  0.82404  0.78457  0.52224  1.0000
  C   C3719     1.0  0.79004  0.50105  0.84812  1.0000
  H   H6344     1.0  0.89677  0.79310  0.83807  1.0000
  H   H6345     1.0  0.89921  0.80788  0.85148  1.0000
  H   H6346     1.0  0.88502  0.81703  0.83475  1.0000
  H   H6347     1.0  0.79602  0.79586  0.58570  1.0000
  H   H6348     1.0  0.92696  0.56434  0.76891  1.0000
  H   H6349     1.0  0.81330  0.72544  0.68714  1.0000
  H   H6350     1.0  0.89337  0.81671  0.77423  1.0000
  H   H6351     1.0  0.86232  0.76231  0.55750  1.0000
  H   H6352     1.0  0.79344  0.66608  0.90695  1.0000
  Fe  Fe537     1.0  0.79093  0.77202  0.63836  1.0000
  H   H6353     1.0  0.94649  0.95569  0.79586  1.0000
  C   C3720     1.0  0.90393  0.59335  0.78172  1.0000
  H   H6354     1.0  0.88185  0.72028  0.81631  1.0000
  H   H6355     1.0  0.84166  0.87976  0.55336  1.0000
  S   S1070     1.0  0.87097  0.82009  0.47203  1.0000
  H   H6356     1.0  0.78794  0.73763  0.88964  1.0000
  C   C3721     1.0  0.80006  0.73277  0.71334  1.0000
  Fe  Fe538     1.0  0.93181  0.96153  0.66371  1.0000
  C   C3722     1.0  0.80668  0.68220  0.88059  1.0000
  H   H6357     1.0  0.81927  0.70959  0.90313  1.0000
  H   H6358     1.0  0.84951  0.79896  0.64419  1.0000
  C   C3723     1.0  0.83973  0.79374  0.67418  1.0000
  H   H6359     1.0  0.97705  0.65493  0.78143  1.0000
  H   H6360     1.0  0.83178  0.68955  0.89554  1.0000
  H   H6361     1.0  0.93083  0.49826  0.60499  1.0000
  H   H6362     1.0  0.95344  0.56471  0.74375  1.0000
  C   C3724     1.0  0.96974  0.77589  0.90885  1.0000
  H   H6363     1.0  0.82747  0.95545  0.64708  1.0000
  H   H6364     1.0  0.92142  0.77106  0.78756  1.0000
  H   H6365     1.0  0.81466  0.92867  0.53920  1.0000
  C   C3725     1.0  0.84226  0.47803  0.71793  1.0000
  C   C3726     1.0  0.81499  0.72537  0.70074  1.0000
  H   H6366     1.0  0.94922  0.83026  0.52026  1.0000
  C   C3727     1.0  0.82080  0.95145  0.63781  1.0000
  H   H6367     1.0  0.79321  0.71574  0.47951  1.0000
  H   H6368     1.0  0.83818  0.54494  0.63599  1.0000
  H   H6369     1.0  0.92811  0.89481  0.47781  1.0000
  C   C3728     1.0  0.90019  0.82702  0.77636  1.0000
  H   H6370     1.0  0.83382  0.57425  0.61375  1.0000
  H   H6371     1.0  0.82575  0.61627  0.63151  1.0000
  C   C3729     1.0  0.90038  0.82461  0.79691  1.0000
  H   H6372     1.0  0.79673  0.77768  0.68847  1.0000
  H   H6373     1.0  0.81077  0.94269  0.64597  1.0000
  H   H6374     1.0  0.97953  0.70674  0.89161  1.0000
  H   H6375     1.0  0.92739  0.83763  0.48234  1.0000
  H   H6376     1.0  0.80140  0.79890  0.69097  1.0000
  S   S1071     1.0  0.80663  0.48408  0.64796  1.0000
  H   H6377     1.0  0.82151  0.75967  0.70622  1.0000
  C   C3730     1.0  0.96634  0.66430  0.78942  1.0000
  H   H6378     1.0  0.81145  0.89233  0.49795  1.0000
  H   H6379     1.0  0.98105  0.48761  0.47984  1.0000
  C   C3731     1.0  0.97033  0.78059  0.93899  1.0000
  C   C3732     1.0  0.80269  0.92331  0.54845  1.0000
  C   C3733     1.0  0.88555  0.48237  0.57263  1.0000
  H   H6380     1.0  0.78774  0.49245  0.75072  1.0000
  H   H6381     1.0  0.86082  0.76513  0.58025  1.0000
  C   C3734     1.0  0.95621  0.90329  0.49684  1.0000
  H   H6382     1.0  0.83119  0.61200  0.60839  1.0000
  H   H6383     1.0  0.88395  0.49151  0.55959  1.0000
  H   H6384     1.0  0.80908  0.66660  0.79485  1.0000
  H   H6385     1.0  0.82336  0.47694  0.81540  1.0000
  H   H6386     1.0  0.80402  0.87129  0.58132  1.0000
  N   N266      1.0  0.78818  0.66937  0.77914  1.0000
  C   C3735     1.0  0.90395  0.47578  0.64099  1.0000
  H   H6387     1.0  0.96654  0.64474  0.82333  1.0000
  C   C3736     1.0  0.80415  0.92972  0.60642  1.0000
  H   H6388     1.0  0.96320  0.90491  0.50726  1.0000
  H   H6389     1.0  0.80394  0.68532  0.86645  1.0000
  C   C3737     1.0  0.82973  0.48973  0.74612  1.0000
  H   H6390     1.0  0.97000  0.68367  0.76280  1.0000
  C   C3738     1.0  0.81190  0.96822  0.62466  1.0000
  C   C3739     1.0  0.95887  0.68049  0.77490  1.0000
  H   H6391     1.0  0.87531  0.75525  0.70211  1.0000
  C   C3740     1.0  0.82876  0.74789  0.48052  1.0000
  C   C3741     1.0  0.97426  0.92806  0.75076  1.0000
  H   H6392     1.0  0.91403  0.82634  0.76731  1.0000
  H   H6393     1.0  0.84443  0.79099  0.53322  1.0000
  C   C3742     1.0  0.91584  0.61080  0.75180  1.0000
  H   H6394     1.0  0.96667  0.91702  0.75633  1.0000
  C   C3743     1.0  0.83267  0.70583  0.85876  1.0000
  H   H6395     1.0  0.81138  0.62872  0.61527  1.0000
  H   H6396     1.0  0.83002  0.58825  0.65618  1.0000
  H   H6397     1.0  0.84654  0.48760  0.76586  1.0000
  H   H6398     1.0  0.94638  0.80748  0.79973  1.0000
  H   H6399     1.0  0.95602  0.93476  0.80967  1.0000
  H   H6400     1.0  0.80526  0.59791  0.61331  1.0000
  H   H6401     1.0  0.91412  0.90130  0.54080  1.0000
  C   C3744     1.0  0.96982  0.94140  0.73539  1.0000
  H   H6402     1.0  0.80499  0.74586  0.58805  1.0000
  H   H6403     1.0  0.94331  0.91369  0.49645  1.0000
  C   C3745     1.0  0.94523  0.47916  0.58679  1.0000
  C   C3746     1.0  0.97224  0.78687  0.91988  1.0000
  H   H6404     1.0  0.82506  0.75193  0.56048  1.0000
  C   C3747     1.0  0.89957  0.57541  0.79499  1.0000
  H   H6405     1.0  0.97442  0.90639  0.69860  1.0000
  H   H6406     1.0  0.94769  0.93908  0.59097  1.0000
  S   S1072     1.0  0.88326  0.68157  0.76661  1.0000
  H   H6407     1.0  0.93240  0.68865  0.82978  1.0000
  H   H6408     1.0  0.89059  0.56904  0.79017  1.0000
  C   C3748     1.0  0.81701  0.80644  0.62350  1.0000
  C   C3749     1.0  0.97434  0.84939  0.82325  1.0000
  H   H6409     1.0  0.82004  0.77928  0.66083  1.0000
  H   H6410     1.0  0.81586  0.79883  0.52015  1.0000
  H   H6411     1.0  0.93903  0.58167  0.76801  1.0000
  S   S1073     1.0  0.83813  0.68769  0.77974  1.0000
  C   C3750     1.0  0.81982  0.61509  0.62016  1.0000
  C   C3751     1.0  0.83424  0.57524  0.62792  1.0000
  H   H6412     1.0  0.81770  0.49287  0.75716  1.0000
  H   H6413     1.0  0.84373  0.58476  0.62614  1.0000
  H   H6414     1.0  0.85882  0.55371  0.63005  1.0000
  C   C3752     1.0  0.82971  0.76785  0.66779  1.0000
  H   H6415     1.0  0.91984  0.79369  0.77385  1.0000
  H   H6416     1.0  0.80461  0.76590  0.55487  1.0000
  S   S1074     1.0  0.97306  0.97115  0.67878  1.0000
  C   C3753     1.0  0.91284  0.76281  0.96071  1.0000
  C   C3754     1.0  0.81258  0.86269  0.57137  1.0000
  H   H6417     1.0  0.81537  0.90041  0.56720  1.0000
  C   C3755     1.0  0.80166  0.59953  0.66559  1.0000
  C   C3756     1.0  0.94132  0.67736  0.82301  1.0000
  H   H6418     1.0  0.97078  0.78100  0.89419  1.0000
  C   C3757     1.0  0.80477  0.76086  0.58340  1.0000
  C   C3758     1.0  0.83518  0.78082  0.53753  1.0000
  H   H6419     1.0  0.86531  0.76006  0.67388  1.0000
  H   H6420     1.0  0.97533  0.48994  0.62227  1.0000
  C   C3759     1.0  0.79699  0.66059  0.79564  1.0000
  S   S1075     1.0  0.85938  0.72150  0.77591  1.0000
  C   C3760     1.0  0.81707  0.88510  0.51049  1.0000
  H   H6421     1.0  0.85929  0.81015  0.65637  1.0000
  C   C3761     1.0  0.96433  0.95858  0.81331  1.0000
  H   H6422     1.0  0.82144  0.72484  0.74959  1.0000
  H   H6423     1.0  0.88726  0.62373  0.74803  1.0000
  H   H6424     1.0  0.88751  0.60166  0.72949  1.0000
  H   H6425     1.0  0.87730  0.81162  0.93904  1.0000
  H   H6426     1.0  0.80330  0.56665  0.62614  1.0000
  C   C3762     1.0  0.83097  0.81512  0.61155  1.0000
  H   H6427     1.0  0.95199  0.69310  0.78024  1.0000
  H   H6428     1.0  0.81632  0.57146  0.66681  1.0000
  C   C3763     1.0  0.83467  0.71785  0.72325  1.0000
  C   C3764     1.0  0.91633  0.89091  0.48875  1.0000
  C   C3765     1.0  0.80968  0.79896  0.55611  1.0000
  H   H6429     1.0  0.81856  0.86089  0.54300  1.0000
  C   C3766     1.0  0.80162  0.80618  0.57415  1.0000
  H   H6430     1.0  0.79571  0.87257  0.55085  1.0000
  H   H6431     1.0  0.79450  0.90003  0.52763  1.0000
  N   N267      1.0  0.83677  0.77427  0.68138  1.0000
  H   H6432     1.0  0.84356  0.87657  0.53104  1.0000
  C   C3767     1.0  0.83227  0.71800  0.70566  1.0000
  H   H6433     1.0  0.83249  0.69433  0.85247  1.0000
  H   H6434     1.0  0.94499  0.49198  0.57606  1.0000
  S   S1076     1.0  0.79930  0.74281  0.65291  1.0000
  H   H6435     1.0  0.81233  0.87181  0.51506  1.0000
  Fe  Fe539     1.0  0.98183  0.75009  0.83596  1.0000
  H   H6436     1.0  0.85403  0.76821  0.64459  1.0000
  S   S1077     1.0  0.85684  0.71001  0.72842  1.0000
  H   H6437     1.0  0.94113  0.95679  0.61657  1.0000
  H   H6438     1.0  0.83232  0.88261  0.50612  1.0000
  H   H6439     1.0  0.80341  0.59826  0.67986  1.0000
  C   C3768     1.0  0.85283  0.60964  0.79037  1.0000
  C   C3769     1.0  0.91122  0.76089  0.92998  1.0000
  H   H6440     1.0  0.91720  0.77994  0.90314  1.0000
  H   H6441     1.0  0.96425  0.94797  0.62003  1.0000
  H   H6442     1.0  0.91232  0.56530  0.79754  1.0000
  H   H6443     1.0  0.82917  0.47995  0.69452  1.0000
  H   H6444     1.0  0.97025  0.49001  0.85036  1.0000
  C   C3770     1.0  0.93923  0.47685  0.84827  1.0000
  C   C3771     1.0  0.80759  0.60047  0.62617  1.0000
  S   S1078     1.0  0.86360  0.63794  0.79790  1.0000
  N   N268      1.0  0.90698  0.77387  0.94307  1.0000
  H   H6445     1.0  0.85935  0.47851  0.74616  1.0000
  C   C3772     1.0  0.95206  0.84394  0.51971  1.0000
  H   H6446     1.0  0.96092  0.85743  0.82126  1.0000
  C   C3773     1.0  0.84419  0.75931  0.65260  1.0000
  Fe  Fe540     1.0  0.88255  0.69974  0.78587  1.0000
  C   C3774     1.0  0.90879  0.76934  0.91008  1.0000
  H   H6447     1.0  0.93331  0.78196  0.93137  1.0000
  S   S1079     1.0  0.81202  0.49144  0.60305  1.0000
  Fe  Fe541     1.0  0.95177  0.95476  0.69559  1.0000
  H   H6448     1.0  0.98071  0.70190  0.77672  1.0000
  N   N269      1.0  0.97412  0.66890  0.80358  1.0000
  S   S1080     1.0  0.95245  0.93953  0.72491  1.0000
  H   H6449     1.0  0.86545  0.77921  0.69676  1.0000
  C   C3775     1.0  0.91856  0.78846  0.93532  1.0000
  C   C3776     1.0  0.88655  0.78180  0.94744  1.0000
  H   H6450     1.0  0.92942  0.86938  0.54332  1.0000
  H   H6451     1.0  0.89404  0.77463  0.90935  1.0000
  H   H6452     1.0  0.91378  0.75829  0.90194  1.0000
  C   C3777     1.0  0.85484  0.62802  0.78437  1.0000
  H   H6453     1.0  0.96054  0.90556  0.63232  1.0000
  S   S1081     1.0  0.95399  0.93875  0.67393  1.0000
  C   C3778     1.0  0.94049  0.57491  0.74200  1.0000
  C   C3779     1.0  0.80049  0.70341  0.82851  1.0000
  H   H6454     1.0  0.88728  0.82004  0.80449  1.0000
  H   H6455     1.0  0.90669  0.88622  0.51820  1.0000
  H   H6456     1.0  0.79809  0.93086  0.55995  1.0000
  H   H6457     1.0  0.94785  0.67682  0.77021  1.0000
  S   S1082     1.0  0.83347  0.51124  0.79654  1.0000
  H   H6458     1.0  0.82586  0.78048  0.70872  1.0000
  C   C3780     1.0  0.96035  0.68246  0.81405  1.0000
  C   C3781     1.0  0.92413  0.47778  0.63863  1.0000
  H   H6459     1.0  0.79172  0.69567  0.74419  1.0000
  Fe  Fe542     1.0  0.84089  0.70502  0.79806  1.0000
  C   C3782     1.0  0.91762  0.80135  0.94820  1.0000
  H   H6460     1.0  0.91513  0.79742  0.92238  1.0000
  N   N270      1.0  0.93648  0.87846  0.51357  1.0000
  H   H6461     1.0  0.92289  0.85509  0.52261  1.0000
  S   S1083     1.0  0.86406  0.68475  0.80948  1.0000
  H   H6462     1.0  0.80642  0.96266  0.61553  1.0000
  C   C3783     1.0  0.81961  0.72473  0.73606  1.0000
  H   H6463     1.0  0.79975  0.70432  0.76879  1.0000
  H   H6464     1.0  0.79224  0.63218  0.80359  1.0000
  Fe  Fe543     1.0  0.86271  0.66852  0.78929  1.0000
  C   C3784     1.0  0.87898  0.79894  0.93375  1.0000
  H   H6465     1.0  0.82854  0.75891  0.48767  1.0000
  H   H6466     1.0  0.81131  0.76418  0.59315  1.0000
  H   H6467     1.0  0.94222  0.66472  0.83388  1.0000
  H   H6468     1.0  0.88706  0.80060  0.91952  1.0000
  C   C3785     1.0  0.79065  0.67519  0.47853  1.0000
  H   H6469     1.0  0.92649  0.84621  0.78269  1.0000
  H   H6470     1.0  0.80980  0.65577  0.75978  1.0000
  C   C3786     1.0  0.81652  0.58478  0.65672  1.0000
  C   C3787     1.0  0.80331  0.56890  0.63994  1.0000
  H   H6471     1.0  0.93548  0.90922  0.52944  1.0000
  C   C3788     1.0  0.97400  0.90889  0.63148  1.0000
  H   H6472     1.0  0.93521  0.84063  0.80378  1.0000
  H   H6473     1.0  0.89239  0.84100  0.77147  1.0000
  H   H6474     1.0  0.90386  0.90140  0.48594  1.0000
  C   C3789     1.0  0.79922  0.95657  0.58223  1.0000
  H   H6475     1.0  0.97049  0.94483  0.78953  1.0000
  H   H6476     1.0  0.83385  0.78322  0.50897  1.0000
  H   H6477     1.0  0.92434  0.81305  0.94024  1.0000
  H   H6478     1.0  0.96621  0.87467  0.50476  1.0000
  C   C3790     1.0  0.96135  0.49126  0.61958  1.0000
  C   C3791     1.0  0.81047  0.87138  0.55125  1.0000
  C   C3792     1.0  0.89902  0.62690  0.75186  1.0000
  C   C3793     1.0  0.95974  0.89365  0.60208  1.0000
  H   H6479     1.0  0.81253  0.63516  0.80920  1.0000
  Fe  Fe544     1.0  0.82846  0.49168  0.62338  1.0000
  H   H6480     1.0  0.84270  0.91107  0.51928  1.0000
  C   C3794     1.0  0.97691  0.83011  0.82810  1.0000
  H   H6481     1.0  0.91343  0.59837  0.78739  1.0000
  H   H6482     1.0  0.98243  0.89626  0.63837  1.0000
  H   H6483     1.0  0.81715  0.66959  0.91956  1.0000
  C   C3795     1.0  0.80698  0.81339  0.63908  1.0000
  H   H6484     1.0  0.79610  0.68622  0.92412  1.0000
  H   H6485     1.0  0.92600  0.61440  0.75785  1.0000
  H   H6486     1.0  0.81385  0.91074  0.51832  1.0000
  H   H6487     1.0  0.78920  0.72400  0.91264  1.0000
  H   H6488     1.0  0.89077  0.60358  0.78311  1.0000
  N   N271      1.0  0.91172  0.59215  0.76177  1.0000
  N   N272      1.0  0.82404  0.78132  0.55682  1.0000
  H   H6489     1.0  0.93285  0.56874  0.73536  1.0000
  H   H6490     1.0  0.95481  0.87987  0.48654  1.0000
  H   H6491     1.0  0.96184  0.49792  0.60487  1.0000
  H   H6492     1.0  0.94472  0.58745  0.73281  1.0000
  H   H6493     1.0  0.89194  0.57870  0.80854  1.0000
  H   H6494     1.0  0.96534  0.91280  0.57656  1.0000
  H   H6495     1.0  0.93669  0.48374  0.81237  1.0000
  S   S1084     1.0  0.79366  0.65754  0.49790  1.0000
  H   H6496     1.0  0.92268  0.61105  0.73723  1.0000
  H   H6497     1.0  0.79703  0.51317  0.74069  1.0000
  H   H6498     1.0  0.81475  0.67556  0.76362  1.0000
  H   H6499     1.0  0.81202  0.81141  0.57822  1.0000
  C   C3796     1.0  0.80390  0.63958  0.79854  1.0000
  H   H6500     1.0  0.80394  0.71810  0.86009  1.0000
  C   C3797     1.0  0.93244  0.48342  0.60497  1.0000
  C   C3798     1.0  0.79304  0.66975  0.89215  1.0000
  H   H6501     1.0  0.90979  0.73456  0.96191  1.0000
  H   H6502     1.0  0.83180  0.94265  0.62943  1.0000
  H   H6503     1.0  0.81587  0.68842  0.93036  1.0000
  H   H6504     1.0  0.80127  0.57671  0.55343  1.0000
  C   C3799     1.0  0.97872  0.65140  0.81743  1.0000
  H   H6505     1.0  0.93410  0.67605  0.81265  1.0000
  H   H6506     1.0  0.96614  0.68473  0.82507  1.0000
  H   H6507     1.0  0.97524  0.80042  0.91367  1.0000
  C   C3800     1.0  0.97956  0.91932  0.95774  1.0000
  H   H6508     1.0  0.91850  0.48233  0.60391  1.0000
  C   C3801     1.0  0.78673  0.50336  0.78609  1.0000
  C   C3802     1.0  0.78590  0.70853  0.89332  1.0000
  H   H6509     1.0  0.97509  0.94886  0.82041  1.0000
  S   S1085     1.0  0.84608  0.86182  0.47227  1.0000
  H   H6510     1.0  0.96500  0.90675  0.48301  1.0000
  H   H6511     1.0  0.89553  0.48104  0.65339  1.0000
  H   H6512     1.0  0.79337  0.89925  0.56425  1.0000
  C   C3803     1.0  0.79305  0.50139  0.73769  1.0000
  C   C3804     1.0  0.98272  0.96233  0.87514  1.0000
  H   H6513     1.0  0.78841  0.54435  0.69962  1.0000
  C   C3805     1.0  0.97962  0.95567  0.72834  1.0000
  H   H6514     1.0  0.98128  0.90530  0.71980  1.0000
  H   H6515     1.0  0.79004  0.81802  0.57192  1.0000
  C   C3806     1.0  0.79750  0.68096  0.74387  1.0000
  S   S1086     1.0  0.78673  0.52730  0.67065  1.0000
  H   H6516     1.0  0.79112  0.92683  0.54103  1.0000
  H   H6517     1.0  0.98181  0.71052  0.83678  1.0000
  H   H6518     1.0  0.97746  0.79435  0.47931  1.0000
  H   H6519     1.0  0.98421  0.68797  0.88026  1.0000
  C   C3807     1.0  0.98358  0.89809  0.96136  1.0000
  H   H6520     1.0  0.78872  0.96577  0.66058  1.0000
  H   H6521     1.0  0.79013  0.76820  0.58492  1.0000
  S   S1087     1.0  0.78548  0.66480  0.54834  1.0000
  S   S1088     1.0  0.98440  0.76872  0.85327  1.0000
  H   H6522     1.0  0.78739  0.59805  0.66660  1.0000
  H   H6523     1.0  0.78748  0.66361  0.80860  1.0000
  H   H6524     1.0  0.78812  0.74552  0.50225  1.0000
  H   H6525     1.0  0.98454  0.97375  0.61621  1.0000
  H   H6526     1.0  0.95990  0.47553  0.80042  1.0000
  H   H6527     1.0  0.89932  0.84251  0.46969  1.0000
  C   C3808     1.0  0.92649  0.84651  0.46903  1.0000
  H   H6528     1.0  0.92586  0.47449  0.87755  1.0000
