data_image0
_chemical_formula_structural       FeSCFeSCFeSFeS3FeS2FeS2FeSFeS3FeS2FeSFe2S3C2H5C6H5NC2NHC6H4C6H7CH3CH9C3HCH4CH4C2HNC8H20CH3C2HC2H4CH5CN2CHC2H2CH3SH6CHC2H5S2CH4CHC2H2C2H2CH3CH2CH2CSHC2SFeSHFeS2FeSFeS3FeHSFeS2FeSFeS3CHC6H2CHC6H4C6H4C6H4C6H5CHCHFeCH7SCNCH5FeH3CH2CHCHCH2CH2NHC2HC3H9CH2CH8SHSH2NC8H25CH6CHC2HSCNCSC2H8CH2SC3H2CHCHC2HNH3C2H3C2H3CFeSH2FeSCSFeS2FeHSFeSHS3FeS2FeS2FeSFeS3H3C6H4C6H4C3H2CHCHSHNCH2C2H8C2H13C4H5CH2NC5HCH4CH8CH3NHC2H3C2NCH10C2H3CH2CH3NC4H2C2SCH2C2FeC3HCHCH2CH7C3H3CH3CHC2HC2HCH5CFeSCFeS2FeSFeHS2FeS2FeS2FeSFeS3FeS2FeSFe2S3HCH4C7H4C2HC2HC6H4C6H9NC8H12CH3CH4CHNHC2H3CH4NC8H20CH6C2H8C2NHCHC3HCHCH9C2H2CSCHCH3C2H7CHNC2H4C2H2CH2SHFeSFeSHFeS2FeSFeS3FeHSFeS2H2FeS3C8HCH2C6SCNC7H4C6H4C6H4CH6C2HNC8H27CHSH4C3HCSHNCH2C2H2C2HCH2CH10FeH12CH2CHCH2SHCH3CH3CFeSH2CH2CHCHCH6NHNCHC2H2CH3CNHCH4CH4FeSCHFeSCSFeS2FeHSFeSH2S2FeS2FeS2FeSFeS3CH2C6H3C7H4CH2C2H6C2H3CH2SNCHNC3H2NC3HCHC3H11C2H5CH2C5H4C2HCHCH6CHCHCNHCH3SHNC8H25CH3C3H4CH2CH3NCHCHCH2SCH2FeC2H7SH2CHCHC2H4CFeS2FeSFeHSFeS2FeS2FeSFeHS2FeS2FeS2FeHFeS3H5C6H4C6H5CH7CHC4H3C2H9SC3H4CHSH4CH2CH3NHNCH2CH3CHCHNHC3HC2HSC5HC2HCH4SCHCH2NH3C3H4C2H2C3H4CHCH4CHCH6FeH2CHCH3CH7CH2CFeS2FeS2FeSFeS3HSFeS2FeSCFeCFeS3CHCH2C6H4C6H5CH3C6H4C6H4C7H2CNHCHCH2CHCH6CHNCH2CH4C2HNCSHCH4CHSCH3CHCH5C2NHCH3NC8H27SH2CHCH2CH7C2HCH6CHCH4CH4C2H2CH2SH2NH5C2H2FeSC2HCFeS2HFeH2SFeHSFeS2HCFeS3FeS2FeS2FeSFeS3CHC2H3C6H4C6H5C2H4C6H6C2H4CHCH3NCHC4H4C3H3NHCH4CHSHCH2NC8H20NC8H9CH2SH5C2H3SHCHC3H8NC7H13CH2CFeH4C2HCHFeH4SHC2H2CH3S2FeS2FeSFeHSFeS2FeS2FeSFeHS2FeSHFeS2FeSFeS3H3CHC6H4C6H3CH3C2H4C3HCH4C2H9CH2SC2H3CH4CHCH7CH3CH3CHNSC2H7C2H3C2H8FeSCH4C3NC4HCHC6H3CH3CH3CHC4H3NCNC8H26C2HCH3CHCSNH14SC2NHCFeS2FeS2FeSFeS4HFeS2FeSHFeHFeS3HCH2C7H4C6H4C3H2C6H4C6H3C7H4NH2SCHCHNC5HC2H12CH10SCHC2HNH4C3H4CH2SHC2H3CHFeNC8H21CH6CH2C3NCHCNHCH2C2HCH3CHCH15C2H2C2HCH2C2H5S2H4FeS2CFeH2SFeS2FeS2C2FeS3FeS2FeS2FeSFeS3H2CNC2HC6H4C6H5C2H4C6H9C2H4C3HCH5CH5C5H3CH5CH4NH2C2SHCH3NC8H21SH4C2H2CHNHC4H4C2HCH3CHCH2CSH2CH3CNCH3CH6FeH3CH2FeH7CHCHC3H8C2HCHCH3C2HCH
_chemical_formula_sum              "Fe128 S256 C896 H1536 N64"
_cell_length_a       37.8902
_cell_length_b       39.5918
_cell_length_c       68.5107
_cell_angle_alpha    89.7336
_cell_angle_beta     89.5987
_cell_angle_gamma    89.5421

_space_group_name_H-M_alt    "P 1"
_space_group_IT_number       1

loop_
  _space_group_symop_operation_xyz
  'x, y, z'

loop_
  _atom_site_type_symbol
  _atom_site_label
  _atom_site_symmetry_multiplicity
  _atom_site_fract_x
  _atom_site_fract_y
  _atom_site_fract_z
  _atom_site_occupancy
  Fe  Fe1       1.0  0.35421  0.46901  0.07793  1.0000
  S   S1        1.0  0.39946  0.43175  0.07824  1.0000
  C   C1        1.0  0.44393  0.05868  0.04978  1.0000
  Fe  Fe2       1.0  0.32510  0.44058  0.03905  1.0000
  S   S2        1.0  0.36856  0.40203  0.03679  1.0000
  C   C2        1.0  0.45541  0.06314  0.07121  1.0000
  Fe  Fe3       1.0  0.35989  0.39307  0.06898  1.0000
  S   S3        1.0  0.34778  0.34056  0.08083  1.0000
  Fe  Fe4       1.0  0.40462  0.44423  0.04600  1.0000
  S   S4        1.0  0.45914  0.44726  0.03147  1.0000
  S   S5        1.0  0.31433  0.42930  0.07057  1.0000
  S   S6        1.0  0.36152  0.48392  0.04626  1.0000
  Fe  Fe5       1.0  0.39608  0.23136  0.17463  1.0000
  S   S7        1.0  0.34844  0.19902  0.16996  1.0000
  S   S8        1.0  0.41628  0.27577  0.15677  1.0000
  Fe  Fe6       1.0  0.41871  0.19280  0.21166  1.0000
  S   S9        1.0  0.37216  0.15794  0.21003  1.0000
  S   S10       1.0  0.46305  0.19658  0.23393  1.0000
  Fe  Fe7       1.0  0.38412  0.15516  0.17763  1.0000
  S   S11       1.0  0.39285  0.10413  0.16262  1.0000
  Fe  Fe8       1.0  0.34010  0.20474  0.20266  1.0000
  S   S12       1.0  0.28438  0.21592  0.21447  1.0000
  S   S13       1.0  0.43250  0.18737  0.18000  1.0000
  S   S14       1.0  0.38570  0.23966  0.20655  1.0000
  Fe  Fe9       1.0  0.18095  0.32852  0.29460  1.0000
  S   S15       1.0  0.14328  0.28545  0.29740  1.0000
  S   S16       1.0  0.22872  0.32878  0.27380  1.0000
  Fe  Fe10      1.0  0.14053  0.37067  0.32618  1.0000
  S   S17       1.0  0.10076  0.32931  0.33106  1.0000
  Fe  Fe11      1.0  0.14736  0.29331  0.32995  1.0000
  Fe  Fe12      1.0  0.10043  0.32561  0.29817  1.0000
  S   S18       1.0  0.05103  0.32006  0.27947  1.0000
  S   S19       1.0  0.18728  0.33524  0.32706  1.0000
  S   S20       1.0  0.13795  0.36823  0.29333  1.0000
  C   C3        1.0  0.03991  0.38727  0.26880  1.0000
  C   C4        1.0  0.02944  0.35364  0.26685  1.0000
  H   H1        1.0  0.19327  0.31994  0.21182  1.0000
  H   H2        1.0  0.06118  0.39343  0.27859  1.0000
  H   H3        1.0  0.17320  0.28433  0.22391  1.0000
  H   H4        1.0  0.41452  0.15174  0.05997  1.0000
  H   H5        1.0  0.17789  0.28524  0.19819  1.0000
  C   C5        1.0  0.27080  0.24495  0.23295  1.0000
  C   C6        1.0  0.29353  0.26926  0.24051  1.0000
  C   C7        1.0  0.28054  0.29405  0.25353  1.0000
  C   C8        1.0  0.24499  0.29428  0.25966  1.0000
  C   C9        1.0  0.22277  0.26886  0.25295  1.0000
  C   C10       1.0  0.23546  0.24473  0.23944  1.0000
  H   H6        1.0  0.32099  0.26930  0.23609  1.0000
  H   H7        1.0  0.29810  0.31330  0.25884  1.0000
  H   H8        1.0  0.19557  0.26829  0.25778  1.0000
  H   H9        1.0  0.21774  0.22579  0.23392  1.0000
  H   H10       1.0  0.42098  0.23811  0.11037  1.0000
  N   N1        1.0  0.11328  0.32506  0.22606  1.0000
  C   C11       1.0  0.46515  0.18880  0.09736  1.0000
  C   C12       1.0  0.17518  0.30593  0.03372  1.0000
  N   N2        1.0  0.14603  0.29730  0.01979  1.0000
  H   H11       1.0  0.12782  0.25095  0.22753  1.0000
  C   C13       1.0  0.39517  0.29461  0.13650  1.0000
  C   C14       1.0  0.40931  0.32431  0.12849  1.0000
  C   C15       1.0  0.39443  0.33929  0.11176  1.0000
  C   C16       1.0  0.36556  0.32431  0.10274  1.0000
  C   C17       1.0  0.35111  0.29481  0.11092  1.0000
  C   C18       1.0  0.36559  0.28019  0.12785  1.0000
  H   H12       1.0  0.43217  0.33566  0.13512  1.0000
  H   H13       1.0  0.40580  0.36195  0.10557  1.0000
  H   H14       1.0  0.32873  0.28314  0.10401  1.0000
  H   H15       1.0  0.35429  0.25744  0.13394  1.0000
  C   C19       1.0  0.36566  0.06096  0.10210  1.0000
  C   C20       1.0  0.35402  0.09357  0.10736  1.0000
  C   C21       1.0  0.36160  0.10704  0.12590  1.0000
  C   C22       1.0  0.38147  0.08823  0.13928  1.0000
  C   C23       1.0  0.39333  0.05575  0.13394  1.0000
  C   C24       1.0  0.38539  0.04211  0.11551  1.0000
  H   H16       1.0  0.33848  0.10827  0.09716  1.0000
  H   H17       1.0  0.35166  0.13170  0.12999  1.0000
  H   H18       1.0  0.40861  0.04093  0.14422  1.0000
  H   H19       1.0  0.37281  0.13382  0.06590  1.0000
  H   H20       1.0  0.10205  0.37663  0.21665  1.0000
  H   H21       1.0  0.42027  0.04222  0.05035  1.0000
  H   H22       1.0  0.36259  0.21292  0.10550  1.0000
  C   C25       1.0  0.44117  0.15804  0.12624  1.0000
  H   H23       1.0  0.12692  0.26841  0.25222  1.0000
  H   H24       1.0  0.40357  0.03287  0.01988  1.0000
  H   H25       1.0  0.37995  0.17127  0.10818  1.0000
  C   C26       1.0  0.15480  0.36884  0.24134  1.0000
  H   H26       1.0  0.20064  0.49333  0.06799  1.0000
  H   H27       1.0  0.12515  0.14194  0.32898  1.0000
  H   H28       1.0  0.16813  0.32852  0.04260  1.0000
  H   H29       1.0  0.15648  0.36927  0.02014  1.0000
  H   H30       1.0  0.41138  0.11409  0.07520  1.0000
  H   H31       1.0  0.14182  0.34346  0.20082  1.0000
  H   H32       1.0  0.07033  0.33703  0.19272  1.0000
  H   H33       1.0  0.12074  0.30412  0.19712  1.0000
  H   H34       1.0  0.03099  0.43896  0.25981  1.0000
  C   C27       1.0  0.47446  0.21126  0.13109  1.0000
  C   C28       1.0  0.14255  0.01688  0.33911  1.0000
  C   C29       1.0  0.47106  0.13789  0.13625  1.0000
  H   H35       1.0  0.46140  0.11207  0.13968  1.0000
  C   C30       1.0  0.05909  0.34683  0.20658  1.0000
  H   H36       1.0  0.11556  0.28302  0.06198  1.0000
  H   H37       1.0  0.43003  0.14120  0.11491  1.0000
  H   H38       1.0  0.21182  0.33682  0.01625  1.0000
  H   H39       1.0  0.23615  0.46998  0.05606  1.0000
  C   C31       1.0  0.08782  0.35378  0.22187  1.0000
  H   H40       1.0  0.39388  0.19802  0.08802  1.0000
  H   H41       1.0  0.07684  0.28540  0.21814  1.0000
  H   H42       1.0  0.09153  0.24398  0.24350  1.0000
  H   H43       1.0  0.13661  0.39082  0.24281  1.0000
  C   C32       1.0  0.17172  0.30115  0.21111  1.0000
  C   C33       1.0  0.11135  0.26308  0.23898  1.0000
  H   H44       1.0  0.43251  0.06056  0.08126  1.0000
  N   N3        1.0  0.31985  0.33493  0.19122  1.0000
  C   C34       1.0  0.31200  0.34850  0.21140  1.0000
  C   C35       1.0  0.35932  0.33017  0.18973  1.0000
  C   C36       1.0  0.30232  0.30095  0.18975  1.0000
  C   C37       1.0  0.30542  0.35942  0.17623  1.0000
  C   C38       1.0  0.27261  0.35321  0.21683  1.0000
  C   C39       1.0  0.38153  0.36229  0.19241  1.0000
  C   C40       1.0  0.30721  0.28170  0.17050  1.0000
  C   C41       1.0  0.32212  0.35835  0.15550  1.0000
  H   H45       1.0  0.32402  0.33186  0.22280  1.0000
  H   H46       1.0  0.32410  0.37375  0.21339  1.0000
  H   H47       1.0  0.36746  0.31916  0.17564  1.0000
  H   H48       1.0  0.36857  0.31144  0.20079  1.0000
  H   H49       1.0  0.31190  0.28387  0.20157  1.0000
  H   H50       1.0  0.27329  0.30312  0.19177  1.0000
  H   H51       1.0  0.27645  0.35597  0.17462  1.0000
  H   H52       1.0  0.30885  0.38585  0.18139  1.0000
  H   H53       1.0  0.25910  0.32871  0.21891  1.0000
  H   H54       1.0  0.27068  0.36628  0.23114  1.0000
  H   H55       1.0  0.25823  0.36896  0.20605  1.0000
  H   H56       1.0  0.40907  0.35692  0.18754  1.0000
  H   H57       1.0  0.37165  0.38391  0.18366  1.0000
  H   H58       1.0  0.38291  0.36953  0.20801  1.0000
  H   H59       1.0  0.29423  0.29487  0.15815  1.0000
  H   H60       1.0  0.29403  0.25682  0.17197  1.0000
  H   H61       1.0  0.33529  0.27626  0.16720  1.0000
  H   H62       1.0  0.30113  0.36259  0.14449  1.0000
  H   H63       1.0  0.33532  0.33446  0.15148  1.0000
  H   H64       1.0  0.34090  0.37947  0.15336  1.0000
  C   C42       1.0  0.13649  0.35986  0.00982  1.0000
  H   H65       1.0  0.12685  0.24892  0.04589  1.0000
  H   H66       1.0  0.42002  0.16049  0.13758  1.0000
  H   H67       1.0  0.10952  0.36317  0.01593  1.0000
  C   C43       1.0  0.10917  0.27103  0.04781  1.0000
  C   C44       1.0  0.40149  0.10573  0.04371  1.0000
  H   H68       1.0  0.48790  0.07642  0.24822  1.0000
  C   C45       1.0  0.22766  0.48288  0.06968  1.0000
  C   C46       1.0  0.47703  0.12873  0.24145  1.0000
  H   H69       1.0  0.16902  0.09472  0.32629  1.0000
  H   H70       1.0  0.28763  0.50085  0.04496  1.0000
  H   H71       1.0  0.12565  0.08186  0.33053  1.0000
  H   H72       1.0  0.40491  0.21634  0.13132  1.0000
  C   C47       1.0  0.11163  0.29707  0.03097  1.0000
  H   H73       1.0  0.27942  0.49625  0.07919  1.0000
  H   H74       1.0  0.10651  0.32204  0.03783  1.0000
  H   H75       1.0  0.45591  0.12314  0.23144  1.0000
  H   H76       1.0  0.49489  0.13493  0.12707  1.0000
  H   H77       1.0  0.13249  0.02818  0.32541  1.0000
  C   C48       1.0  0.38689  0.19729  0.10375  1.0000
  N   N4        1.0  0.43645  0.09005  0.03785  1.0000
  N   N5        1.0  0.45021  0.19226  0.11769  1.0000
  C   C49       1.0  0.41630  0.21245  0.11644  1.0000
  H   H78       1.0  0.46419  0.04253  0.04258  1.0000
  C   C50       1.0  0.49523  0.10230  0.25100  1.0000
  C   C51       1.0  0.40074  0.12744  0.06232  1.0000
  H   H79       1.0  0.46900  0.08698  0.07437  1.0000
  H   H80       1.0  0.22621  0.46296  0.08113  1.0000
  C   C52       1.0  0.02275  0.41305  0.25809  1.0000
  H   H81       1.0  0.37673  0.06938  0.01357  1.0000
  H   H82       1.0  0.47466  0.04287  0.07502  1.0000
  H   H83       1.0  0.03881  0.32928  0.21238  1.0000
  S   S21       1.0  0.35634  0.04574  0.07830  1.0000
  H   H84       1.0  0.07392  0.36177  0.23545  1.0000
  H   H85       1.0  0.17898  0.28526  0.04460  1.0000
  H   H86       1.0  0.49839  0.19647  0.13486  1.0000
  H   H87       1.0  0.44757  0.17299  0.08832  1.0000
  H   H88       1.0  0.17433  0.37088  0.25329  1.0000
  H   H89       1.0  0.23181  0.31430  0.03586  1.0000
  C   C53       1.0  0.14821  0.09371  0.33786  1.0000
  H   H90       1.0  0.04497  0.37088  0.20322  1.0000
  C   C54       1.0  0.21157  0.31244  0.02426  1.0000
  C   C55       1.0  0.00267  0.28581  0.00847  1.0000
  H   H91       1.0  0.08190  0.26090  0.04861  1.0000
  H   H92       1.0  0.11724  0.33747  0.25662  1.0000
  H   H93       1.0  0.16957  0.37053  0.22738  1.0000
  H   H94       1.0  0.15460  0.31595  0.24766  1.0000
  H   H95       1.0  0.16630  0.24556  0.02132  1.0000
  S   S22       1.0  0.27724  0.44573  0.01893  1.0000
  S   S23       1.0  0.33660  0.49975  0.10456  1.0000
  C   C56       1.0  0.13564  0.31894  0.20806  1.0000
  H   H96       1.0  0.46625  0.26449  0.12172  1.0000
  H   H97       1.0  0.14933  0.50519  0.32540  1.0000
  H   H98       1.0  0.39134  0.12244  0.03181  1.0000
  H   H99       1.0  0.46114  0.21600  0.14534  1.0000
  C   C57       1.0  0.13471  0.33526  0.24353  1.0000
  H   H100      1.0  0.07107  0.30096  0.24215  1.0000
  C   C58       1.0  0.09158  0.29435  0.23109  1.0000
  C   C59       1.0  0.46549  0.11579  0.03900  1.0000
  H   H101      1.0  0.38110  0.08589  0.04577  1.0000
  H   H102      1.0  0.21991  0.29183  0.01429  1.0000
  C   C60       1.0  0.15392  0.26332  0.01070  1.0000
  C   C61       1.0  0.47940  0.48194  0.01939  1.0000
  H   H103      1.0  0.08864  0.29390  0.02109  1.0000
  H   H104      1.0  0.46527  0.21355  0.08952  1.0000
  C   C62       1.0  0.40271  0.05676  0.01148  1.0000
  H   H105      1.0  0.46752  0.12697  0.05372  1.0000
  H   H106      1.0  0.45942  0.13775  0.02930  1.0000
  H   H107      1.0  0.39463  0.01705  0.11170  1.0000
  C   C63       1.0  0.48781  0.24567  0.12346  1.0000
  H   H108      1.0  0.19406  0.03927  0.33838  1.0000
  H   H109      1.0  0.45801  0.06616  0.01177  1.0000
  C   C64       1.0  0.43382  0.07986  0.01666  1.0000
  H   H110      1.0  0.10469  0.23401  0.01326  1.0000
  H   H111      1.0  0.47813  0.14932  0.15045  1.0000
  C   C65       1.0  0.48578  0.16233  0.24514  1.0000
  S   S24       1.0  0.13006  0.42316  0.33909  1.0000
  H   H112      1.0  0.50018  0.14470  0.09381  1.0000
  C   C66       1.0  0.00171  0.34621  0.25402  1.0000
  C   C67       1.0  0.30723  0.17812  0.64796  1.0000
  S   S25       1.0  0.43258  0.35323  0.64963  1.0000
  Fe  Fe13      1.0  0.42987  0.20034  0.54109  1.0000
  S   S26       1.0  0.38499  0.23520  0.53372  1.0000
  H   H113      1.0  0.21464  0.48219  0.46866  1.0000
  Fe  Fe14      1.0  0.38236  0.15348  0.56572  1.0000
  S   S27       1.0  0.33435  0.18585  0.55968  1.0000
  S   S28       1.0  0.36958  0.10465  0.58227  1.0000
  Fe  Fe15      1.0  0.35340  0.18786  0.52859  1.0000
  S   S29       1.0  0.32249  0.18249  0.50011  1.0000
  Fe  Fe16      1.0  0.37007  0.22986  0.56551  1.0000
  S   S30       1.0  0.34935  0.27451  0.58337  1.0000
  S   S31       1.0  0.39954  0.15317  0.53414  1.0000
  S   S32       1.0  0.41692  0.19757  0.57345  1.0000
  Fe  Fe17      1.0  0.08057  0.04514  0.45094  1.0000
  H   H114      1.0  0.47443  0.31512  0.49312  1.0000
  S   S33       1.0  0.02602  0.03191  0.46334  1.0000
  Fe  Fe18      1.0  0.10931  0.09977  0.42262  1.0000
  S   S34       1.0  0.16535  0.08168  0.42540  1.0000
  S   S35       1.0  0.08739  0.14237  0.40367  1.0000
  Fe  Fe19      1.0  0.14212  0.02939  0.42281  1.0000
  S   S36       1.0  0.13477  0.02259  0.45541  1.0000
  Fe  Fe20      1.0  0.15382  0.07652  0.45759  1.0000
  S   S37       1.0  0.18504  0.09423  0.48414  1.0000
  S   S38       1.0  0.08680  0.04803  0.41818  1.0000
  S   S39       1.0  0.09904  0.09846  0.45494  1.0000
  C   C68       1.0  0.00735  0.43608  0.46189  1.0000
  H   H115      1.0  0.33285  0.23990  0.65556  1.0000
  C   C69       1.0  0.10991  0.17269  0.38924  1.0000
  C   C70       1.0  0.09009  0.19642  0.37851  1.0000
  C   C71       1.0  0.10684  0.22065  0.36656  1.0000
  C   C72       1.0  0.14365  0.22145  0.36533  1.0000
  C   C73       1.0  0.16348  0.19776  0.37616  1.0000
  C   C74       1.0  0.14671  0.17336  0.38797  1.0000
  H   H116      1.0  0.06157  0.19600  0.37935  1.0000
  H   H117      1.0  0.01702  0.44059  0.47692  1.0000
  C   C75       1.0  0.48694  0.36252  0.60202  1.0000
  H   H118      1.0  0.16218  0.15493  0.39590  1.0000
  C   C76       1.0  0.16711  0.46995  0.39675  1.0000
  C   C77       1.0  0.14122  0.48578  0.38545  1.0000
  C   C78       1.0  0.12985  0.47080  0.36801  1.0000
  C   C79       1.0  0.14410  0.43975  0.36172  1.0000
  C   C80       1.0  0.16955  0.42357  0.37322  1.0000
  C   C81       1.0  0.18107  0.43871  0.39062  1.0000
  H   H119      1.0  0.21242  0.09635  0.34978  1.0000
  H   H120      1.0  0.11652  0.13184  0.35396  1.0000
  H   H121      1.0  0.18075  0.39970  0.36851  1.0000
  H   H122      1.0  0.20107  0.42619  0.39930  1.0000
  C   C82       1.0  0.28584  0.15561  0.49595  1.0000
  C   C83       1.0  0.27609  0.14816  0.47664  1.0000
  C   C84       1.0  0.24623  0.12821  0.47271  1.0000
  C   C85       1.0  0.22514  0.11629  0.48807  1.0000
  C   C86       1.0  0.23503  0.12357  0.50735  1.0000
  C   C87       1.0  0.26531  0.14285  0.51130  1.0000
  H   H123      1.0  0.29189  0.15773  0.46466  1.0000
  H   H124      1.0  0.23939  0.12224  0.45785  1.0000
  H   H125      1.0  0.21899  0.11444  0.51936  1.0000
  H   H126      1.0  0.27235  0.14839  0.52621  1.0000
  C   C88       1.0  0.37281  0.29626  0.60170  1.0000
  C   C89       1.0  0.35912  0.32684  0.60905  1.0000
  C   C90       1.0  0.37678  0.34456  0.62385  1.0000
  C   C91       1.0  0.40834  0.33177  0.63148  1.0000
  C   C92       1.0  0.42189  0.30110  0.62418  1.0000
  C   C93       1.0  0.40420  0.28338  0.60943  1.0000
  H   H127      1.0  0.33468  0.33689  0.60325  1.0000
  H   H128      1.0  0.36604  0.36812  0.62931  1.0000
  H   H129      1.0  0.44621  0.29092  0.63005  1.0000
  H   H130      1.0  0.41473  0.25963  0.60415  1.0000
  C   C94       1.0  0.41591  0.05418  0.63723  1.0000
  C   C95       1.0  0.38452  0.04269  0.62905  1.0000
  C   C96       1.0  0.37069  0.05866  0.61230  1.0000
  C   C97       1.0  0.38797  0.08627  0.60357  1.0000
  C   C98       1.0  0.41915  0.09800  0.61186  1.0000
  C   C99       1.0  0.43305  0.08195  0.62858  1.0000
  H   H131      1.0  0.24990  0.18411  0.64853  1.0000
  H   H132      1.0  0.34649  0.04949  0.60601  1.0000
  H   H133      1.0  0.43278  0.11912  0.60525  1.0000
  H   H134      1.0  0.45736  0.09100  0.63481  1.0000
  H   H135      1.0  0.44231  0.22165  0.44880  1.0000
  C   C100      1.0  0.21638  0.07099  0.37742  1.0000
  H   H136      1.0  0.20017  0.06105  0.38960  1.0000
  C   C101      1.0  0.43434  0.01133  0.58610  1.0000
  H   H137      1.0  0.02215  0.48624  0.45320  1.0000
  Fe  Fe21      1.0  0.42634  0.47687  0.67157  1.0000
  C   C102      1.0  0.47884  0.26836  0.50938  1.0000
  H   H138      1.0  0.02873  0.50374  0.41532  1.0000
  H   H139      1.0  0.45105  0.26745  0.51306  1.0000
  H   H140      1.0  0.18040  0.02290  0.36147  1.0000
  H   H141      1.0  0.36309  0.21917  0.61515  1.0000
  H   H142      1.0  0.37723  0.24342  0.64597  1.0000
  H   H143      1.0  0.34269  0.26954  0.63672  1.0000
  H   H144      1.0  0.23122  0.04980  0.37057  1.0000
  S   S40       1.0  0.38065  0.44283  0.66486  1.0000
  C   C103      1.0  0.45181  0.20936  0.46229  1.0000
  N   N6        1.0  0.16116  0.07350  0.35517  1.0000
  C   C104      1.0  0.32893  0.16009  0.61516  1.0000
  H   H145      1.0  0.13511  0.09681  0.38005  1.0000
  H   H146      1.0  0.04017  0.41821  0.42073  1.0000
  H   H147      1.0  0.47725  0.26120  0.55594  1.0000
  H   H148      1.0  0.44380  0.18243  0.46254  1.0000
  H   H149      1.0  0.29032  0.19176  0.59903  1.0000
  Fe  Fe22      1.0  0.42005  0.39996  0.66812  1.0000
  H   H150      1.0  0.31806  0.22761  0.61769  1.0000
  H   H151      1.0  0.14310  0.05336  0.38287  1.0000
  H   H152      1.0  0.08900  0.42153  0.40099  1.0000
  C   C105      1.0  0.06391  0.42013  0.43016  1.0000
  H   H153      1.0  0.31773  0.18467  0.66261  1.0000
  H   H154      1.0  0.00743  0.46039  0.43398  1.0000
  C   C106      1.0  0.37065  0.16998  0.64125  1.0000
  H   H155      1.0  0.29287  0.14872  0.59178  1.0000
  C   C107      1.0  0.34879  0.24370  0.64217  1.0000
  H   H156      1.0  0.46333  0.28930  0.58776  1.0000
  C   C108      1.0  0.49181  0.21273  0.46563  1.0000
  H   H157      1.0  0.06271  0.39811  0.44031  1.0000
  H   H158      1.0  0.26942  0.21068  0.63061  1.0000
  C   C109      1.0  0.09589  0.41466  0.41625  1.0000
  H   H159      1.0  0.49044  0.34011  0.61163  1.0000
  H   H160      1.0  0.49606  0.23599  0.47423  1.0000
  N   N7        1.0  0.06264  0.45280  0.44147  1.0000
  H   H161      1.0  0.35350  0.13461  0.66459  1.0000
  C   C110      1.0  0.07574  0.48262  0.42977  1.0000
  C   C111      1.0  0.08351  0.44998  0.46010  1.0000
  H   H162      1.0  0.40481  0.30961  0.54339  1.0000
  C   C112      1.0  0.48739  0.29695  0.57964  1.0000
  C   C113      1.0  0.23050  0.50532  0.47094  1.0000
  C   C114      1.0  0.12334  0.44294  0.45805  1.0000
  H   H163      1.0  0.29909  0.15116  0.64910  1.0000
  H   H164      1.0  0.40321  0.33134  0.56598  1.0000
  H   H165      1.0  0.32938  0.13284  0.61900  1.0000
  H   H166      1.0  0.10352  0.47949  0.42503  1.0000
  H   H167      1.0  0.07871  0.08588  0.37283  1.0000
  H   H168      1.0  0.45256  0.35229  0.54524  1.0000
  H   H169      1.0  0.07353  0.42913  0.46950  1.0000
  H   H170      1.0  0.08037  0.47352  0.46879  1.0000
  H   H171      1.0  0.46038  0.17278  0.43046  1.0000
  C   C115      1.0  0.26871  0.49865  0.46393  1.0000
  H   H172      1.0  0.12035  0.42768  0.42038  1.0000
  H   H173      1.0  0.28617  0.46605  0.65365  1.0000
  C   C116      1.0  0.34753  0.48737  0.46590  1.0000
  H   H174      1.0  0.18784  0.11551  0.36894  1.0000
  H   H175      1.0  0.33311  0.46330  0.46421  1.0000
  H   H176      1.0  0.12859  0.41713  0.45246  1.0000
  H   H177      1.0  0.13544  0.44412  0.47275  1.0000
  H   H178      1.0  0.37090  0.02155  0.63564  1.0000
  H   H179      1.0  0.47264  0.38172  0.61093  1.0000
  H   H180      1.0  0.10250  0.38728  0.41579  1.0000
  H   H181      1.0  0.50044  0.24388  0.57606  1.0000
  S   S41       1.0  0.16635  0.25107  0.35047  1.0000
  H   H182      1.0  0.36300  0.11421  0.64161  1.0000
  S   S42       1.0  0.18248  0.48836  0.41860  1.0000
  H   H183      1.0  0.42052  0.28849  0.56466  1.0000
  H   H184      1.0  0.04931  0.46897  0.40218  1.0000
  N   N8        1.0  0.16376  0.19774  0.45613  1.0000
  C   C117      1.0  0.12926  0.19009  0.46642  1.0000
  C   C118      1.0  0.19152  0.19988  0.47179  1.0000
  C   C119      1.0  0.17222  0.16807  0.44312  1.0000
  C   C120      1.0  0.15948  0.22983  0.44440  1.0000
  C   C121      1.0  0.09580  0.18981  0.45363  1.0000
  C   C122      1.0  0.18867  0.23043  0.48564  1.0000
  C   C123      1.0  0.20558  0.17069  0.43020  1.0000
  C   C124      1.0  0.19357  0.24795  0.43759  1.0000
  H   H185      1.0  0.13086  0.16522  0.47416  1.0000
  H   H186      1.0  0.12342  0.20900  0.47793  1.0000
  H   H187      1.0  0.21866  0.19989  0.46576  1.0000
  H   H188      1.0  0.19085  0.17681  0.48116  1.0000
  H   H189      1.0  0.17484  0.14459  0.45205  1.0000
  H   H190      1.0  0.15043  0.16329  0.43278  1.0000
  H   H191      1.0  0.14366  0.22481  0.43105  1.0000
  H   H192      1.0  0.14365  0.24868  0.45284  1.0000
  H   H193      1.0  0.09016  0.21484  0.44697  1.0000
  H   H194      1.0  0.09681  0.17043  0.44210  1.0000
  H   H195      1.0  0.07271  0.18347  0.46300  1.0000
  H   H196      1.0  0.16607  0.22818  0.49591  1.0000
  H   H197      1.0  0.21278  0.23105  0.49480  1.0000
  H   H198      1.0  0.18716  0.25485  0.47775  1.0000
  H   H199      1.0  0.20990  0.14615  0.42273  1.0000
  H   H200      1.0  0.22993  0.17556  0.43850  1.0000
  H   H201      1.0  0.20220  0.18982  0.41849  1.0000
  H   H202      1.0  0.19382  0.25030  0.42140  1.0000
  H   H203      1.0  0.21853  0.23549  0.44184  1.0000
  H   H204      1.0  0.19400  0.27412  0.44337  1.0000
  H   H205      1.0  0.09130  0.23869  0.35830  1.0000
  H   H206      1.0  0.43937  0.34399  0.58985  1.0000
  H   H207      1.0  0.08973  0.06288  0.35132  1.0000
  H   H208      1.0  0.47984  0.23261  0.42622  1.0000
  H   H209      1.0  0.19199  0.19817  0.37522  1.0000
  C   C125      1.0  0.49788  0.26683  0.56676  1.0000
  H   H210      1.0  0.27087  0.15838  0.61403  1.0000
  H   H211      1.0  0.40549  0.01568  0.58489  1.0000
  H   H212      1.0  0.39173  0.16955  0.62977  1.0000
  H   H213      1.0  0.38002  0.18769  0.65259  1.0000
  H   H214      1.0  0.23624  0.08816  0.38380  1.0000
  H   H215      1.0  0.43744  0.22259  0.47427  1.0000
  C   C126      1.0  0.29356  0.16566  0.60468  1.0000
  H   H216      1.0  0.27252  0.22070  0.65615  1.0000
  C   C127      1.0  0.45631  0.32723  0.55244  1.0000
  C   C128      1.0  0.19425  0.09063  0.36222  1.0000
  H   H217      1.0  0.46732  0.31050  0.54096  1.0000
  S   S43       1.0  0.46633  0.43462  0.67270  1.0000
  C   C129      1.0  0.09587  0.06537  0.36693  1.0000
  N   N9        1.0  0.33593  0.18182  0.63273  1.0000
  C   C130      1.0  0.46454  0.35424  0.58393  1.0000
  S   S44       1.0  0.43472  0.03490  0.65818  1.0000
  C   C131      1.0  0.37062  0.13498  0.65140  1.0000
  C   C132      1.0  0.49215  0.29531  0.49802  1.0000
  H   H218      1.0  0.48887  0.14069  0.42104  1.0000
  H   H219      1.0  0.35026  0.16350  0.60405  1.0000
  H   H220      1.0  0.49867  0.19222  0.47612  1.0000
  H   H221      1.0  0.49063  0.18195  0.41059  1.0000
  H   H222      1.0  0.11001  0.48335  0.35925  1.0000
  H   H223      1.0  0.13701  0.46201  0.44900  1.0000
  H   H224      1.0  0.44687  0.02623  0.57418  1.0000
  H   H225      1.0  0.37361  0.48374  0.45864  1.0000
  C   C133      1.0  0.41932  0.31339  0.55724  1.0000
  H   H226      1.0  0.27815  0.47655  0.47256  1.0000
  H   H227      1.0  0.45742  0.37865  0.57672  1.0000
  S   S45       1.0  0.48606  0.20732  0.52943  1.0000
  C   C134      1.0  0.34098  0.21782  0.62596  1.0000
  C   C135      1.0  0.13494  0.07256  0.37186  1.0000
  C   C136      1.0  0.05419  0.49137  0.41137  1.0000
  H   H228      1.0  0.39782  0.12901  0.65639  1.0000
  H   H229      1.0  0.44395  0.02188  0.60001  1.0000
  C   C137      1.0  0.17132  0.03827  0.34879  1.0000
  H   H230      1.0  0.35266  0.49215  0.48155  1.0000
  C   C138      1.0  0.27338  0.19989  0.64532  1.0000
  H   H231      1.0  0.12070  0.01107  0.34934  1.0000
  C   C139      1.0  0.13688  0.13043  0.34229  1.0000
  C   C140      1.0  0.03400  0.49875  0.50715  1.0000
  H   H232      1.0  0.15971  0.14636  0.34615  1.0000
  N   N10       1.0  0.48130  0.33029  0.56939  1.0000
  H   H233      1.0  0.48620  0.27816  0.45233  1.0000
  H   H234      1.0  0.26703  0.48987  0.44850  1.0000
  H   H235      1.0  0.40183  0.50244  0.62567  1.0000
  C   C141      1.0  0.02470  0.46039  0.44705  1.0000
  C   C142      1.0  0.01434  0.00856  0.48464  1.0000
  H   H236      1.0  0.08743  0.04158  0.37418  1.0000
  H   H237      1.0  0.05235  0.48618  0.51685  1.0000
  H   H238      1.0  0.49473  0.29093  0.42773  1.0000
  C   C143      1.0  0.48716  0.16802  0.42458  1.0000
  C   C144      1.0  0.29032  0.48294  0.66632  1.0000
  H   H239      1.0  0.01125  0.40921  0.45789  1.0000
  H   H240      1.0  0.07588  0.50568  0.43904  1.0000
  H   H241      1.0  0.22993  0.35777  0.92247  1.0000
  C   C145      1.0  0.00542  0.15856  0.74159  1.0000
  Fe  Fe23      1.0  0.45371  0.43013  0.70470  1.0000
  S   S46       1.0  0.40974  0.39336  0.70043  1.0000
  H   H242      1.0  0.01037  0.19760  0.98470  1.0000
  H   H243      1.0  0.31531  0.41539  0.78350  1.0000
  Fe  Fe24      1.0  0.37417  0.43924  0.69771  1.0000
  S   S47       1.0  0.32050  0.44129  0.71330  1.0000
  C   C146      1.0  0.14916  0.21447  0.79740  1.0000
  S   S48       1.0  0.41738  0.47551  0.70408  1.0000
  Fe  Fe25      1.0  0.16558  0.10528  0.81990  1.0000
  S   S49       1.0  0.11935  0.07157  0.82667  1.0000
  S   S50       1.0  0.18093  0.15525  0.83390  1.0000
  Fe  Fe26      1.0  0.19045  0.06196  0.78479  1.0000
  H   H244      1.0  0.40331  0.01630  0.75157  1.0000
  S   S51       1.0  0.23117  0.06240  0.75981  1.0000
  Fe  Fe27      1.0  0.11104  0.07202  0.79398  1.0000
  S   S52       1.0  0.05600  0.07587  0.78040  1.0000
  H   H245      1.0  0.12228  0.31632  0.99332  1.0000
  S   S53       1.0  0.17702  0.46782  0.83390  1.0000
  S   S54       1.0  0.15500  0.10787  0.78758  1.0000
  S   S55       1.0  0.20450  0.06232  0.81658  1.0000
  Fe  Fe28      1.0  0.16820  0.32377  0.94870  1.0000
  S   S56       1.0  0.12360  0.35977  0.95405  1.0000
  S   S57       1.0  0.22204  0.32878  0.96312  1.0000
  Fe  Fe29      1.0  0.12279  0.27825  0.92272  1.0000
  S   S58       1.0  0.07491  0.31204  0.92647  1.0000
  S   S59       1.0  0.11314  0.22699  0.90857  1.0000
  Fe  Fe30      1.0  0.11293  0.35482  0.92195  1.0000
  S   S60       1.0  0.09709  0.40385  0.90689  1.0000
  Fe  Fe31      1.0  0.08948  0.31393  0.95813  1.0000
  S   S61       1.0  0.05122  0.31566  0.98407  1.0000
  S   S62       1.0  0.16006  0.32121  0.91603  1.0000
  S   S63       1.0  0.13516  0.27791  0.95487  1.0000
  H   H246      1.0  0.02092  0.19366  0.79260  1.0000
  H   H247      1.0  0.13158  0.22377  0.99256  1.0000
  H   H248      1.0  0.04590  0.24525  0.97165  1.0000
  C   C147      1.0  0.15213  0.44960  0.85314  1.0000
  C   C148      1.0  0.15984  0.41624  0.85895  1.0000
  C   C149      1.0  0.14221  0.40139  0.87495  1.0000
  C   C150      1.0  0.11699  0.41998  0.88541  1.0000
  C   C151      1.0  0.10878  0.45310  0.87938  1.0000
  C   C152      1.0  0.12627  0.46789  0.86331  1.0000
  H   H249      1.0  0.17970  0.40190  0.85108  1.0000
  H   H250      1.0  0.14842  0.37575  0.87933  1.0000
  H   H251      1.0  0.08921  0.46760  0.88739  1.0000
  H   H252      1.0  0.05760  0.13281  0.82821  1.0000
  C   C153      1.0  0.16374  0.17349  0.85564  1.0000
  C   C154      1.0  0.13717  0.15796  0.86662  1.0000
  C   C155      1.0  0.12259  0.17447  0.88303  1.0000
  C   C156      1.0  0.13423  0.20669  0.88857  1.0000
  C   C157      1.0  0.16114  0.22203  0.87773  1.0000
  C   C158      1.0  0.17585  0.20544  0.86138  1.0000
  H   H253      1.0  0.12764  0.13338  0.86241  1.0000
  H   H254      1.0  0.10185  0.16238  0.89136  1.0000
  H   H255      1.0  0.17037  0.24676  0.88185  1.0000
  H   H256      1.0  0.19644  0.21763  0.85297  1.0000
  C   C159      1.0  0.30315  0.47306  0.72908  1.0000
  C   C160      1.0  0.26868  0.46970  0.73656  1.0000
  C   C161      1.0  0.14357  0.32302  0.00355  1.0000
  H   H257      1.0  0.48826  0.40282  0.92086  1.0000
  H   H258      1.0  0.17399  0.26578  0.99880  1.0000
  C   C162      1.0  0.33669  0.42684  0.77454  1.0000
  H   H259      1.0  0.25357  0.44748  0.73305  1.0000
  C   C163      1.0  0.03893  0.16353  0.74981  1.0000
  H   H260      1.0  0.28566  0.06254  0.73061  1.0000
  S   S64       1.0  0.49642  0.42882  0.72817  1.0000
  H   H261      1.0  0.15838  0.43110  0.95391  1.0000
  N   N11       1.0  0.13475  0.04913  0.72518  1.0000
  C   C164      1.0  0.19188  0.01801  0.71428  1.0000
  H   H262      1.0  0.10969  0.01784  0.68005  1.0000
  H   H263      1.0  0.12409  0.11986  0.71266  1.0000
  C   C165      1.0  0.23595  0.36091  0.97931  1.0000
  C   C166      1.0  0.21515  0.38945  0.98331  1.0000
  H   H264      1.0  0.17715  0.08474  0.71934  1.0000
  H   H265      1.0  0.18952  0.39208  0.97667  1.0000
  H   H266      1.0  0.05570  0.23575  0.85878  1.0000
  H   H267      1.0  0.14157  0.22445  0.78286  1.0000
  H   H268      1.0  0.27356  0.37445  0.91698  1.0000
  H   H269      1.0  0.33468  0.45442  0.77729  1.0000
  H   H270      1.0  0.10907  0.11430  0.73766  1.0000
  H   H271      1.0  0.20992  0.03976  0.71555  1.0000
  C   C167      1.0  0.05496  0.13844  0.76155  1.0000
  C   C168      1.0  0.03761  0.10799  0.76523  1.0000
  H   H272      1.0  0.06419  0.25709  0.82493  1.0000
  H   H273      1.0  0.08067  0.14265  0.76780  1.0000
  H   H274      1.0  0.25703  0.39836  0.94546  1.0000
  H   H275      1.0  0.24578  0.47022  0.93017  1.0000
  H   H276      1.0  0.08444  0.20248  0.78104  1.0000
  H   H277      1.0  0.41171  0.42084  0.97191  1.0000
  H   H278      1.0  0.10501  0.16743  0.82828  1.0000
  H   H279      1.0  0.10228  0.16132  0.80319  1.0000
  H   H280      1.0  0.14910  0.13584  0.73249  1.0000
  H   H281      1.0  0.10590  0.26186  0.99248  1.0000
  H   H282      1.0  0.08035  0.24574  0.78766  1.0000
  H   H283      1.0  0.07478  0.19583  0.85270  1.0000
  H   H284      1.0  0.08158  0.06334  0.73436  1.0000
  C   C169      1.0  0.20317  0.45708  0.90315  1.0000
  C   C170      1.0  0.02829  0.24920  0.98395  1.0000
  C   C171      1.0  0.28134  0.03646  0.73469  1.0000
  C   C172      1.0  0.12195  0.05071  0.70441  1.0000
  H   H285      1.0  0.47930  0.35653  0.73099  1.0000
  H   H286      1.0  0.28554  0.33594  0.98516  1.0000
  H   H287      1.0  0.31180  0.47161  0.67505  1.0000
  H   H288      1.0  0.43728  0.44429  0.94147  1.0000
  H   H289      1.0  0.35898  0.02954  0.75663  1.0000
  C   C173      1.0  0.13238  0.11443  0.72785  1.0000
  H   H290      1.0  0.37624  0.43773  0.74297  1.0000
  H   H291      1.0  0.01813  0.23882  0.79724  1.0000
  N   N12       1.0  0.40131  0.40827  0.76616  1.0000
  C   C174      1.0  0.43692  0.40890  0.77600  1.0000
  C   C175      1.0  0.40125  0.43626  0.75114  1.0000
  C   C176      1.0  0.39824  0.37476  0.75592  1.0000
  C   C177      1.0  0.37275  0.41255  0.78148  1.0000
  C   C178      1.0  0.44537  0.37926  0.78996  1.0000
  H   H292      1.0  0.16537  0.08069  0.74435  1.0000
  C   C179      1.0  0.36375  0.36832  0.74487  1.0000
  H   H293      1.0  0.05257  0.18697  0.74702  1.0000
  H   H294      1.0  0.45856  0.40968  0.76495  1.0000
  H   H295      1.0  0.10100  0.23404  0.85209  1.0000
  H   H296      1.0  0.48342  0.46523  0.92132  1.0000
  C   C180      1.0  0.26397  0.42530  0.94435  1.0000
  H   H297      1.0  0.42051  0.37141  0.74535  1.0000
  H   H298      1.0  0.40027  0.35341  0.76644  1.0000
  H   H299      1.0  0.36774  0.38809  0.78907  1.0000
  H   H300      1.0  0.38174  0.43026  0.79299  1.0000
  H   H301      1.0  0.22603  0.45177  0.87358  1.0000
  H   H302      1.0  0.14326  0.05900  0.69421  1.0000
  H   H303      1.0  0.29321  0.42638  0.94510  1.0000
  H   H304      1.0  0.13546  0.21789  0.82758  1.0000
  C   C181      1.0  0.03211  0.21859  0.78904  1.0000
  H   H305      1.0  0.35798  0.38790  0.73377  1.0000
  H   H306      1.0  0.34109  0.36546  0.75506  1.0000
  H   H307      1.0  0.27437  0.44516  0.91541  1.0000
  N   N13       1.0  0.21980  0.42934  0.91536  1.0000
  H   H308      1.0  0.40196  0.49096  0.74767  1.0000
  C   C182      1.0  0.19171  0.41671  0.92926  1.0000
  C   C183      1.0  0.23051  0.40111  0.90177  1.0000
  H   H309      1.0  0.42736  0.46227  0.97658  1.0000
  H   H310      1.0  0.07626  0.01836  0.69890  1.0000
  H   H311      1.0  0.02642  0.22344  0.77338  1.0000
  C   C184      1.0  0.24695  0.36930  0.91112  1.0000
  C   C185      1.0  0.25628  0.02881  0.74928  1.0000
  N   N14       1.0  0.49042  0.45305  0.95189  1.0000
  C   C186      1.0  0.28182  0.38322  0.00064  1.0000
  H   H312      1.0  0.20145  0.39632  0.93896  1.0000
  H   H313      1.0  0.16991  0.40477  0.92097  1.0000
  H   H314      1.0  0.20734  0.39275  0.89318  1.0000
  H   H315      1.0  0.25045  0.40981  0.89093  1.0000
  H   H316      1.0  0.19679  0.47962  0.91220  1.0000
  H   H317      1.0  0.17749  0.44881  0.89723  1.0000
  H   H318      1.0  0.42165  0.43111  0.73974  1.0000
  H   H319      1.0  0.36635  0.34408  0.73686  1.0000
  H   H320      1.0  0.45209  0.35592  0.78175  1.0000
  H   H321      1.0  0.47941  0.48951  0.97445  1.0000
  C   C187      1.0  0.48636  0.48897  0.95873  1.0000
  C   C188      1.0  0.30061  0.01068  0.72512  1.0000
  H   H322      1.0  0.43993  0.43227  0.78478  1.0000
  H   H323      1.0  0.25057  0.34981  0.89964  1.0000
  H   H324      1.0  0.11160  0.05742  0.75380  1.0000
  C   C189      1.0  0.07490  0.22304  0.84886  1.0000
  H   H325      1.0  0.42362  0.37433  0.80047  1.0000
  H   H326      1.0  0.04463  0.14371  0.80386  1.0000
  C   C190      1.0  0.26925  0.35793  0.98810  1.0000
  H   H327      1.0  0.15265  0.18670  0.79675  1.0000
  H   H328      1.0  0.17554  0.22495  0.80077  1.0000
  H   H329      1.0  0.19464  0.45918  0.95007  1.0000
  N   N15       1.0  0.08600  0.21146  0.81223  1.0000
  C   C191      1.0  0.12294  0.22539  0.81360  1.0000
  C   C192      1.0  0.22516  0.47028  0.88571  1.0000
  C   C193      1.0  0.07237  0.21971  0.79207  1.0000
  C   C194      1.0  0.08818  0.17377  0.81551  1.0000
  H   H330      1.0  0.46926  0.38548  0.79852  1.0000
  H   H331      1.0  0.12241  0.25356  0.81362  1.0000
  C   C195      1.0  0.05327  0.15433  0.81799  1.0000
  C   C196      1.0  0.15423  0.08144  0.72935  1.0000
  S   S65       1.0  0.14547  0.02598  0.78886  1.0000
  C   C197      1.0  0.40841  0.47195  0.75909  1.0000
  H   H332      1.0  0.10143  0.07080  0.70280  1.0000
  H   H333      1.0  0.03571  0.22238  0.82676  1.0000
  C   C198      1.0  0.22794  0.41501  0.99563  1.0000
  C   C199      1.0  0.06390  0.22926  0.82752  1.0000
  Fe  Fe32      1.0  0.15751  0.02831  0.82109  1.0000
  C   C200      1.0  0.10400  0.04715  0.73933  1.0000
  C   C201      1.0  0.00429  0.10287  0.75685  1.0000
  C   C202      1.0  0.12203  0.24499  0.00180  1.0000
  H   H334      1.0  0.16788  0.32284  0.99435  1.0000
  C   C203      1.0  0.43600  0.43629  0.97275  1.0000
  H   H335      1.0  0.03144  0.16908  0.82453  1.0000
  C   C204      1.0  0.45565  0.43481  0.95289  1.0000
  H   H336      1.0  0.15638  0.46031  0.93419  1.0000
  H   H337      1.0  0.32998  0.42180  0.75917  1.0000
  C   C205      1.0  0.02571  0.28112  0.99251  1.0000
  H   H338      1.0  0.22653  0.49226  0.75378  1.0000
  H   H339      1.0  0.39218  0.47793  0.77214  1.0000
  H   H340      1.0  0.45194  0.42565  0.98486  1.0000
  H   H341      1.0  0.45947  0.40750  0.94966  1.0000
  H   H342      1.0  0.17122  0.02169  0.74372  1.0000
  H   H343      1.0  0.13775  0.37636  0.99670  1.0000
  H   H344      1.0  0.18329  0.01521  0.69896  1.0000
  C   C206      1.0  0.00809  0.22224  0.99137  1.0000
  C   C207      1.0  0.26141  0.41212  0.00432  1.0000
  C   C208      1.0  0.25144  0.44371  0.92562  1.0000
  H   H345      1.0  0.43682  0.47513  0.76244  1.0000
  H   H346      1.0  0.25432  0.43874  0.95757  1.0000
  H   H347      1.0  0.12012  0.49357  0.85897  1.0000
  C   C209      1.0  0.17469  0.44374  0.94254  1.0000
  H   H348      1.0  0.21192  0.43725  0.99835  1.0000
  H   H349      1.0  0.31954  0.01704  0.71382  1.0000
  H   H350      1.0  0.21204  0.49324  0.87966  1.0000
  C   C210      1.0  0.10518  0.01851  0.69610  1.0000
  H   H351      1.0  0.06417  0.01513  0.75264  1.0000
  C   C211      1.0  0.08865  0.01195  0.74376  1.0000
  C   C212      1.0  0.47746  0.00721  0.98059  1.0000
  H   H352      1.0  0.40473  0.04977  0.99582  1.0000
  C   C213      1.0  0.25325  0.49507  0.74836  1.0000
  C   C214      1.0  0.16037  0.02033  0.72865  1.0000
  H   H353      1.0  0.25225  0.47738  0.88996  1.0000
  C   C215      1.0  0.32237  0.50180  0.73390  1.0000
  H   H354      1.0  0.34906  0.50443  0.72853  1.0000
  H   H355      1.0  0.43195  0.50019  0.94869  1.0000
  H   H356      1.0  0.30759  0.38058  0.00721  1.0000
  H   H357      1.0  0.43175  0.10255  0.00701  1.0000
  H   H358      1.0  0.26552  0.48282  0.67503  1.0000
  C   C216      1.0  0.37611  0.00704  0.75411  1.0000
  Fe  Fe33      1.0  0.36365  0.99254  0.06570  1.0000
  S   S66       1.0  0.41584  0.96601  0.06025  1.0000
  C   C217      1.0  0.17296  0.64351  0.32643  1.0000
  Fe  Fe34      1.0  0.32217  0.94030  0.04121  1.0000
  S   S67       1.0  0.37135  0.91133  0.03405  1.0000
  S   S68       1.0  0.26674  0.92557  0.03143  1.0000
  Fe  Fe35      1.0  0.38497  0.91800  0.06575  1.0000
  S   S69       1.0  0.40550  0.86912  0.07939  1.0000
  Fe  Fe36      1.0  0.39762  0.96138  0.02921  1.0000
  H   H359      1.0  0.08522  0.84918  0.20196  1.0000
  S   S70       1.0  0.33419  0.94483  0.07334  1.0000
  S   S71       1.0  0.34706  0.99020  0.03417  1.0000
  Fe  Fe37      1.0  0.37247  0.75042  0.17275  1.0000
  S   S72       1.0  0.32991  0.71268  0.16717  1.0000
  S   S73       1.0  0.36408  0.80448  0.16182  1.0000
  Fe  Fe38      1.0  0.41334  0.70008  0.19947  1.0000
  S   S74       1.0  0.37294  0.65937  0.19569  1.0000
  S   S75       1.0  0.46595  0.69512  0.21563  1.0000
  Fe  Fe39      1.0  0.37367  0.67418  0.16381  1.0000
  S   S76       1.0  0.38627  0.64257  0.13672  1.0000
  Fe  Fe40      1.0  0.33267  0.70177  0.19952  1.0000
  S   S77       1.0  0.28042  0.69818  0.21641  1.0000
  S   S78       1.0  0.41621  0.71310  0.16747  1.0000
  S   S79       1.0  0.37313  0.74142  0.20532  1.0000
  Fe  Fe41      1.0  0.16464  0.80970  0.29138  1.0000
  S   S80       1.0  0.12104  0.77298  0.28555  1.0000
  S   S81       1.0  0.21986  0.80630  0.27759  1.0000
  Fe  Fe42      1.0  0.12005  0.85166  0.32028  1.0000
  S   S82       1.0  0.07412  0.81708  0.31609  1.0000
  Fe  Fe43      1.0  0.11247  0.77399  0.31812  1.0000
  Fe  Fe44      1.0  0.08587  0.81921  0.28413  1.0000
  S   S83       1.0  0.03774  0.82112  0.26428  1.0000
  S   S84       1.0  0.15809  0.80804  0.32438  1.0000
  S   S85       1.0  0.12983  0.85634  0.28780  1.0000
  H   H360      1.0  0.18964  0.65373  0.33822  1.0000
  C   C218      1.0  0.01686  0.85679  0.25369  1.0000
  H   H361      1.0  0.48641  0.59878  0.13888  1.0000
  H   H362      1.0  0.40075  0.59896  0.17618  1.0000
  H   H363      1.0  0.15433  0.99205  0.33508  1.0000
  H   H364      1.0  0.20733  0.60959  0.05442  1.0000
  C   C219      1.0  0.03493  0.88676  0.24976  1.0000
  C   C220      1.0  0.26434  0.72725  0.23423  1.0000
  C   C221      1.0  0.28668  0.74959  0.24384  1.0000
  C   C222      1.0  0.27277  0.77269  0.25759  1.0000
  C   C223      1.0  0.23633  0.77416  0.26173  1.0000
  C   C224      1.0  0.21406  0.75141  0.25237  1.0000
  C   C225      1.0  0.22805  0.72801  0.23880  1.0000
  H   H365      1.0  0.31472  0.74886  0.24081  1.0000
  H   H366      1.0  0.29035  0.78971  0.26499  1.0000
  H   H367      1.0  0.18601  0.75208  0.25540  1.0000
  H   H368      1.0  0.21054  0.71066  0.23159  1.0000
  C   C226      1.0  0.47008  0.54722  0.14106  1.0000
  C   C227      1.0  0.22779  0.59193  0.04866  1.0000
  H   H369      1.0  0.38907  0.54833  0.09041  1.0000
  C   C228      1.0  0.49628  0.65151  0.16613  1.0000
  C   C229      1.0  0.01768  0.91361  0.24000  1.0000
  H   H370      1.0  0.46562  0.58032  0.24462  1.0000
  C   C230      1.0  0.37509  0.82147  0.13858  1.0000
  C   C231      1.0  0.36315  0.85418  0.13372  1.0000
  C   C232      1.0  0.37185  0.86903  0.11559  1.0000
  C   C233      1.0  0.39305  0.85143  0.10223  1.0000
  C   C234      1.0  0.40481  0.81865  0.10703  1.0000
  C   C235      1.0  0.39570  0.80362  0.12506  1.0000
  H   H371      1.0  0.34741  0.86828  0.14414  1.0000
  H   H372      1.0  0.36278  0.89432  0.11214  1.0000
  H   H373      1.0  0.42128  0.80486  0.09681  1.0000
  H   H374      1.0  0.40518  0.77851  0.12863  1.0000
  C   C236      1.0  0.35189  0.53887  0.11362  1.0000
  C   C237      1.0  0.33681  0.55180  0.13091  1.0000
  C   C238      1.0  0.34683  0.58353  0.13821  1.0000
  C   C239      1.0  0.37212  0.60264  0.12826  1.0000
  C   C240      1.0  0.38734  0.58961  0.11104  1.0000
  C   C241      1.0  0.37732  0.55790  0.10373  1.0000
  H   H375      1.0  0.31703  0.53728  0.13863  1.0000
  H   H376      1.0  0.33494  0.59321  0.15147  1.0000
  H   H377      1.0  0.40699  0.60422  0.10326  1.0000
  H   H378      1.0  0.05365  0.82771  0.21672  1.0000
  H   H379      1.0  0.44239  0.63582  0.16695  1.0000
  H   H380      1.0  0.05379  0.84265  0.17284  1.0000
  H   H381      1.0  0.45249  0.53008  0.14936  1.0000
  H   H382      1.0  0.19485  0.54381  0.33800  1.0000
  H   H383      1.0  0.21502  0.56435  0.07515  1.0000
  N   N16       1.0  0.30046  0.82080  0.06378  1.0000
  C   C242      1.0  0.28684  0.79928  0.08040  1.0000
  C   C243      1.0  0.27440  0.81900  0.04724  1.0000
  C   C244      1.0  0.30399  0.85714  0.06983  1.0000
  C   C245      1.0  0.33639  0.80769  0.05783  1.0000
  C   C246      1.0  0.30767  0.80113  0.09965  1.0000
  C   C247      1.0  0.27390  0.78553  0.03583  1.0000
  C   C248      1.0  0.27002  0.87382  0.07797  1.0000
  C   C249      1.0  0.35291  0.82391  0.03934  1.0000
  H   H384      1.0  0.25879  0.80546  0.08385  1.0000
  H   H385      1.0  0.28675  0.77218  0.07619  1.0000
  H   H386      1.0  0.27855  0.83970  0.03649  1.0000
  H   H387      1.0  0.24698  0.82333  0.05267  1.0000
  H   H388      1.0  0.32523  0.86014  0.08080  1.0000
  H   H389      1.0  0.31265  0.87301  0.05726  1.0000
  H   H390      1.0  0.35572  0.81146  0.06978  1.0000
  H   H391      1.0  0.33597  0.77981  0.05572  1.0000
  H   H392      1.0  0.30781  0.82690  0.10589  1.0000
  H   H393      1.0  0.29493  0.78453  0.11071  1.0000
  H   H394      1.0  0.33513  0.79173  0.09792  1.0000
  H   H395      1.0  0.26874  0.76355  0.04547  1.0000
  C   C250      1.0  0.02965  0.94698  0.29287  1.0000
  H   H396      1.0  0.29871  0.78139  0.02749  1.0000
  H   H397      1.0  0.24890  0.87502  0.06686  1.0000
  H   H398      1.0  0.27571  0.90031  0.08201  1.0000
  C   C251      1.0  0.04084  0.82991  0.18534  1.0000
  H   H399      1.0  0.37750  0.83733  0.04324  1.0000
  H   H400      1.0  0.33561  0.84221  0.03173  1.0000
  H   H401      1.0  0.36047  0.80400  0.02870  1.0000
  H   H402      1.0  0.20052  0.59626  0.32190  1.0000
  C   C252      1.0  0.48462  0.65924  0.22750  1.0000
  H   H403      1.0  0.14585  0.65412  0.32773  1.0000
  N   N17       1.0  0.00110  0.83101  0.18393  1.0000
  H   H404      1.0  0.29495  0.53255  0.01430  1.0000
  C   C253      1.0  0.06743  0.94255  0.30078  1.0000
  C   C254      1.0  0.40996  0.57241  0.17696  1.0000
  H   H405      1.0  0.48176  0.98875  0.02901  1.0000
  H   H406      1.0  0.25231  0.78678  0.02493  1.0000
  H   H407      1.0  0.02816  0.97073  0.33710  1.0000
  C   C255      1.0  0.01345  0.89158  0.30718  1.0000
  H   H408      1.0  0.46160  0.54615  0.12557  1.0000
  H   H409      1.0  0.15637  0.59752  0.31328  1.0000
  H   H410      1.0  0.29903  0.57952  0.06003  1.0000
  H   H411      1.0  0.47371  0.71063  0.25975  1.0000
  N   N18       1.0  0.27616  0.83539  0.20815  1.0000
  C   C256      1.0  0.27296  0.85135  0.22811  1.0000
  C   C257      1.0  0.31246  0.81959  0.20682  1.0000
  C   C258      1.0  0.24814  0.80856  0.20657  1.0000
  C   C259      1.0  0.27064  0.86286  0.19314  1.0000
  C   C260      1.0  0.23564  0.86337  0.23433  1.0000
  C   C261      1.0  0.34374  0.84420  0.20766  1.0000
  C   C262      1.0  0.25429  0.78003  0.19160  1.0000
  C   C263      1.0  0.27575  0.85320  0.17153  1.0000
  H   H412      1.0  0.28211  0.83352  0.23964  1.0000
  H   H413      1.0  0.29032  0.87378  0.22929  1.0000
  H   H414      1.0  0.31622  0.80497  0.19326  1.0000
  H   H415      1.0  0.31606  0.80058  0.21869  1.0000
  H   H416      1.0  0.24471  0.79532  0.22080  1.0000
  H   H417      1.0  0.22197  0.82016  0.20331  1.0000
  H   H418      1.0  0.24335  0.87322  0.19422  1.0000
  H   H419      1.0  0.28741  0.88523  0.19611  1.0000
  H   H420      1.0  0.21686  0.84211  0.23574  1.0000
  H   H421      1.0  0.23724  0.87483  0.24908  1.0000
  H   H422      1.0  0.22483  0.88297  0.22441  1.0000
  H   H423      1.0  0.34337  0.86243  0.19532  1.0000
  H   H424      1.0  0.34509  0.85765  0.22177  1.0000
  H   H425      1.0  0.36869  0.82942  0.20617  1.0000
  H   H426      1.0  0.23074  0.76349  0.19150  1.0000
  H   H427      1.0  0.27678  0.76349  0.19583  1.0000
  H   H428      1.0  0.25835  0.78929  0.17655  1.0000
  H   H429      1.0  0.25057  0.84457  0.16511  1.0000
  H   H430      1.0  0.29629  0.83379  0.16908  1.0000
  H   H431      1.0  0.28510  0.87559  0.16319  1.0000
  C   C264      1.0  0.28268  0.57738  0.08981  1.0000
  H   H432      1.0  0.26028  0.86117  0.09139  1.0000
  H   H433      1.0  0.02530  0.88666  0.16295  1.0000
  H   H434      1.0  0.39412  0.55963  0.18848  1.0000
  H   H435      1.0  0.15136  0.54211  0.31052  1.0000
  H   H436      1.0  0.02124  0.91026  0.18546  1.0000
  H   H437      1.0  0.30607  0.59257  0.09381  1.0000
  C   C265      1.0  0.14418  0.53291  0.32531  1.0000
  C   C266      1.0  0.44947  0.56952  0.18205  1.0000
  H   H438      1.0  0.03656  0.89130  0.31695  1.0000
  H   H439      1.0  0.04443  0.86989  0.20785  1.0000
  H   H440      1.0  0.18394  0.65327  0.31244  1.0000
  H   H441      1.0  0.03173  0.94018  0.27716  1.0000
  H   H442      1.0  0.25284  0.60577  0.04997  1.0000
  H   H443      1.0  0.49186  0.66195  0.27228  1.0000
  H   H444      1.0  0.11549  0.53635  0.32798  1.0000
  H   H445      1.0  0.02902  0.83422  0.14438  1.0000
  C   C267      1.0  0.01926  0.72156  0.00843  1.0000
  C   C268      1.0  0.48100  0.60260  0.24140  1.0000
  N   N19       1.0  0.26051  0.53882  0.06216  1.0000
  H   H446      1.0  0.49198  0.68417  0.32321  1.0000
  C   C269      1.0  0.27098  0.52378  0.04270  1.0000
  H   H447      1.0  0.48777  0.67781  0.16942  1.0000
  C   C270      1.0  0.25458  0.89674  0.01288  1.0000
  C   C271      1.0  0.46762  0.62706  0.17356  1.0000
  C   C272      1.0  0.17315  0.60442  0.32588  1.0000
  H   H448      1.0  0.05058  0.80329  0.18450  1.0000
  C   C273      1.0  0.46500  0.63029  0.23175  1.0000
  H   H449      1.0  0.48197  0.75442  0.26240  1.0000
  C   C274      1.0  0.46750  0.58419  0.14802  1.0000
  H   H450      1.0  0.46498  0.66770  0.29330  1.0000
  H   H451      1.0  0.06237  0.88893  0.25380  1.0000
  H   H452      1.0  0.03196  0.93653  0.23669  1.0000
  H   H453      1.0  0.26000  0.59512  0.08882  1.0000
  H   H454      1.0  0.49760  0.53752  0.14151  1.0000
  H   H455      1.0  0.08514  0.96055  0.29310  1.0000
  H   H456      1.0  0.44109  0.59397  0.14376  1.0000
  H   H457      1.0  0.10690  0.59301  0.33415  1.0000
  H   H458      1.0  0.43749  0.62927  0.22768  1.0000
  C   C275      1.0  0.29230  0.54607  0.02843  1.0000
  C   C276      1.0  0.49290  0.72890  0.26565  1.0000
  H   H459      1.0  0.22229  0.58722  0.03301  1.0000
  H   H460      1.0  0.40397  0.55977  0.16298  1.0000
  C   C277      1.0  0.29034  0.55946  0.07026  1.0000
  S   S86       1.0  0.09202  0.72913  0.33567  1.0000
  C   C278      1.0  0.25425  0.50991  0.07622  1.0000
  H   H461      1.0  0.24735  0.51488  0.03467  1.0000
  C   C279      1.0  0.05646  0.84519  0.20408  1.0000
  H   H462      1.0  0.31957  0.55002  0.03376  1.0000
  H   H463      1.0  0.27851  0.55922  0.10195  1.0000
  H   H464      1.0  0.45678  0.54223  0.18177  1.0000
  C   C280      1.0  0.22660  0.55874  0.06051  1.0000
  C   C281      1.0  0.46098  0.51176  0.01500  1.0000
  H   H465      1.0  0.48568  0.60942  0.29018  1.0000
  H   H466      1.0  0.47060  0.72695  0.29468  1.0000
  H   H467      1.0  0.07806  0.91689  0.29770  1.0000
  H   H468      1.0  0.45200  0.57692  0.19766  1.0000
  H   H469      1.0  0.06947  0.94787  0.31652  1.0000
  H   H470      1.0  0.31428  0.54327  0.07223  1.0000
  H   H471      1.0  0.46390  0.63179  0.18942  1.0000
  C   C282      1.0  0.49739  0.72498  0.28792  1.0000
  H   H472      1.0  0.24464  0.51915  0.09063  1.0000
  N   N20       1.0  0.47406  0.59006  0.16942  1.0000
  C   C283      1.0  0.21854  0.89209  0.00896  1.0000
  C   C284      1.0  0.49286  0.66382  0.28844  1.0000
  H   H473      1.0  0.27952  0.57065  0.02538  1.0000
  H   H474      1.0  0.43383  0.51469  0.01971  1.0000
  H   H475      1.0  0.19901  0.90663  0.01697  1.0000
  H   H476      1.0  0.03417  0.69924  0.01251  1.0000
  C   C285      1.0  0.01161  0.94775  0.33818  1.0000
  C   C286      1.0  0.00694  0.89486  0.17459  1.0000
  H   H477      1.0  0.02330  0.87918  0.29360  1.0000
  H   H478      1.0  0.02338  0.97451  0.29314  1.0000
  C   C287      1.0  0.48903  0.99929  0.01496  1.0000
  H   H479      1.0  0.20595  0.54328  0.05345  1.0000
  H   H480      1.0  0.50016  0.64987  0.15012  1.0000
  S   S87       1.0  0.10047  0.89350  0.34077  1.0000
  H   H481      1.0  0.02870  0.92539  0.34041  1.0000
  Fe  Fe45      1.0  0.15914  0.53667  0.43120  1.0000
  S   S88       1.0  0.43143  0.87015  0.64591  1.0000
  Fe  Fe46      1.0  0.44661  0.70086  0.54463  1.0000
  S   S89       1.0  0.40066  0.73562  0.53889  1.0000
  H   H482      1.0  0.45985  0.58596  0.55546  1.0000
  Fe  Fe47      1.0  0.40076  0.64948  0.56700  1.0000
  S   S90       1.0  0.35165  0.68071  0.56285  1.0000
  S   S91       1.0  0.39545  0.59531  0.57813  1.0000
  Fe  Fe48      1.0  0.37020  0.68836  0.53211  1.0000
  S   S92       1.0  0.33474  0.68701  0.50542  1.0000
  Fe  Fe49      1.0  0.38534  0.72559  0.57024  1.0000
  S   S93       1.0  0.35721  0.76534  0.58891  1.0000
  S   S94       1.0  0.41736  0.65433  0.53548  1.0000
  S   S95       1.0  0.43347  0.69356  0.57674  1.0000
  Fe  Fe50      1.0  0.09685  0.57037  0.45188  1.0000
  H   H483      1.0  0.43377  0.96660  0.56897  1.0000
  S   S96       1.0  0.03894  0.56114  0.45950  1.0000
  Fe  Fe51      1.0  0.14757  0.61305  0.42701  1.0000
  S   S97       1.0  0.19425  0.58115  0.43588  1.0000
  S   S98       1.0  0.16610  0.65665  0.40778  1.0000
  H   H484      1.0  0.02902  0.59049  0.64745  1.0000
  H   H485      1.0  0.20090  0.59009  0.39068  1.0000
  Fe  Fe52      1.0  0.17188  0.58356  0.46614  1.0000
  S   S99       1.0  0.20528  0.58752  0.49358  1.0000
  S   S100      1.0  0.11387  0.56802  0.42013  1.0000
  S   S101      1.0  0.12703  0.61826  0.45789  1.0000
  C   C288      1.0  0.44408  0.97368  0.58354  1.0000
  C   C289      1.0  0.17490  0.83827  0.37718  1.0000
  C   C290      1.0  0.14480  0.67648  0.38787  1.0000
  C   C291      1.0  0.16379  0.69996  0.37655  1.0000
  C   C292      1.0  0.14808  0.71626  0.36046  1.0000
  C   C293      1.0  0.11316  0.70920  0.35559  1.0000
  C   C294      1.0  0.09422  0.68564  0.36686  1.0000
  C   C295      1.0  0.10993  0.66936  0.38297  1.0000
  H   H486      1.0  0.19085  0.70551  0.38023  1.0000
  C   C296      1.0  0.02234  0.56818  0.65652  1.0000
  H   H487      1.0  0.21125  0.60360  0.35581  1.0000
  H   H488      1.0  0.09499  0.65154  0.39166  1.0000
  C   C297      1.0  0.15079  0.96541  0.38517  1.0000
  C   C298      1.0  0.17240  0.94502  0.37319  1.0000
  C   C299      1.0  0.15762  0.92315  0.35931  1.0000
  C   C300      1.0  0.12100  0.92149  0.35729  1.0000
  C   C301      1.0  0.09942  0.94201  0.36920  1.0000
  C   C302      1.0  0.11419  0.96385  0.38306  1.0000
  S   S102      1.0  0.43767  0.52971  0.65982  1.0000
  C   C303      1.0  0.27792  0.55746  0.45447  1.0000
  N   N21       1.0  0.11605  0.81652  0.39147  1.0000
  C   C304      1.0  0.10481  0.85263  0.39495  1.0000
  C   C305      1.0  0.29891  0.65908  0.50244  1.0000
  C   C306      1.0  0.28100  0.65878  0.48454  1.0000
  C   C307      1.0  0.25194  0.63741  0.48168  1.0000
  C   C308      1.0  0.24059  0.61604  0.49673  1.0000
  C   C309      1.0  0.25843  0.61642  0.51466  1.0000
  C   C310      1.0  0.28745  0.63784  0.51753  1.0000
  H   H489      1.0  0.28960  0.67525  0.47282  1.0000
  H   H490      1.0  0.23838  0.63744  0.46783  1.0000
  H   H491      1.0  0.24989  0.59987  0.52636  1.0000
  H   H492      1.0  0.30104  0.63777  0.53137  1.0000
  C   C311      1.0  0.37819  0.79401  0.60492  1.0000
  C   C312      1.0  0.35737  0.81482  0.61710  1.0000
  C   C313      1.0  0.37305  0.83798  0.62997  1.0000
  C   C314      1.0  0.40980  0.84078  0.63062  1.0000
  C   C315      1.0  0.43056  0.82018  0.61832  1.0000
  C   C316      1.0  0.41492  0.79684  0.60560  1.0000
  H   H493      1.0  0.32893  0.81286  0.61667  1.0000
  H   H494      1.0  0.35674  0.85369  0.63930  1.0000
  H   H495      1.0  0.45901  0.82218  0.61869  1.0000
  H   H496      1.0  0.43127  0.78111  0.59630  1.0000
  C   C317      1.0  0.42514  0.54750  0.63713  1.0000
  C   C318      1.0  0.40766  0.52877  0.62297  1.0000
  C   C319      1.0  0.39818  0.54406  0.60513  1.0000
  C   C320      1.0  0.40569  0.57823  0.60136  1.0000
  C   C321      1.0  0.42252  0.59714  0.61569  1.0000
  C   C322      1.0  0.43246  0.58172  0.63341  1.0000
  H   H497      1.0  0.45417  0.52942  0.56633  1.0000
  H   H498      1.0  0.38522  0.52924  0.59410  1.0000
  H   H499      1.0  0.42821  0.62351  0.61305  1.0000
  H   H500      1.0  0.44574  0.59645  0.64437  1.0000
  C   C323      1.0  0.02360  0.53642  0.47957  1.0000
  H   H501      1.0  0.16331  0.83940  0.36242  1.0000
  H   H502      1.0  0.20079  0.94609  0.37471  1.0000
  H   H503      1.0  0.10716  0.85854  0.42695  1.0000
  H   H504      1.0  0.07362  0.79883  0.41057  1.0000
  H   H505      1.0  0.12010  0.62343  0.35081  1.0000
  H   H506      1.0  0.27279  0.54727  0.49277  1.0000
  C   C324      1.0  0.03625  0.98337  0.49243  1.0000
  C   C325      1.0  0.43435  0.89811  0.57640  1.0000
  H   H507      1.0  0.10873  0.74737  0.39139  1.0000
  N   N22       1.0  0.25022  0.74771  0.53556  1.0000
  C   C326      1.0  0.25157  0.74340  0.51371  1.0000
  C   C327      1.0  0.27495  0.77568  0.54112  1.0000
  C   C328      1.0  0.21351  0.75700  0.54239  1.0000
  C   C329      1.0  0.26086  0.71472  0.54502  1.0000
  C   C330      1.0  0.22422  0.71904  0.50504  1.0000
  C   C331      1.0  0.31452  0.76869  0.53745  1.0000
  C   C332      1.0  0.19665  0.78823  0.53245  1.0000
  C   C333      1.0  0.26498  0.71539  0.56744  1.0000
  H   H508      1.0  0.24881  0.76814  0.50606  1.0000
  H   H509      1.0  0.27782  0.73362  0.50900  1.0000
  H   H510      1.0  0.27173  0.78245  0.55681  1.0000
  H   H511      1.0  0.26871  0.79921  0.53287  1.0000
  H   H512      1.0  0.19519  0.73536  0.54070  1.0000
  H   H513      1.0  0.21332  0.76265  0.55828  1.0000
  H   H514      1.0  0.24124  0.69473  0.54195  1.0000
  H   H515      1.0  0.28612  0.70511  0.53868  1.0000
  H   H516      1.0  0.22849  0.71759  0.48899  1.0000
  H   H517      1.0  0.22733  0.69297  0.51075  1.0000
  H   H518      1.0  0.19667  0.72775  0.50736  1.0000
  H   H519      1.0  0.32434  0.74709  0.54620  1.0000
  H   H520      1.0  0.32067  0.76442  0.52180  1.0000
  H   H521      1.0  0.32990  0.79101  0.54209  1.0000
  H   H522      1.0  0.19410  0.78527  0.51646  1.0000
  H   H523      1.0  0.21130  0.81166  0.53566  1.0000
  H   H524      1.0  0.16950  0.79185  0.53837  1.0000
  H   H525      1.0  0.28654  0.73226  0.57211  1.0000
  H   H526      1.0  0.27207  0.68958  0.57259  1.0000
  H   H527      1.0  0.24021  0.72265  0.57504  1.0000
  H   H528      1.0  0.47475  0.91584  0.59539  1.0000
  H   H529      1.0  0.20402  0.55342  0.37573  1.0000
  H   H530      1.0  0.48500  0.97740  0.63706  1.0000
  H   H531      1.0  0.17490  0.86406  0.38343  1.0000
  H   H532      1.0  0.33576  0.56524  0.63583  1.0000
  H   H533      1.0  0.38128  0.94707  0.58297  1.0000
  H   H534      1.0  0.11088  0.55135  0.36631  1.0000
  C   C334      1.0  0.15568  0.81302  0.39070  1.0000
  H   H535      1.0  0.16298  0.73418  0.35181  1.0000
  S   S103      1.0  0.14010  0.53615  0.46234  1.0000
  H   H536      1.0  0.06215  0.97906  0.48614  1.0000
  H   H537      1.0  0.05357  0.79241  0.35657  1.0000
  H   H538      1.0  0.30140  0.51306  0.49591  1.0000
  H   H539      1.0  0.46757  0.62348  0.58206  1.0000
  C   C335      1.0  0.10244  0.79499  0.40803  1.0000
  C   C336      1.0  0.11040  0.75678  0.40648  1.0000
  C   C337      1.0  0.31082  0.57817  0.66426  1.0000
  H   H540      1.0  0.37716  0.89715  0.60549  1.0000
  C   C338      1.0  0.39055  0.95009  0.59825  1.0000
  S   S104      1.0  0.37356  0.95146  0.66662  1.0000
  H   H541      1.0  0.07243  0.56381  0.67132  1.0000
  N   N23       1.0  0.43032  0.95009  0.59912  1.0000
  C   C339      1.0  0.29777  0.53628  0.48688  1.0000
  H   H542      1.0  0.17393  0.62400  0.36627  1.0000
  H   H543      1.0  0.02822  0.54556  0.64748  1.0000
  C   C340      1.0  0.32681  0.56147  0.49249  1.0000
  C   C341      1.0  0.16656  0.54931  0.34137  1.0000
  H   H544      1.0  0.33841  0.60854  0.64249  1.0000
  H   H545      1.0  0.26489  0.54850  0.44092  1.0000
  C   C342      1.0  0.10129  0.80563  0.37207  1.0000
  C   C343      1.0  0.37191  0.92307  0.61085  1.0000
  H   H546      1.0  0.37963  0.97491  0.60309  1.0000
  C   C344      1.0  0.49506  0.75462  0.50486  1.0000
  H   H547      1.0  0.34732  0.53813  0.45518  1.0000
  H   H548      1.0  0.10750  0.59180  0.37848  1.0000
  C   C345      1.0  0.48091  0.96796  0.62201  1.0000
  H   H549      1.0  0.36629  0.57866  0.65447  1.0000
  H   H550      1.0  0.31674  0.58781  0.49191  1.0000
  H   H551      1.0  0.35119  0.55947  0.48366  1.0000
  H   H552      1.0  0.13024  0.50968  0.39009  1.0000
  H   H553      1.0  0.36369  0.52556  0.67042  1.0000
  H   H554      1.0  0.33529  0.55618  0.50771  1.0000
  H   H555      1.0  0.43392  0.94208  0.63037  1.0000
  H   H556      1.0  0.11204  0.89666  0.41327  1.0000
  H   H557      1.0  0.07106  0.94073  0.36793  1.0000
  H   H558      1.0  0.28483  0.58407  0.65746  1.0000
  Fe  Fe53      1.0  0.41372  0.90903  0.66863  1.0000
  H   H559      1.0  0.31938  0.59585  0.45955  1.0000
  H   H560      1.0  0.06714  0.68013  0.36319  1.0000
  H   H561      1.0  0.34291  0.92719  0.61011  1.0000
  H   H562      1.0  0.13700  0.75045  0.41225  1.0000
  H   H563      1.0  0.11499  0.78270  0.36641  1.0000
  H   H564      1.0  0.17457  0.90752  0.35026  1.0000
  H   H565      1.0  0.10620  0.82514  0.36065  1.0000
  H   H566      1.0  0.16735  0.81536  0.40550  1.0000
  H   H567      1.0  0.28693  0.60724  0.44204  1.0000
  H   H568      1.0  0.11438  0.80285  0.42207  1.0000
  H   H569      1.0  0.48977  0.79244  0.48221  1.0000
  H   H570      1.0  0.07558  0.85479  0.39587  1.0000
  C   C346      1.0  0.11922  0.86936  0.41354  1.0000
  H   H571      1.0  0.16347  0.78718  0.38578  1.0000
  H   H572      1.0  0.14835  0.86797  0.41453  1.0000
  C   C347      1.0  0.18366  0.59912  0.36091  1.0000
  H   H573      1.0  0.47330  0.97159  0.58211  1.0000
  C   C348      1.0  0.44118  0.96132  0.61920  1.0000
  H   H574      1.0  0.37928  0.92448  0.62641  1.0000
  H   H575      1.0  0.43836  0.89793  0.60776  1.0000
  S   S105      1.0  0.17072  0.99259  0.40234  1.0000
  H   H576      1.0  0.05431  0.77625  0.38076  1.0000
  C   C349      1.0  0.30302  0.58576  0.44769  1.0000
  H   H577      1.0  0.40545  0.89445  0.57553  1.0000
  H   H578      1.0  0.11234  0.86887  0.38237  1.0000
  H   H579      1.0  0.46842  0.75811  0.51031  1.0000
  C   C350      1.0  0.10343  0.57817  0.36457  1.0000
  H   H580      1.0  0.44350  0.91222  0.56334  1.0000
  H   H581      1.0  0.09018  0.74235  0.41478  1.0000
  H   H582      1.0  0.04543  0.82080  0.37631  1.0000
  C   C351      1.0  0.06132  0.79857  0.37174  1.0000
  Fe  Fe54      1.0  0.41883  0.98582  0.67347  1.0000
  S   S106      1.0  0.45920  0.94407  0.67382  1.0000
  H   H583      1.0  0.20294  0.83033  0.37550  1.0000
  H   H584      1.0  0.16175  0.56776  0.38499  1.0000
  C   C352      1.0  0.44542  0.91528  0.59558  1.0000
  H   H585      1.0  0.32016  0.57724  0.43544  1.0000
  H   H586      1.0  0.09725  0.97928  0.39223  1.0000
  C   C353      1.0  0.02415  0.96295  0.50802  1.0000
  H   H587      1.0  0.07470  0.57788  0.36146  1.0000
  C   C354      1.0  0.18736  0.57595  0.37897  1.0000
  H   H588      1.0  0.04104  0.94310  0.51367  1.0000
  C   C355      1.0  0.33953  0.58236  0.64838  1.0000
  H   H589      1.0  0.48924  0.64047  0.54994  1.0000
  H   H590      1.0  0.06899  0.50989  0.40234  1.0000
  H   H591      1.0  0.42662  0.98452  0.62367  1.0000
  H   H592      1.0  0.21756  0.52566  0.46242  1.0000
  H   H593      1.0  0.25675  0.56981  0.46328  1.0000
  H   H594      1.0  0.16108  0.53461  0.35483  1.0000
  N   N24       1.0  0.29383  0.52800  0.46552  1.0000
  H   H595      1.0  0.44664  0.87254  0.57578  1.0000
  N   N25       1.0  0.30980  0.54405  0.67415  1.0000
  C   C356      1.0  0.48545  0.57343  0.55914  1.0000
  H   H596      1.0  0.03702  0.63346  0.66692  1.0000
  C   C357      1.0  0.12279  0.59603  0.34765  1.0000
  C   C358      1.0  0.04695  0.52033  0.49237  1.0000
  H   H597      1.0  0.07502  0.52431  0.49083  1.0000
  H   H598      1.0  0.46981  0.55001  0.58746  1.0000
  C   C359      1.0  0.49520  0.61510  0.58494  1.0000
  H   H599      1.0  0.27640  0.52778  0.65031  1.0000
  H   H600      1.0  0.49685  0.94450  0.62053  1.0000
  H   H601      1.0  0.32131  0.51506  0.64790  1.0000
  C   C360      1.0  0.29964  0.51864  0.65879  1.0000
  N   N26       1.0  0.16103  0.58677  0.34433  1.0000
  H   H602      1.0  0.49292  0.59684  0.59719  1.0000
  C   C361      1.0  0.47722  0.54293  0.57238  1.0000
  H   H603      1.0  0.49954  0.52464  0.57247  1.0000
  H   H604      1.0  0.49116  0.98781  0.61210  1.0000
  H   H605      1.0  0.32352  0.51021  0.44049  1.0000
  H   H606      1.0  0.49532  0.56220  0.54529  1.0000
  C   C362      1.0  0.32811  0.51722  0.45602  1.0000
  H   H607      1.0  0.22899  0.51131  0.48672  1.0000
  H   H608      1.0  0.08036  0.62173  0.67433  1.0000
  H   H609      1.0  0.00752  0.66369  0.89904  1.0000
  H   H610      1.0  0.06542  0.67937  0.68389  1.0000
  Fe  Fe55      1.0  0.44824  0.93767  0.70580  1.0000
  S   S107      1.0  0.40515  0.90021  0.70090  1.0000
  C   C363      1.0  0.20748  0.86847  0.99496  1.0000
  H   H611      1.0  0.06243  0.74357  0.99190  1.0000
  Fe  Fe56      1.0  0.36858  0.94585  0.69953  1.0000
  S   S108      1.0  0.31792  0.94319  0.71804  1.0000
  C   C364      1.0  0.47757  0.53761  0.00413  1.0000
  S   S109      1.0  0.41149  0.98281  0.70612  1.0000
  Fe  Fe57      1.0  0.17091  0.59599  0.82069  1.0000
  S   S110      1.0  0.12564  0.55968  0.82416  1.0000
  S   S111      1.0  0.18722  0.64233  0.83838  1.0000
  Fe  Fe58      1.0  0.20335  0.55666  0.78555  1.0000
  H   H612      1.0  0.41415  0.91233  0.79070  1.0000
  S   S112      1.0  0.25262  0.55868  0.76576  1.0000
  Fe  Fe59      1.0  0.12262  0.56258  0.79116  1.0000
  S   S113      1.0  0.06993  0.56260  0.77496  1.0000
  H   H613      1.0  0.25969  0.97204  0.93483  1.0000
  H   H614      1.0  0.46691  0.96759  0.79032  1.0000
  S   S114      1.0  0.16563  0.60105  0.78798  1.0000
  S   S115      1.0  0.21172  0.55456  0.81795  1.0000
  Fe  Fe60      1.0  0.16569  0.81391  0.95298  1.0000
  S   S116      1.0  0.12209  0.85165  0.95754  1.0000
  S   S117      1.0  0.21983  0.81846  0.96725  1.0000
  Fe  Fe61      1.0  0.12322  0.77344  0.92315  1.0000
  S   S118      1.0  0.07743  0.80989  0.92554  1.0000
  S   S119      1.0  0.10882  0.72605  0.90595  1.0000
  Fe  Fe62      1.0  0.11743  0.85141  0.92479  1.0000
  S   S120      1.0  0.10494  0.90341  0.91184  1.0000
  Fe  Fe63      1.0  0.08545  0.80708  0.95791  1.0000
  S   S121      1.0  0.03469  0.80770  0.97619  1.0000
  S   S122      1.0  0.16300  0.81554  0.91994  1.0000
  S   S123      1.0  0.12947  0.76891  0.95585  1.0000
  C   C365      1.0  0.01631  0.77561  0.99132  1.0000
  H   H615      1.0  0.36025  0.58555  0.69143  1.0000
  H   H616      1.0  0.07137  0.65513  0.70562  1.0000
  C   C366      1.0  0.14976  0.95760  0.85737  1.0000
  C   C367      1.0  0.16199  0.92510  0.86252  1.0000
  C   C368      1.0  0.14823  0.90791  0.87893  1.0000
  C   C369      1.0  0.12213  0.92319  0.89048  1.0000
  C   C370      1.0  0.11005  0.95578  0.88546  1.0000
  C   C371      1.0  0.12369  0.97290  0.86897  1.0000
  H   H617      1.0  0.18212  0.91304  0.85363  1.0000
  H   H618      1.0  0.15783  0.88289  0.88261  1.0000
  H   H619      1.0  0.09000  0.96793  0.89434  1.0000
  C   C372      1.0  0.37379  0.98352  0.77205  1.0000
  C   C373      1.0  0.16487  0.66501  0.85723  1.0000
  C   C374      1.0  0.13086  0.65668  0.86358  1.0000
  C   C375      1.0  0.11421  0.67566  0.87847  1.0000
  C   C376      1.0  0.13120  0.70326  0.88715  1.0000
  C   C377      1.0  0.16523  0.71157  0.88082  1.0000
  C   C378      1.0  0.18195  0.69247  0.86601  1.0000
  H   H620      1.0  0.11738  0.63564  0.85701  1.0000
  H   H621      1.0  0.08793  0.66893  0.88323  1.0000
  H   H622      1.0  0.17872  0.73257  0.88741  1.0000
  H   H623      1.0  0.20838  0.69895  0.86142  1.0000
  C   C379      1.0  0.29501  0.97679  0.73001  1.0000
  H   H624      1.0  0.21862  0.93468  0.90432  1.0000
  H   H625      1.0  0.03762  0.54130  0.68212  1.0000
  C   C380      1.0  0.27202  0.52438  0.75264  1.0000
  C   C381      1.0  0.30677  0.52746  0.74541  1.0000
  H   H626      1.0  0.35840  0.55483  0.71090  1.0000
  H   H627      1.0  0.26531  0.94300  0.74851  1.0000
  H   H628      1.0  0.30737  0.88118  0.00517  1.0000
  H   H629      1.0  0.32162  0.54993  0.74868  1.0000
  H   H630      1.0  0.07997  0.67227  0.93399  1.0000
  H   H631      1.0  0.03415  0.64942  0.95920  1.0000
  C   C382      1.0  0.39263  0.93164  0.78982  1.0000
  C   C383      1.0  0.34513  0.53336  0.68227  1.0000
  H   H632      1.0  0.31210  0.94408  0.94718  1.0000
  H   H633      1.0  0.39092  0.87832  0.76640  1.0000
  H   H634      1.0  0.11412  0.99790  0.86523  1.0000
  C   C384      1.0  0.07743  0.68013  0.94937  1.0000
  H   H635      1.0  0.03849  0.86365  0.94835  1.0000
  H   H636      1.0  0.34981  0.92764  0.75738  1.0000
  S   S124      1.0  0.49288  0.93528  0.72827  1.0000
  N   N27       1.0  0.03865  0.59482  0.68961  1.0000
  C   C385      1.0  0.03961  0.67691  0.95764  1.0000
  H   H637      1.0  0.11703  0.99479  0.70162  1.0000
  N   N28       1.0  0.01029  0.69448  0.94660  1.0000
  C   C386      1.0  0.04508  0.65600  0.75315  1.0000
  C   C387      1.0  0.06315  0.62938  0.76262  1.0000
  C   C388      1.0  0.04763  0.59755  0.76424  1.0000
  H   H638      1.0  0.05738  0.68050  0.75193  1.0000
  H   H639      1.0  0.08914  0.63341  0.76858  1.0000
  N   N29       1.0  0.22285  0.93052  0.93584  1.0000
  C   C389      1.0  0.25990  0.94397  0.93412  1.0000
  C   C390      1.0  0.20291  0.94057  0.91770  1.0000
  C   C391      1.0  0.22288  0.89263  0.93757  1.0000
  H   H640      1.0  0.04739  0.93592  0.93421  1.0000
  C   C392      1.0  0.05425  0.65829  0.69266  1.0000
  H   H641      1.0  0.36630  0.99486  0.74076  1.0000
  C   C393      1.0  0.24058  0.87340  0.92055  1.0000
  C   C394      1.0  0.05300  0.62626  0.67988  1.0000
  C   C395      1.0  0.36477  0.55878  0.69526  1.0000
  H   H642      1.0  0.36860  0.96642  0.81119  1.0000
  H   H643      1.0  0.17865  0.92537  0.91609  1.0000
  H   H644      1.0  0.39367  0.55494  0.69334  1.0000
  H   H645      1.0  0.23577  0.88442  0.95128  1.0000
  H   H646      1.0  0.19543  0.88293  0.93875  1.0000
  H   H647      1.0  0.00705  0.88045  0.00618  1.0000
  H   H648      1.0  0.05132  0.60624  0.71967  1.0000
  H   H649      1.0  0.03199  0.54384  0.71998  1.0000
  H   H650      1.0  0.10703  0.99655  0.75277  1.0000
  H   H651      1.0  0.23160  0.98859  0.76544  1.0000
  H   H652      1.0  0.08825  0.59404  0.70529  1.0000
  C   C396      1.0  0.19220  0.97812  0.91612  1.0000
  C   C397      1.0  0.02313  0.66778  0.91248  1.0000
  H   H653      1.0  0.26856  0.88047  0.91842  1.0000
  H   H654      1.0  0.22583  0.87693  0.90674  1.0000
  H   H655      1.0  0.24029  0.84593  0.92399  1.0000
  H   H656      1.0  0.47585  0.86292  0.73116  1.0000
  H   H657      1.0  0.15218  0.92957  0.94439  1.0000
  C   C398      1.0  0.05897  0.55280  0.71689  1.0000
  H   H658      1.0  0.02854  0.89399  0.91686  1.0000
  H   H659      1.0  0.43543  0.96611  0.74979  1.0000
  C   C399      1.0  0.39355  0.95196  0.80897  1.0000
  C   C400      1.0  0.20597  0.94494  0.95400  1.0000
  C   C401      1.0  0.16706  0.93523  0.95779  1.0000
  C   C402      1.0  0.43307  0.95728  0.76520  1.0000
  C   C403      1.0  0.02856  0.90208  0.97946  1.0000
  H   H660      1.0  0.38145  0.99929  0.78461  1.0000
  H   H661      1.0  0.04113  0.68688  0.97278  1.0000
  H   H662      1.0  0.45750  0.53600  0.95519  1.0000
  H   H663      1.0  0.03967  0.68984  0.90900  1.0000
  C   C404      1.0  0.25087  0.99493  0.75432  1.0000
  C   C405      1.0  0.37889  0.92987  0.75508  1.0000
  H   H664      1.0  0.34246  0.50995  0.69117  1.0000
  C   C406      1.0  0.27955  0.87773  0.00243  1.0000
  H   H665      1.0  0.03905  0.92306  0.98820  1.0000
  C   C407      1.0  0.28631  0.93161  0.94977  1.0000
  H   H666      1.0  0.07528  0.91229  0.95013  1.0000
  H   H667      1.0  0.08737  0.70624  0.95090  1.0000
  H   H668      1.0  0.28436  0.52086  0.69927  1.0000
  H   H669      1.0  0.07352  0.53429  0.70769  1.0000
  H   H670      1.0  0.04031  0.64527  0.91479  1.0000
  H   H671      1.0  0.04555  0.72796  0.93035  1.0000
  C   C408      1.0  0.00602  0.88411  0.92550  1.0000
  H   H672      1.0  0.27792  0.93839  0.96479  1.0000
  C   C409      1.0  0.46714  0.99440  0.99891  1.0000
  H   H673      1.0  0.15295  0.95667  0.96485  1.0000
  C   C410      1.0  0.05978  0.58861  0.70794  1.0000
  N   N30       1.0  0.02035  0.91254  0.95873  1.0000
  H   H674      1.0  0.44831  0.93314  0.76523  1.0000
  C   C411      1.0  0.02207  0.72906  0.94002  1.0000
  H   H675      1.0  0.37854  0.88049  0.74145  1.0000
  H   H676      1.0  0.26892  0.59707  0.69604  1.0000
  H   H677      1.0  0.22043  0.93632  0.96723  1.0000
  S   S125      1.0  0.15994  0.51849  0.78631  1.0000
  H   H678      1.0  0.21510  0.99512  0.91756  1.0000
  N   N31       1.0  0.25611  0.67357  0.79697  1.0000
  C   C412      1.0  0.25691  0.63543  0.79630  1.0000
  C   C413      1.0  0.21926  0.68465  0.79138  1.0000
  C   C414      1.0  0.26453  0.68409  0.81764  1.0000
  C   C415      1.0  0.28363  0.68651  0.78289  1.0000
  C   C416      1.0  0.29121  0.61806  0.80334  1.0000
  C   C417      1.0  0.20867  0.67810  0.77001  1.0000
  C   C418      1.0  0.25002  0.71850  0.82465  1.0000
  C   C419      1.0  0.28521  0.72510  0.77995  1.0000
  H   H679      1.0  0.23500  0.62482  0.80529  1.0000
  H   H680      1.0  0.25266  0.62613  0.78125  1.0000
  H   H681      1.0  0.21475  0.71201  0.79368  1.0000
  H   H682      1.0  0.19937  0.67221  0.80100  1.0000
  H   H683      1.0  0.25419  0.66539  0.82840  1.0000
  H   H684      1.0  0.29357  0.68420  0.82001  1.0000
  H   H685      1.0  0.31049  0.67894  0.78777  1.0000
  H   H686      1.0  0.28147  0.67432  0.76832  1.0000
  H   H687      1.0  0.28748  0.59025  0.80282  1.0000
  H   H688      1.0  0.31395  0.62372  0.79364  1.0000
  H   H689      1.0  0.29754  0.62430  0.81867  1.0000
  H   H690      1.0  0.20964  0.65101  0.76610  1.0000
  H   H691      1.0  0.18086  0.68651  0.76799  1.0000
  H   H692      1.0  0.22503  0.69281  0.75958  1.0000
  H   H693      1.0  0.26122  0.72411  0.83922  1.0000
  H   H694      1.0  0.22090  0.71762  0.82667  1.0000
  H   H695      1.0  0.25706  0.73964  0.81483  1.0000
  H   H696      1.0  0.30224  0.73689  0.79111  1.0000
  H   H697      1.0  0.25902  0.73758  0.78006  1.0000
  H   H698      1.0  0.29633  0.73064  0.76524  1.0000
  H   H699      1.0  0.03101  0.74397  0.95280  1.0000
  H   H700      1.0  0.05032  0.88290  0.97962  1.0000
  H   H701      1.0  0.07289  0.55321  0.73112  1.0000
  H   H702      1.0  0.41626  0.96918  0.80979  1.0000
  H   H703      1.0  0.14743  0.99538  0.72809  1.0000
  C   C420      1.0  0.45427  0.98148  0.77807  1.0000
  H   H704      1.0  0.43858  0.00296  0.78376  1.0000
  H   H705      1.0  0.04434  0.98367  0.95661  1.0000
  H   H706      1.0  0.25489  0.54190  0.68318  1.0000
  C   C421      1.0  0.06397  0.96320  0.95891  1.0000
  C   C422      1.0  0.27003  0.96912  0.74466  1.0000
  C   C423      1.0  0.01147  0.65108  0.74512  1.0000
  H   H707      1.0  0.27171  0.93796  0.91961  1.0000
  H   H708      1.0  0.08832  0.97147  0.95116  1.0000
  H   H709      1.0  0.34534  0.97776  0.77461  1.0000
  H   H710      1.0  0.28797  0.83883  0.98083  1.0000
  C   C424      1.0  0.39377  0.89361  0.75291  1.0000
  H   H711      1.0  0.29133  0.90401  0.94896  1.0000
  H   H712      1.0  0.16562  0.91287  0.96759  1.0000
  C   C425      1.0  0.49792  0.86804  0.74061  1.0000
  H   H713      1.0  0.36742  0.91727  0.79054  1.0000
  H   H714      1.0  0.02756  0.66658  0.69734  1.0000
  H   H715      1.0  0.46071  0.00339  0.96807  1.0000
  N   N32       1.0  0.39512  0.95119  0.77085  1.0000
  C   C426      1.0  0.27941  0.57434  0.70365  1.0000
  H   H716      1.0  0.09543  0.66363  0.95796  1.0000
  C   C427      1.0  0.26846  0.85371  0.98865  1.0000
  H   H717      1.0  0.39572  0.93407  0.82146  1.0000
  C   C428      1.0  0.01471  0.88031  0.94742  1.0000
  H   H718      1.0  0.46292  0.56032  0.00050  1.0000
  H   H719      1.0  0.26052  0.56855  0.71568  1.0000
  S   S126      1.0  0.16840  0.97781  0.83653  1.0000
  C   C429      1.0  0.03535  0.74665  0.99672  1.0000
  H   H720      1.0  0.20824  0.97296  0.95449  1.0000
  H   H721      1.0  0.30480  0.58021  0.71057  1.0000
  Fe  Fe64      1.0  0.16621  0.51850  0.81902  1.0000
  C   C430      1.0  0.23238  0.84888  0.98486  1.0000
  C   C431      1.0  0.05205  0.92970  0.94982  1.0000
  H   H722      1.0  0.07104  0.96093  0.97451  1.0000
  H   H723      1.0  0.42172  0.89356  0.74799  1.0000
  H   H724      1.0  0.38230  0.94181  0.74050  1.0000
  H   H725      1.0  0.18063  0.98280  0.90147  1.0000
  H   H726      1.0  0.00661  0.77429  0.92411  1.0000
  H   H727      1.0  0.08141  0.99790  0.73053  1.0000
  H   H728      1.0  0.17966  0.86494  0.99229  1.0000
  S   S127      1.0  0.42788  0.97079  0.00082  1.0000
  H   H729      1.0  0.17154  0.98488  0.92701  1.0000
  H   H730      1.0  0.00476  0.96583  0.98258  1.0000
  C   C432      1.0  0.01373  0.59280  0.75647  1.0000
  H   H731      1.0  0.46666  0.51571  0.93257  1.0000
  C   C433      1.0  0.04402  0.56607  0.67548  1.0000
  H   H732      1.0  0.20782  0.99517  0.71790  1.0000
  C   C434      1.0  0.45883  0.51091  0.94795  1.0000
  C   C435      1.0  0.28157  0.54371  0.68985  1.0000
  H   H733      1.0  0.00146  0.56830  0.75776  1.0000
  H   H734      1.0  0.47537  0.99319  0.76900  1.0000
  H   H735      1.0  0.31483  0.59895  0.67475  1.0000
  H   H736      1.0  0.51078  0.08043  0.04228  1.0000
  C   C436      1.0  0.73503  0.01427  0.26149  1.0000
  Fe  Fe65      1.0  0.59161  0.07138  0.29593  1.0000
  S   S128      1.0  0.64161  0.10183  0.29682  1.0000
  S   S129      1.0  0.54381  0.07460  0.27600  1.0000
  Fe  Fe66      1.0  0.67003  0.05176  0.29464  1.0000
  S   S130      1.0  0.71914  0.04884  0.27543  1.0000
  Fe  Fe67      1.0  0.64035  0.09223  0.32934  1.0000
  H   H737      1.0  0.60651  0.05578  0.25328  1.0000
  S   S131      1.0  0.58804  0.06543  0.32864  1.0000
  Fe  Fe68      1.0  0.85074  0.44128  0.20206  1.0000
  S   S132      1.0  0.89307  0.48057  0.20462  1.0000
  S   S133      1.0  0.79683  0.44199  0.21742  1.0000
  Fe  Fe69      1.0  0.89768  0.39439  0.17698  1.0000
  S   S134      1.0  0.94250  0.43104  0.17813  1.0000
  S   S135      1.0  0.91407  0.34461  0.16272  1.0000
  Fe  Fe70      1.0  0.93000  0.43632  0.20991  1.0000
  S   S136      1.0  0.97358  0.43944  0.23277  1.0000
  Fe  Fe71      1.0  0.90189  0.47160  0.17236  1.0000
  H   H738      1.0  0.88765  0.44758  0.12798  1.0000
  S   S137      1.0  0.88727  0.39759  0.20933  1.0000
  S   S138      1.0  0.85744  0.43450  0.16934  1.0000
  Fe  Fe72      1.0  0.84162  0.17078  0.04582  1.0000
  S   S139      1.0  0.89252  0.14140  0.04439  1.0000
  S   S140      1.0  0.78812  0.16020  0.03202  1.0000
  Fe  Fe73      1.0  0.87349  0.22525  0.07225  1.0000
  S   S141      1.0  0.92708  0.20037  0.07236  1.0000
  S   S142      1.0  0.85476  0.27419  0.08651  1.0000
  Fe  Fe74      1.0  0.91872  0.19199  0.04024  1.0000
  H   H739      1.0  0.97176  0.15989  0.13142  1.0000
  Fe  Fe75      1.0  0.89713  0.15171  0.07655  1.0000
  S   S143      1.0  0.92159  0.11466  0.09822  1.0000
  S   S144      1.0  0.86738  0.22080  0.03969  1.0000
  S   S145      1.0  0.84407  0.17719  0.07849  1.0000
  H   H740      1.0  0.85378  0.38742  0.25048  1.0000
  H   H741      1.0  0.69858  0.06733  0.20633  1.0000
  H   H742      1.0  0.51540  0.18290  0.08213  1.0000
  H   H743      1.0  0.59870  0.01011  0.22877  1.0000
  H   H744      1.0  0.96320  0.36589  0.23356  1.0000
  C   C437      1.0  0.89711  0.32577  0.14145  1.0000
  C   C438      1.0  0.86389  0.33426  0.13410  1.0000
  C   C439      1.0  0.85135  0.31821  0.11724  1.0000
  C   C440      1.0  0.87166  0.29327  0.10773  1.0000
  C   C441      1.0  0.90490  0.28481  0.11507  1.0000
  C   C442      1.0  0.91757  0.30109  0.13183  1.0000
  H   H745      1.0  0.84772  0.35290  0.14153  1.0000
  H   H746      1.0  0.82555  0.32484  0.11164  1.0000
  H   H747      1.0  0.92094  0.26597  0.10773  1.0000
  H   H748      1.0  0.94338  0.29451  0.13740  1.0000
  C   C443      1.0  0.86453  0.03669  0.13679  1.0000
  C   C444      1.0  0.90118  0.04001  0.13756  1.0000
  C   C445      1.0  0.91823  0.06393  0.12555  1.0000
  C   C446      1.0  0.89887  0.08462  0.11268  1.0000
  C   C447      1.0  0.86221  0.08138  0.11198  1.0000
  C   C448      1.0  0.84516  0.05749  0.12398  1.0000
  H   H749      1.0  0.94665  0.39972  0.13983  1.0000
  H   H750      1.0  0.94662  0.06641  0.12622  1.0000
  H   H751      1.0  0.84701  0.09722  0.10218  1.0000
  H   H752      1.0  0.81677  0.05504  0.12330  1.0000
  H   H753      1.0  0.78593  0.03705  0.25699  1.0000
  C   C449      1.0  0.94837  0.43057  0.11280  1.0000
  H   H754      1.0  0.96844  0.43458  0.10105  1.0000
  H   H755      1.0  0.94166  0.18323  0.11681  1.0000
  H   H756      1.0  0.89472  0.34773  0.07681  1.0000
  H   H757      1.0  0.88033  0.43934  0.08040  1.0000
  H   H758      1.0  0.52230  0.12294  0.03644  1.0000
  H   H759      1.0  0.92168  0.50112  0.27915  1.0000
  H   H760      1.0  0.89117  0.40345  0.13168  1.0000
  C   C450      1.0  0.91662  0.38535  0.09630  1.0000
  H   H761      1.0  0.60532  0.12113  0.25962  1.0000
  C   C451      1.0  0.52237  0.10910  0.26429  1.0000
  C   C452      1.0  0.90228  0.48300  0.09366  1.0000
  C   C453      1.0  0.52079  0.01719  0.01273  1.0000
  C   C454      1.0  0.83665  0.21454  0.12894  1.0000
  H   H762      1.0  0.55218  0.14830  0.27804  1.0000
  H   H763      1.0  0.91160  0.14041  0.13703  1.0000
  H   H764      1.0  0.93109  0.15542  0.15875  1.0000
  C   C455      1.0  0.74334  0.46598  0.24127  1.0000
  C   C456      1.0  0.77494  0.47392  0.23137  1.0000
  H   H765      1.0  0.83020  0.42215  0.12747  1.0000
  H   H766      1.0  0.88955  0.20870  0.11892  1.0000
  H   H767      1.0  0.59999  0.23596  0.33237  1.0000
  H   H768      1.0  0.73266  0.44083  0.24005  1.0000
  H   H769      1.0  0.86468  0.38165  0.08123  1.0000
  H   H770      1.0  0.50295  0.24324  0.10963  1.0000
  H   H771      1.0  0.90208  0.38761  0.06526  1.0000
  H   H772      1.0  0.91041  0.23703  0.14590  1.0000
  H   H773      1.0  0.90306  0.40933  0.27026  1.0000
  S   S146      1.0  0.62059  0.02199  0.29156  1.0000
  C   C457      1.0  0.51477  0.47869  0.01323  1.0000
  C   C458      1.0  0.90540  0.44549  0.08782  1.0000
  C   C459      1.0  0.87138  0.19415  0.12855  1.0000
  H   H774      1.0  0.82911  0.12518  0.16537  1.0000
  H   H775      1.0  0.82923  0.42551  0.25383  1.0000
  H   H776      1.0  0.63654  0.15318  0.25424  1.0000
  H   H777      1.0  0.57989  0.08329  0.23952  1.0000
  C   C460      1.0  0.77482  0.13507  0.01196  1.0000
  H   H778      1.0  0.96464  0.26281  0.02809  1.0000
  S   S147      1.0  0.59047  0.48830  0.33632  1.0000
  H   H779      1.0  0.97433  0.46832  0.28359  1.0000
  H   H780      1.0  0.84968  0.24285  0.16507  1.0000
  H   H781      1.0  0.86994  0.11478  0.15397  1.0000
  H   H782      1.0  0.84211  0.39260  0.10919  1.0000
  C   C461      1.0  0.84993  0.40930  0.26039  1.0000
  H   H783      1.0  0.96076  0.20219  0.13830  1.0000
  H   H784      1.0  0.70117  0.48370  0.26030  1.0000
  C   C462      1.0  0.89286  0.37551  0.07901  1.0000
  H   H785      1.0  0.50527  0.09687  0.01775  1.0000
  H   H786      1.0  0.83973  0.18450  0.16528  1.0000
  H   H787      1.0  0.94393  0.38047  0.09078  1.0000
  N   N33       1.0  0.88815  0.18683  0.14804  1.0000
  H   H788      1.0  0.83552  0.13659  0.14043  1.0000
  N   N34       1.0  0.91324  0.42094  0.10417  1.0000
  C   C463      1.0  0.85899  0.48417  0.26208  1.0000
  H   H789      1.0  0.72139  0.15408  0.01324  1.0000
  H   H790      1.0  0.92532  0.21375  0.16632  1.0000
  C   C464      1.0  0.87617  0.23825  0.17118  1.0000
  H   H791      1.0  0.94189  0.45243  0.30021  1.0000
  H   H792      1.0  0.87645  0.16401  0.17604  1.0000
  H   H793      1.0  0.92737  0.49310  0.09937  1.0000
  C   C465      1.0  0.90148  0.21894  0.15730  1.0000
  H   H794      1.0  0.88759  0.26340  0.17442  1.0000
  C   C466      1.0  0.96455  0.40500  0.12741  1.0000
  H   H795      1.0  0.89709  0.43107  0.24783  1.0000
  N   N35       1.0  0.63331  0.07660  0.22812  1.0000
  H   H796      1.0  0.92622  0.44360  0.07629  1.0000
  C   C467      1.0  0.61990  0.25421  0.33762  1.0000
  C   C468      1.0  0.88547  0.42768  0.26270  1.0000
  C   C469      1.0  0.58240  0.03345  0.22806  1.0000
  H   H797      1.0  0.57507  0.03926  0.21277  1.0000
  C   C470      1.0  0.92077  0.47526  0.27310  1.0000
  C   C471      1.0  0.62704  0.08656  0.20714  1.0000
  H   H798      1.0  0.61305  0.38569  0.33786  1.0000
  S   S148      1.0  0.67241  0.04404  0.32712  1.0000
  C   C472      1.0  0.91955  0.16383  0.14459  1.0000
  C   C473      1.0  0.88598  0.42291  0.12030  1.0000
  C   C474      1.0  0.94986  0.17870  0.13211  1.0000
  C   C475      1.0  0.62168  0.13201  0.24770  1.0000
  C   C476      1.0  0.86327  0.16875  0.16178  1.0000
  H   H799      1.0  0.50597  0.25641  0.13444  1.0000
  C   C477      1.0  0.98232  0.25888  0.01583  1.0000
  C   C478      1.0  0.59669  0.11179  0.20295  1.0000
  H   H800      1.0  0.91242  0.36646  0.10812  1.0000
  C   C479      1.0  0.50281  0.10280  0.03352  1.0000
  H   H801      1.0  0.83101  0.47944  0.26636  1.0000
  H   H802      1.0  0.86639  0.17021  0.12061  1.0000
  H   H803      1.0  0.60634  0.13821  0.20311  1.0000
  H   H804      1.0  0.66799  0.11974  0.23073  1.0000
  S   S149      1.0  0.96013  0.19210  0.01593  1.0000
  C   C480      1.0  0.98457  0.37201  0.24329  1.0000
  H   H805      1.0  0.63210  0.26617  0.32460  1.0000
  C   C481      1.0  0.50211  0.17254  0.09534  1.0000
  H   H806      1.0  0.65106  0.09841  0.20081  1.0000
  H   H807      1.0  0.60424  0.14301  0.23647  1.0000
  N   N36       1.0  0.88388  0.46111  0.27323  1.0000
  H   H808      1.0  0.65060  0.32080  0.32933  1.0000
  H   H809      1.0  0.87335  0.22469  0.18532  1.0000
  H   H810      1.0  0.82663  0.21713  0.11381  1.0000
  C   C482      1.0  0.94876  0.45482  0.28452  1.0000
  C   C483      1.0  0.84722  0.41848  0.11437  1.0000
  C   C484      1.0  0.72535  0.49028  0.25276  1.0000
  H   H811      1.0  0.53764  0.02083  0.02522  1.0000
  H   H812      1.0  0.81564  0.20190  0.13751  1.0000
  H   H813      1.0  0.93038  0.47822  0.25779  1.0000
  H   H814      1.0  0.84078  0.24060  0.13415  1.0000
  C   C485      1.0  0.62873  0.33190  0.33823  1.0000
  C   C486      1.0  0.86919  0.48518  0.30757  1.0000
  H   H815      1.0  0.88452  0.43353  0.30083  1.0000
  H   H816      1.0  0.98891  0.41592  0.13364  1.0000
  C   C487      1.0  0.99498  0.40564  0.24531  1.0000
  C   C488      1.0  0.84901  0.13451  0.15469  1.0000
  C   C489      1.0  0.60048  0.06350  0.23800  1.0000
  H   H817      1.0  0.55747  0.02795  0.23611  1.0000
  H   H818      1.0  0.84245  0.44573  0.29312  1.0000
  H   H819      1.0  0.95375  0.42953  0.27820  1.0000
  H   H820      1.0  0.89566  0.49832  0.08054  1.0000
  C   C490      1.0  0.78819  0.50666  0.23297  1.0000
  H   H821      1.0  0.87020  0.47579  0.32286  1.0000
  C   C491      1.0  0.53153  0.14267  0.26777  1.0000
  H   H822      1.0  0.58587  0.10666  0.18824  1.0000
  H   H823      1.0  0.84027  0.39899  0.27450  1.0000
  H   H824      1.0  0.52014  0.19506  0.26120  1.0000
  H   H825      1.0  0.66276  0.09603  0.25263  1.0000
  C   C492      1.0  0.87017  0.45478  0.29360  1.0000
  H   H826      1.0  0.97221  0.38080  0.12043  1.0000
  C   C493      1.0  0.64818  0.10568  0.23960  1.0000
  H   H827      1.0  0.88073  0.48727  0.10440  1.0000
  H   H828      1.0  0.62315  0.06398  0.19778  1.0000
  H   H829      1.0  0.00047  0.31044  0.01516  1.0000
  H   H830      1.0  0.83853  0.43742  0.10344  1.0000
  H   H831      1.0  0.52002  0.17848  0.10749  1.0000
  H   H832      1.0  0.60495  0.33113  0.32876  1.0000
  Fe  Fe76      1.0  0.62042  0.01814  0.32426  1.0000
  H   H833      1.0  0.57371  0.10963  0.21287  1.0000
  H   H834      1.0  0.91635  0.02416  0.14735  1.0000
  C   C494      1.0  0.66029  0.04826  0.22838  1.0000
  H   H835      1.0  0.71460  0.03423  0.22158  1.0000
  C   C495      1.0  0.76958  0.01543  0.25396  1.0000
  H   H836      1.0  0.65193  0.02692  0.21902  1.0000
  H   H837      1.0  0.94633  0.45496  0.12080  1.0000
  H   H838      1.0  0.89227  0.50189  0.30610  1.0000
  C   C496      1.0  0.51327  0.16913  0.25824  1.0000
  H   H839      1.0  0.86026  0.47883  0.24611  1.0000
  H   H840      1.0  0.66282  0.03760  0.24341  1.0000
  H   H841      1.0  0.52937  0.45591  0.01677  1.0000
  H   H842      1.0  0.71069  0.07556  0.23149  1.0000
  H   H843      1.0  0.84452  0.50018  0.30563  1.0000
  H   H844      1.0  0.88213  0.01676  0.08889  1.0000
  H   H845      1.0  0.99341  0.32030  0.25238  1.0000
  C   C497      1.0  0.69794  0.05747  0.22147  1.0000
  H   H846      1.0  0.65684  0.37786  0.33008  1.0000
  H   H847      1.0  0.79868  0.45084  0.47846  1.0000
  C   C498      1.0  0.76648  0.36002  0.42957  1.0000
  Fe  Fe77      1.0  0.59355  0.32661  0.45899  1.0000
  S   S150      1.0  0.62683  0.27956  0.45820  1.0000
  S   S151      1.0  0.54347  0.33016  0.47774  1.0000
  Fe  Fe78      1.0  0.63732  0.36107  0.42600  1.0000
  S   S152      1.0  0.67248  0.31530  0.42323  1.0000
  S   S153      1.0  0.65709  0.40511  0.40725  1.0000
  Fe  Fe79      1.0  0.62315  0.28429  0.42545  1.0000
  S   S154      1.0  0.59832  0.24511  0.40540  1.0000
  Fe  Fe80      1.0  0.67295  0.31561  0.45620  1.0000
  S   S155      1.0  0.72559  0.30948  0.47207  1.0000
  S   S156      1.0  0.58784  0.33030  0.42632  1.0000
  S   S157      1.0  0.63980  0.36251  0.45892  1.0000
  H   H848      1.0  0.78492  0.39283  0.46888  1.0000
  S   S158      1.0  0.87771  0.28180  0.66476  1.0000
  Fe  Fe81      1.0  0.85201  0.42804  0.53938  1.0000
  S   S159      1.0  0.90419  0.40068  0.53625  1.0000
  S   S160      1.0  0.80137  0.42458  0.52126  1.0000
  Fe  Fe82      1.0  0.87743  0.46919  0.57467  1.0000
  S   S161      1.0  0.93087  0.44445  0.57412  1.0000
  C   C499      1.0  0.81443  0.43879  0.46662  1.0000
  Fe  Fe83      1.0  0.92941  0.45137  0.54138  1.0000
  C   C500      1.0  0.60191  0.32956  0.37196  1.0000
  Fe  Fe84      1.0  0.90239  0.39561  0.56910  1.0000
  S   S162      1.0  0.92384  0.34750  0.58360  1.0000
  S   S163      1.0  0.87738  0.47949  0.54227  1.0000
  S   S164      1.0  0.84871  0.41963  0.57187  1.0000
  C   C501      1.0  0.70412  0.45329  0.44684  1.0000
  H   H849      1.0  0.81400  0.39477  0.44868  1.0000
  C   C502      1.0  0.62590  0.11555  0.41439  1.0000
  H   H850      1.0  0.67195  0.34398  0.38214  1.0000
  H   H851      1.0  0.52484  0.23646  0.42025  1.0000
  C   C503      1.0  0.89036  0.29810  0.64169  1.0000
  C   C504      1.0  0.86639  0.31859  0.63137  1.0000
  C   C505      1.0  0.87600  0.33349  0.61342  1.0000
  C   C506      1.0  0.91012  0.32892  0.60593  1.0000
  C   C507      1.0  0.93404  0.30833  0.61623  1.0000
  C   C508      1.0  0.92423  0.29290  0.63401  1.0000
  H   H852      1.0  0.84011  0.32271  0.63721  1.0000
  H   H853      1.0  0.85701  0.34844  0.60533  1.0000
  H   H854      1.0  0.96050  0.30464  0.61053  1.0000
  H   H855      1.0  0.94317  0.27780  0.64204  1.0000
  C   C509      1.0  0.89834  0.08493  0.63690  1.0000
  C   C510      1.0  0.86207  0.07929  0.63858  1.0000
  C   C511      1.0  0.84581  0.05505  0.62667  1.0000
  C   C512      1.0  0.86554  0.03629  0.61295  1.0000
  C   C513      1.0  0.90179  0.04202  0.61124  1.0000
  C   C514      1.0  0.91806  0.06615  0.62319  1.0000
  H   H856      1.0  0.84655  0.09358  0.64903  1.0000
  H   H857      1.0  0.81772  0.05085  0.62806  1.0000
  H   H858      1.0  0.83563  0.39281  0.63623  1.0000
  H   H859      1.0  0.94613  0.07041  0.62174  1.0000
  H   H860      1.0  0.87847  0.44273  0.61066  1.0000
  C   C515      1.0  0.55063  0.27068  0.49911  1.0000
  H   H861      1.0  0.64721  0.37701  0.35542  1.0000
  H   H862      1.0  0.57839  0.27143  0.49537  1.0000
  H   H863      1.0  0.55519  0.22425  0.51560  1.0000
  C   C516      1.0  0.74501  0.33988  0.48776  1.0000
  C   C517      1.0  0.72719  0.36955  0.49311  1.0000
  C   C518      1.0  0.74446  0.39440  0.50415  1.0000
  C   C519      1.0  0.77969  0.39000  0.51008  1.0000
  C   C520      1.0  0.79715  0.35979  0.50537  1.0000
  C   C521      1.0  0.77988  0.33492  0.49426  1.0000
  H   H864      1.0  0.70028  0.37365  0.48847  1.0000
  H   H865      1.0  0.73062  0.41755  0.50781  1.0000
  H   H866      1.0  0.82428  0.35602  0.50976  1.0000
  H   H867      1.0  0.79391  0.31201  0.49032  1.0000
  C   C522      1.0  0.64454  0.16126  0.36618  1.0000
  C   C523      1.0  0.60847  0.16902  0.36598  1.0000
  C   C524      1.0  0.59487  0.19468  0.37817  1.0000
  C   C525      1.0  0.61714  0.21313  0.39046  1.0000
  C   C526      1.0  0.65324  0.20567  0.39049  1.0000
  C   C527      1.0  0.66678  0.17974  0.37849  1.0000
  H   H868      1.0  0.57408  0.16867  0.46152  1.0000
  H   H869      1.0  0.56688  0.20034  0.37798  1.0000
  H   H870      1.0  0.67069  0.21960  0.39989  1.0000
  H   H871      1.0  0.69472  0.17384  0.37878  1.0000
  C   C528      1.0  0.61010  0.46443  0.35540  1.0000
  C   C529      1.0  0.58877  0.44240  0.36644  1.0000
  C   C530      1.0  0.60267  0.42396  0.38231  1.0000
  C   C531      1.0  0.63818  0.42727  0.38727  1.0000
  C   C532      1.0  0.65954  0.44927  0.37623  1.0000
  C   C533      1.0  0.64565  0.46771  0.36035  1.0000
  C   C534      1.0  0.98067  0.01366  0.49298  1.0000
  H   H872      1.0  0.58580  0.40767  0.39090  1.0000
  H   H873      1.0  0.68703  0.45210  0.37997  1.0000
  C   C535      1.0  0.73958  0.44288  0.45596  1.0000
  N   N37       1.0  0.76344  0.42003  0.44410  1.0000
  H   H874      1.0  0.82463  0.43718  0.63244  1.0000
  C   C536      1.0  0.74390  0.38822  0.43897  1.0000
  H   H875      1.0  0.90916  0.37845  0.64470  1.0000
  C   C537      1.0  0.93617  0.44197  0.63116  1.0000
  H   H876      1.0  0.55336  0.24418  0.46234  1.0000
  H   H877      1.0  0.59105  0.15500  0.35661  1.0000
  C   C538      1.0  0.99755  0.49338  0.50959  1.0000
  H   H878      1.0  0.78296  0.34696  0.44068  1.0000
  C   C539      1.0  0.90239  0.40212  0.65272  1.0000
  H   H879      1.0  0.73120  0.37725  0.45222  1.0000
  H   H880      1.0  0.61588  0.35198  0.37744  1.0000
  H   H881      1.0  0.55379  0.35843  0.37749  1.0000
  H   H882      1.0  0.67463  0.08659  0.38645  1.0000
  H   H883      1.0  0.68840  0.01052  0.39276  1.0000
  H   H884      1.0  0.74881  0.34056  0.42345  1.0000
  C   C540      1.0  0.69255  0.03568  0.38618  1.0000
  H   H885      1.0  0.70782  0.47016  0.43406  1.0000
  N   N38       1.0  0.90043  0.43216  0.63914  1.0000
  C   C541      1.0  0.87807  0.42247  0.62193  1.0000
  H   H886      1.0  0.75298  0.46698  0.45947  1.0000
  H   H887      1.0  0.69416  0.34004  0.35861  1.0000
  C   C542      1.0  0.56462  0.34147  0.36600  1.0000
  H   H888      1.0  0.96358  0.03317  0.48711  1.0000
  H   H889      1.0  0.62314  0.05698  0.36600  1.0000
  H   H890      1.0  0.95320  0.45308  0.64246  1.0000
  H   H891      1.0  0.94557  0.40205  0.60909  1.0000
  C   C543      1.0  0.75486  0.43865  0.40785  1.0000
  C   C544      1.0  0.66955  0.06365  0.39552  1.0000
  H   H892      1.0  0.78339  0.36961  0.41755  1.0000
  N   N39       1.0  0.63033  0.05731  0.39721  1.0000
  C   C545      1.0  0.61177  0.09115  0.39879  1.0000
  S   S165      1.0  0.92047  0.11523  0.65128  1.0000
  H   H893      1.0  0.56470  0.35585  0.35209  1.0000
  C   C546      1.0  0.62184  0.03719  0.41538  1.0000
  H   H894      1.0  0.52908  0.30996  0.53828  1.0000
  H   H895      1.0  0.82541  0.40846  0.61261  1.0000
  H   H896      1.0  0.70611  0.31361  0.37861  1.0000
  H   H897      1.0  0.72619  0.43714  0.41044  1.0000
  C   C547      1.0  0.92716  0.40492  0.67036  1.0000
  H   H898      1.0  0.58318  0.08797  0.40206  1.0000
  S   S166      1.0  0.66297  0.12768  0.35229  1.0000
  C   C548      1.0  0.61705  0.04080  0.37892  1.0000
  H   H899      1.0  0.55602  0.34650  0.53954  1.0000
  H   H900      1.0  0.62450  0.10465  0.42930  1.0000
  H   H901      1.0  0.63416  0.04893  0.42835  1.0000
  C   C549      1.0  0.51599  0.34535  0.56262  1.0000
  H   H902      1.0  0.68879  0.46813  0.45775  1.0000
  C   C550      1.0  0.53741  0.24397  0.51063  1.0000
  H   H903      1.0  0.50832  0.29910  0.59087  1.0000
  H   H904      1.0  0.56116  0.43993  0.36281  1.0000
  H   H905      1.0  0.57123  0.01895  0.36503  1.0000
  H   H906      1.0  0.93321  0.46231  0.61994  1.0000
  H   H907      1.0  0.92168  0.47212  0.67217  1.0000
  C   C551      1.0  0.79402  0.40979  0.45696  1.0000
  C   C552      1.0  0.57727  0.03281  0.37865  1.0000
  N   N40       1.0  0.62267  0.31099  0.35645  1.0000
  H   H908      1.0  0.73323  0.43079  0.47024  1.0000
  C   C553      1.0  0.95830  0.41310  0.62202  1.0000
  H   H909      1.0  0.56075  0.05604  0.37844  1.0000
  H   H910      1.0  0.78418  0.46495  0.43006  1.0000
  H   H911      1.0  0.96437  0.39279  0.63270  1.0000
  N   N41       1.0  0.90114  0.20580  0.60171  1.0000
  C   C554      1.0  0.92650  0.22528  0.58884  1.0000
  C   C555      1.0  0.92011  0.19784  0.62051  1.0000
  C   C556      1.0  0.86939  0.22821  0.60561  1.0000
  C   C557      1.0  0.89074  0.17432  0.59091  1.0000
  C   C558      1.0  0.91060  0.24238  0.57053  1.0000
  C   C559      1.0  0.95345  0.17548  0.61852  1.0000
  C   C560      1.0  0.84700  0.22050  0.62393  1.0000
  C   C561      1.0  0.86772  0.14847  0.60198  1.0000
  H   H912      1.0  0.93950  0.24565  0.59728  1.0000
  H   H913      1.0  0.94828  0.20868  0.58345  1.0000
  H   H914      1.0  0.90290  0.18507  0.63135  1.0000
  H   H915      1.0  0.92796  0.22163  0.62784  1.0000
  H   H916      1.0  0.87770  0.25495  0.60741  1.0000
  H   H917      1.0  0.85119  0.22826  0.59291  1.0000
  H   H918      1.0  0.87565  0.18104  0.57757  1.0000
  H   H919      1.0  0.91425  0.16060  0.58501  1.0000
  H   H920      1.0  0.89749  0.22415  0.56081  1.0000
  H   H921      1.0  0.89200  0.26318  0.57436  1.0000
  H   H922      1.0  0.93225  0.25423  0.56195  1.0000
  H   H923      1.0  0.97456  0.18782  0.60987  1.0000
  H   H924      1.0  0.55543  0.19072  0.48240  1.0000
  H   H925      1.0  0.94730  0.15033  0.61239  1.0000
  H   H926      1.0  0.82326  0.23715  0.62395  1.0000
  H   H927      1.0  0.86171  0.22660  0.63737  1.0000
  H   H928      1.0  0.83770  0.19417  0.62467  1.0000
  H   H929      1.0  0.83920  0.15394  0.59984  1.0000
  H   H930      1.0  0.87320  0.14668  0.61774  1.0000
  H   H931      1.0  0.87351  0.12270  0.59635  1.0000
  H   H932      1.0  0.68755  0.43133  0.44318  1.0000
  H   H933      1.0  0.98390  0.42340  0.61684  1.0000
  H   H934      1.0  0.80348  0.42649  0.42181  1.0000
  H   H935      1.0  0.65324  0.12376  0.41108  1.0000
  H   H936      1.0  0.61296  0.10486  0.38458  1.0000
  H   H937      1.0  0.51480  0.37349  0.56306  1.0000
  H   H938      1.0  0.76319  0.41823  0.39771  1.0000
  S   S167      1.0  0.98331  0.46474  0.52807  1.0000
  H   H939      1.0  0.86979  0.47876  0.63793  1.0000
  H   H940      1.0  0.72082  0.04201  0.38812  1.0000
  C   C562      1.0  0.77795  0.43828  0.42640  1.0000
  H   H941      1.0  0.72160  0.39311  0.42901  1.0000
  C   C563      1.0  0.68331  0.32614  0.37137  1.0000
  H   H942      1.0  0.82318  0.45807  0.45590  1.0000
  H   H943      1.0  0.83837  0.42818  0.47377  1.0000
  C   C564      1.0  0.83885  0.41491  0.62643  1.0000
  H   H944      1.0  0.57668  0.28762  0.34356  1.0000
  H   H945      1.0  0.68097  0.06910  0.41009  1.0000
  H   H946      1.0  0.85613  0.01450  0.48624  1.0000
  H   H947      1.0  0.88896  0.39989  0.61447  1.0000
  H   H948      1.0  0.68810  0.03445  0.37021  1.0000
  H   H949      1.0  0.60936  0.13887  0.41435  1.0000
  H   H950      1.0  0.54178  0.17265  0.43082  1.0000
  C   C565      1.0  0.88259  0.46196  0.64897  1.0000
  C   C566      1.0  0.52864  0.33721  0.54162  1.0000
  H   H951      1.0  0.54617  0.31994  0.36498  1.0000
  C   C567      1.0  0.52801  0.29635  0.49256  1.0000
  H   H952      1.0  0.53781  0.33811  0.57266  1.0000
  H   H953      1.0  0.59871  0.31318  0.38511  1.0000
  H   H954      1.0  0.53102  0.28406  0.44354  1.0000
  H   H955      1.0  0.59312  0.03815  0.41894  1.0000
  H   H956      1.0  0.65203  0.28215  0.37789  1.0000
  H   H957      1.0  0.96447  0.17088  0.63330  1.0000
  C   C568      1.0  0.65713  0.29883  0.36501  1.0000
  H   H958      1.0  0.56939  0.01611  0.39093  1.0000
  C   C569      1.0  0.57022  0.19365  0.46849  1.0000
  H   H959      1.0  0.67223  0.28321  0.35436  1.0000
  H   H960      1.0  0.75938  0.46263  0.39976  1.0000
  H   H961      1.0  0.59293  0.26623  0.36445  1.0000
  H   H962      1.0  0.59686  0.20293  0.47239  1.0000
  C   C570      1.0  0.51664  0.17671  0.43911  1.0000
  H   H963      1.0  0.87596  0.39655  0.65905  1.0000
  H   H964      1.0  0.91727  0.02791  0.60070  1.0000
  H   H965      1.0  0.66231  0.48465  0.35203  1.0000
  H   H966      1.0  0.57081  0.22248  0.44186  1.0000
  C   C571      1.0  0.55273  0.21960  0.45462  1.0000
  C   C572      1.0  0.90586  0.48566  0.66110  1.0000
  H   H967      1.0  0.63081  0.01675  0.37581  1.0000
  H   H968      1.0  0.92336  0.50094  0.65150  1.0000
  C   C573      1.0  0.60149  0.28018  0.35110  1.0000
  H   H969      1.0  0.86074  0.45333  0.65869  1.0000
  H   H970      1.0  0.97846  0.44118  0.46239  1.0000
  S   S168      1.0  0.85585  0.50604  0.59770  1.0000
  H   H971      1.0  0.51301  0.37323  0.59816  1.0000
  H   H972      1.0  0.94601  0.50596  0.49863  1.0000
  N   N42       1.0  0.51579  0.21159  0.44798  1.0000
  H   H973      1.0  0.51213  0.35042  0.53058  1.0000
  H   H974      1.0  0.95166  0.41891  0.66721  1.0000
  H   H975      1.0  0.51621  0.15697  0.45076  1.0000
  H   H976      1.0  0.52373  0.27036  0.55951  1.0000
  H   H977      1.0  0.63987  0.23900  0.34567  1.0000
  C   C574      1.0  0.50590  0.23763  0.43277  1.0000
  C   C575      1.0  0.50450  0.27458  0.43979  1.0000
  H   H978      1.0  0.88856  0.50399  0.66894  1.0000
  H   H979      1.0  0.58192  0.50603  0.40611  1.0000
  Fe  Fe85      1.0  0.90194  0.15409  0.67379  1.0000
  S   S169      1.0  0.85424  0.18849  0.67425  1.0000
  C   C576      1.0  0.50143  0.24244  0.51568  1.0000
  C   C577      1.0  0.63675  0.36993  0.34104  1.0000
  H   H980      1.0  0.57980  0.07287  0.88021  1.0000
  C   C578      1.0  0.66556  0.26365  0.90600  1.0000
  Fe  Fe86      1.0  0.85631  0.18383  0.70701  1.0000
  S   S170      1.0  0.89260  0.22745  0.71102  1.0000
  S   S171      1.0  0.80768  0.17892  0.72671  1.0000
  H   H981      1.0  0.94027  0.25710  0.96372  1.0000
  Fe  Fe87      1.0  0.93685  0.18924  0.70828  1.0000
  H   H982      1.0  0.70057  0.12075  0.98501  1.0000
  H   H983      1.0  0.54229  0.09764  0.84761  1.0000
  S   S172      1.0  0.90056  0.14491  0.70633  1.0000
  Fe  Fe88      1.0  0.60378  0.05658  0.96398  1.0000
  H   H984      1.0  0.65954  0.05382  0.87283  1.0000
  S   S173      1.0  0.57196  0.05115  0.99224  1.0000
  Fe  Fe89      1.0  0.61909  0.09289  0.92510  1.0000
  S   S174      1.0  0.66593  0.05952  0.91818  1.0000
  S   S175      1.0  0.59412  0.13150  0.90440  1.0000
  H   H985      1.0  0.83709  0.24280  0.96700  1.0000
  C   C579      1.0  0.58693  0.05451  0.86850  1.0000
  Fe  Fe90      1.0  0.67994  0.06731  0.94998  1.0000
  S   S176      1.0  0.73750  0.07393  0.95883  1.0000
  S   S177      1.0  0.58421  0.04917  0.93355  1.0000
  S   S178      1.0  0.63494  0.10323  0.95617  1.0000
  Fe  Fe91      1.0  0.69064  0.30706  0.79165  1.0000
  S   S179      1.0  0.64937  0.26774  0.79695  1.0000
  S   S180      1.0  0.73503  0.30562  0.76885  1.0000
  Fe  Fe92      1.0  0.65853  0.35447  0.82336  1.0000
  S   S181      1.0  0.61484  0.31825  0.83067  1.0000
  S   S182      1.0  0.67145  0.40471  0.83778  1.0000
  Fe  Fe93      1.0  0.65700  0.27758  0.82904  1.0000
  S   S183      1.0  0.67566  0.23930  0.85188  1.0000
  Fe  Fe94      1.0  0.61094  0.31186  0.79785  1.0000
  S   S184      1.0  0.56030  0.30875  0.78001  1.0000
  S   S185      1.0  0.70085  0.31449  0.82348  1.0000
  S   S186      1.0  0.65190  0.35061  0.79083  1.0000
  C   C580      1.0  0.51624  0.43503  0.96508  1.0000
  H   H986      1.0  0.64742  0.35830  0.93293  1.0000
  C   C581      1.0  0.75100  0.09718  0.97959  1.0000
  C   C582      1.0  0.78623  0.09468  0.98590  1.0000
  H   H987      1.0  0.64572  0.39888  0.92177  1.0000
  H   H988      1.0  0.80437  0.07801  0.97831  1.0000
  H   H989      1.0  0.61697  0.36721  0.91316  1.0000
  C   C583      1.0  0.61716  0.16218  0.89046  1.0000
  C   C584      1.0  0.59795  0.18432  0.87833  1.0000
  C   C585      1.0  0.61534  0.20786  0.86620  1.0000
  C   C586      1.0  0.65218  0.20951  0.86619  1.0000
  C   C587      1.0  0.67135  0.18750  0.87841  1.0000
  C   C588      1.0  0.65398  0.16392  0.89048  1.0000
  H   H990      1.0  0.56943  0.18308  0.87821  1.0000
  H   H991      1.0  0.60028  0.22477  0.85695  1.0000
  H   H992      1.0  0.69986  0.18872  0.87856  1.0000
  H   H993      1.0  0.66908  0.14702  0.89972  1.0000
  C   C589      1.0  0.61900  0.45115  0.89224  1.0000
  C   C590      1.0  0.65133  0.46320  0.88529  1.0000
  C   C591      1.0  0.66699  0.44880  0.86853  1.0000
  C   C592      1.0  0.65059  0.42217  0.85865  1.0000
  C   C593      1.0  0.61817  0.41030  0.86553  1.0000
  C   C594      1.0  0.60258  0.42460  0.88231  1.0000
  H   H994      1.0  0.64344  0.30605  0.92092  1.0000
  H   H995      1.0  0.69212  0.45811  0.86329  1.0000
  H   H996      1.0  0.60502  0.39027  0.85782  1.0000
  H   H997      1.0  0.57758  0.41511  0.88757  1.0000
  H   H998      1.0  0.51735  0.03414  0.96408  1.0000
  C   C595      1.0  0.55832  0.37433  0.76531  1.0000
  C   C596      1.0  0.54385  0.34196  0.76497  1.0000
  H   H999      1.0  0.79729  0.19675  0.98474  1.0000
  H   H1000     1.0  0.58017  0.37956  0.77487  1.0000
  H   H1001     1.0  0.51168  0.50281  0.95739  1.0000
  H   H1002     1.0  0.51585  0.40726  0.96267  1.0000
  C   C597      1.0  0.78665  0.21444  0.73774  1.0000
  C   C598      1.0  0.79757  0.24745  0.73380  1.0000
  C   C599      1.0  0.78139  0.27493  0.74344  1.0000
  C   C600      1.0  0.75413  0.26986  0.75715  1.0000
  C   C601      1.0  0.74292  0.23689  0.76100  1.0000
  C   C602      1.0  0.75909  0.20935  0.75131  1.0000
  H   H1003     1.0  0.81849  0.25188  0.72330  1.0000
  H   H1004     1.0  0.79017  0.30033  0.74028  1.0000
  H   H1005     1.0  0.72194  0.23258  0.77149  1.0000
  H   H1006     1.0  0.75040  0.18393  0.75447  1.0000
  H   H1007     1.0  0.96284  0.12348  0.73859  1.0000
  H   H1008     1.0  0.86379  0.20775  0.94418  1.0000
  C   C603      1.0  0.67679  0.09547  0.85530  1.0000
  C   C604      1.0  0.86477  0.18710  0.95522  1.0000
  H   H1009     1.0  0.88695  0.17031  0.95057  1.0000
  H   H1010     1.0  0.67357  0.25716  0.70255  1.0000
  H   H1011     1.0  0.85737  0.24791  0.99001  1.0000
  H   H1012     1.0  0.91063  0.26819  0.75326  1.0000
  C   C605      1.0  0.72772  0.11856  0.98965  1.0000
  H   H1013     1.0  0.92406  0.14939  0.98650  1.0000
  C   C606      1.0  0.98508  0.22690  0.00735  1.0000
  H   H1014     1.0  0.64309  0.25934  0.89606  1.0000
  H   H1015     1.0  0.69313  0.25263  0.72670  1.0000
  H   H1016     1.0  0.56390  0.08290  0.82537  1.0000
  N   N43       1.0  0.61450  0.06937  0.85504  1.0000
  C   C607      1.0  0.60023  0.10284  0.84772  1.0000
  H   H1017     1.0  0.64056  0.09246  0.87953  1.0000
  C   C608      1.0  0.54388  0.40032  0.75364  1.0000
  C   C609      1.0  0.62145  0.04669  0.83773  1.0000
  C   C610      1.0  0.56438  0.10192  0.83718  1.0000
  C   C611      1.0  0.50958  0.02453  0.97827  1.0000
  H   H1018     1.0  0.57492  0.29902  0.73192  1.0000
  H   H1019     1.0  0.50847  0.43829  0.98064  1.0000
  H   H1020     1.0  0.59720  0.12097  0.85998  1.0000
  H   H1021     1.0  0.61894  0.11481  0.83724  1.0000
  C   C612      1.0  0.51525  0.33579  0.75249  1.0000
  C   C613      1.0  0.59630  0.02093  0.87864  1.0000
  C   C614      1.0  0.91370  0.24636  0.96102  1.0000
  H   H1022     1.0  0.52251  0.42265  0.90708  1.0000
  H   H1023     1.0  0.91431  0.22592  0.99010  1.0000
  H   H1024     1.0  0.63168  0.06189  0.82521  1.0000
  N   N44       1.0  0.87162  0.20100  0.97527  1.0000
  H   H1025     1.0  0.90171  0.11691  0.75009  1.0000
  C   C615      1.0  0.98837  0.12788  0.74500  1.0000
  H   H1026     1.0  0.55807  0.47386  0.96573  1.0000
  H   H1027     1.0  0.70131  0.09478  0.86411  1.0000
  H   H1028     1.0  0.56212  0.04939  0.86053  1.0000
  H   H1029     1.0  0.92877  0.19760  0.97160  1.0000
  C   C616      1.0  0.83025  0.16730  0.95283  1.0000
  H   H1030     1.0  0.89257  0.12467  0.99925  1.0000
  S   S187      1.0  0.59859  0.46754  0.91353  1.0000
  H   H1031     1.0  0.89429  0.26710  0.96323  1.0000
  C   C617      1.0  0.55504  0.44641  0.96350  1.0000
  H   H1032     1.0  0.68361  0.35544  0.75271  1.0000
  H   H1033     1.0  0.69035  0.25454  0.89905  1.0000
  N   N45       1.0  0.88028  0.19238  0.77404  1.0000
  C   C618      1.0  0.84291  0.18328  0.77974  1.0000
  C   C619      1.0  0.89126  0.16963  0.75742  1.0000
  C   C620      1.0  0.87979  0.22845  0.76678  1.0000
  C   C621      1.0  0.90365  0.18845  0.79172  1.0000
  C   C622      1.0  0.82426  0.20697  0.79445  1.0000
  C   C623      1.0  0.88640  0.13145  0.76114  1.0000
  C   C624      1.0  0.91547  0.24339  0.76046  1.0000
  C   C625      1.0  0.94294  0.17952  0.78796  1.0000
  H   H1034     1.0  0.82585  0.18208  0.76664  1.0000
  H   H1035     1.0  0.84192  0.15755  0.78633  1.0000
  H   H1036     1.0  0.91914  0.17353  0.75298  1.0000
  H   H1037     1.0  0.87589  0.17598  0.74411  1.0000
  H   H1038     1.0  0.86135  0.23110  0.75423  1.0000
  H   H1039     1.0  0.86966  0.24599  0.77816  1.0000
  H   H1040     1.0  0.90288  0.21189  0.80065  1.0000
  H   H1041     1.0  0.89369  0.16828  0.80168  1.0000
  H   H1042     1.0  0.80008  0.19448  0.80012  1.0000
  H   H1043     1.0  0.84116  0.21292  0.80710  1.0000
  H   H1044     1.0  0.81519  0.23067  0.78723  1.0000
  H   H1045     1.0  0.80682  0.18398  0.95433  1.0000
  H   H1046     1.0  0.89551  0.12353  0.77580  1.0000
  H   H1047     1.0  0.85829  0.12434  0.75936  1.0000
  H   H1048     1.0  0.92975  0.22758  0.74970  1.0000
  H   H1049     1.0  0.93237  0.24836  0.77326  1.0000
  H   H1050     1.0  0.91357  0.23805  0.94559  1.0000
  H   H1051     1.0  0.94636  0.15327  0.78263  1.0000
  H   H1052     1.0  0.95744  0.18101  0.80195  1.0000
  H   H1053     1.0  0.95605  0.19676  0.77751  1.0000
  N   N46       1.0  0.64794  0.31415  0.72592  1.0000
  C   C626      1.0  0.64573  0.35213  0.72830  1.0000
  C   C627      1.0  0.61991  0.30476  0.71141  1.0000
  C   C628      1.0  0.68403  0.30556  0.71778  1.0000
  C   C629      1.0  0.64232  0.29805  0.74568  1.0000
  C   C630      1.0  0.67657  0.36891  0.73910  1.0000
  C   C631      1.0  0.58153  0.31196  0.71799  1.0000
  C   C632      1.0  0.69193  0.26817  0.71323  1.0000
  C   C633      1.0  0.63321  0.25996  0.74630  1.0000
  H   H1054     1.0  0.64391  0.36502  0.71382  1.0000
  H   H1055     1.0  0.62129  0.35959  0.73639  1.0000
  H   H1056     1.0  0.62114  0.27785  0.70728  1.0000
  H   H1057     1.0  0.62427  0.31838  0.69733  1.0000
  H   H1058     1.0  0.68902  0.32025  0.70413  1.0000
  H   H1059     1.0  0.70506  0.31285  0.72818  1.0000
  H   H1060     1.0  0.66599  0.30141  0.75488  1.0000
  H   H1061     1.0  0.62093  0.31142  0.75385  1.0000
  H   H1062     1.0  0.70035  0.37071  0.72961  1.0000
  C   C634      1.0  0.64734  0.07683  0.86655  1.0000
  H   H1063     1.0  0.56317  0.30229  0.70679  1.0000
  H   H1064     1.0  0.57061  0.43356  0.97508  1.0000
  S   S188      1.0  0.98533  0.19204  0.72813  1.0000
  H   H1065     1.0  0.82812  0.14576  0.96315  1.0000
  H   H1066     1.0  0.71874  0.26633  0.70659  1.0000
  H   H1067     1.0  0.65373  0.24593  0.75464  1.0000
  H   H1068     1.0  0.63106  0.24739  0.73205  1.0000
  H   H1069     1.0  0.60781  0.25624  0.75423  1.0000
  C   C635      1.0  0.81114  0.21835  0.99128  1.0000
  C   C636      1.0  0.87147  0.17359  0.99067  1.0000
  H   H1070     1.0  0.66443  0.48332  0.89295  1.0000
  H   H1071     1.0  0.84478  0.16315  0.99292  1.0000
  H   H1072     1.0  0.61267  0.50077  0.85734  1.0000
  S   S189      1.0  0.65006  0.02142  0.95993  1.0000
  H   H1073     1.0  0.55482  0.42545  0.75436  1.0000
  C   C637      1.0  0.84523  0.22866  0.98034  1.0000
  H   H1074     1.0  0.59228  0.30439  0.87624  1.0000
  C   C638      1.0  0.79801  0.11322  0.00213  1.0000
  C   C639      1.0  0.90794  0.21650  0.97524  1.0000
  C   C640      1.0  0.89574  0.14274  0.98691  1.0000
  H   H1075     1.0  0.91321  0.41654  0.68300  1.0000
  H   H1076     1.0  0.52720  0.46969  0.92953  1.0000
  H   H1077     1.0  0.55936  0.12701  0.83034  1.0000
  H   H1078     1.0  0.62046  0.02251  0.88754  1.0000
  H   H1079     1.0  0.59423  0.34735  0.88438  1.0000
  H   H1080     1.0  0.74759  0.33650  0.86572  1.0000
  H   H1081     1.0  0.60128  0.31247  0.90089  1.0000
  H   H1082     1.0  0.82945  0.15654  0.93789  1.0000
  N   N47       1.0  0.67282  0.32614  0.89595  1.0000
  C   C641      1.0  0.70881  0.31912  0.88706  1.0000
  C   C642      1.0  0.66768  0.30093  0.91229  1.0000
  C   C643      1.0  0.67301  0.36166  0.90393  1.0000
  C   C644      1.0  0.64585  0.32265  0.87999  1.0000
  C   C645      1.0  0.72281  0.34600  0.87260  1.0000
  C   C646      1.0  0.64383  0.37139  0.91872  1.0000
  C   C647      1.0  0.60649  0.32196  0.88600  1.0000
  H   H1083     1.0  0.72918  0.31627  0.89863  1.0000
  H   H1084     1.0  0.70906  0.29480  0.87893  1.0000
  H   H1085     1.0  0.66107  0.24754  0.91909  1.0000
  H   H1086     1.0  0.68943  0.30300  0.92309  1.0000
  H   H1087     1.0  0.69842  0.36661  0.91149  1.0000
  H   H1088     1.0  0.67152  0.38051  0.89184  1.0000
  H   H1089     1.0  0.64851  0.34353  0.86920  1.0000
  H   H1090     1.0  0.65107  0.29969  0.87107  1.0000
  H   H1091     1.0  0.70409  0.35120  0.86065  1.0000
  H   H1092     1.0  0.72930  0.37002  0.87999  1.0000
  H   H1093     1.0  0.66890  0.39512  0.74315  1.0000
  H   H1094     1.0  0.57465  0.01427  0.88895  1.0000
  H   H1095     1.0  0.99068  0.07936  0.75952  1.0000
  C   C648      1.0  0.64833  0.01741  0.84054  1.0000
  H   H1096     1.0  0.57598  0.33941  0.71939  1.0000
  H   H1097     1.0  0.88849  0.12895  0.97351  1.0000
  C   C649      1.0  0.53141  0.02955  0.99435  1.0000
  Fe  Fe95      1.0  0.89279  0.23087  0.67821  1.0000
  H   H1098     1.0  0.67001  0.12257  0.85316  1.0000
  H   H1099     1.0  0.56727  0.43938  0.94936  1.0000
  H   H1100     1.0  0.59636  0.03540  0.83259  1.0000
  H   H1101     1.0  0.53282  0.40478  0.93025  1.0000
  C   C650      1.0  0.53127  0.50440  0.00225  1.0000
  C   C651      1.0  0.51210  0.41869  0.92211  1.0000
  H   H1102     1.0  0.68281  0.08368  0.84102  1.0000
  C   C652      1.0  0.50343  0.45349  0.93107  1.0000
  H   H1103     1.0  0.55838  0.50142  0.99749  1.0000
  Fe  Fe96      1.0  0.63228  0.01644  0.92885  1.0000
  H   H1104     1.0  0.79239  0.24005  0.99151  1.0000
  H   H1105     1.0  0.87899  0.18421  0.00501  1.0000
  H   H1106     1.0  0.50397  0.31078  0.75204  1.0000
  H   H1107     1.0  0.62362  0.48770  0.83365  1.0000
  S   S190      1.0  0.94058  0.19715  0.67570  1.0000
  H   H1108     1.0  0.67407  0.02366  0.83362  1.0000
  C   C653      1.0  0.51520  0.39425  0.74124  1.0000
  C   C654      1.0  0.73963  0.13746  0.00567  1.0000
  H   H1109     1.0  0.81697  0.21213  0.00673  1.0000
  H   H1110     1.0  0.58005  0.50451  0.83844  1.0000
  C   C655      1.0  0.50118  0.36168  0.74055  1.0000
  H   H1111     1.0  0.82488  0.11042  0.00711  1.0000
  H   H1112     1.0  0.65276  0.00944  0.85575  1.0000
  H   H1113     1.0  0.93615  0.37914  0.67464  1.0000
  S   S191      1.0  0.78444  0.68633  0.01193  1.0000
  S   S192      1.0  0.65995  0.56166  0.31779  1.0000
  Fe  Fe97      1.0  0.58450  0.56653  0.27868  1.0000
  S   S193      1.0  0.62992  0.60253  0.27886  1.0000
  S   S194      1.0  0.53556  0.56801  0.25910  1.0000
  Fe  Fe98      1.0  0.66423  0.55647  0.28481  1.0000
  S   S195      1.0  0.71843  0.55433  0.26955  1.0000
  Fe  Fe99      1.0  0.62244  0.60471  0.31147  1.0000
  H   H1114     1.0  0.84262  0.53628  0.25685  1.0000
  S   S196      1.0  0.57512  0.57118  0.31089  1.0000
  Fe  Fe100     1.0  0.83015  0.92902  0.20714  1.0000
  S   S197      1.0  0.86404  0.97522  0.20536  1.0000
  S   S198      1.0  0.78005  0.92530  0.22578  1.0000
  Fe  Fe101     1.0  0.87552  0.89080  0.17637  1.0000
  S   S199      1.0  0.91142  0.93520  0.17239  1.0000
  S   S200      1.0  0.89479  0.84303  0.16104  1.0000
  Fe  Fe102     1.0  0.90996  0.93826  0.20521  1.0000
  S   S201      1.0  0.96184  0.94464  0.22149  1.0000
  Fe  Fe103     1.0  0.86231  0.96743  0.17281  1.0000
  H   H1115     1.0  0.73957  0.54270  0.05755  1.0000
  S   S202      1.0  0.87618  0.89256  0.20922  1.0000
  S   S203      1.0  0.82628  0.92245  0.17457  1.0000
  Fe  Fe104     1.0  0.83049  0.68550  0.03323  1.0000
  S   S204      1.0  0.87318  0.64667  0.03798  1.0000
  H   H1116     1.0  0.77185  0.92530  0.12301  1.0000
  Fe  Fe105     1.0  0.85561  0.72917  0.06783  1.0000
  S   S205      1.0  0.90012  0.69341  0.07506  1.0000
  S   S206      1.0  0.83450  0.77504  0.08438  1.0000
  Fe  Fe106     1.0  0.90894  0.69178  0.04224  1.0000
  S   S207      1.0  0.96452  0.69194  0.02877  1.0000
  Fe  Fe107     1.0  0.86122  0.65141  0.07022  1.0000
  S   S208      1.0  0.84103  0.60981  0.09073  1.0000
  S   S209      1.0  0.86673  0.73024  0.03547  1.0000
  S   S210      1.0  0.81632  0.68759  0.06495  1.0000
  H   H1117     1.0  0.59385  0.71418  0.30141  1.0000
  H   H1118     1.0  0.88914  0.53030  0.25580  1.0000
  H   H1119     1.0  0.81025  0.98977  0.23731  1.0000
  C   C656      1.0  0.51770  0.69213  0.31672  1.0000
  H   H1120     1.0  0.63911  0.88634  0.30575  1.0000
  C   C657      1.0  0.87747  0.82456  0.13975  1.0000
  C   C658      1.0  0.84429  0.83354  0.13253  1.0000
  C   C659      1.0  0.83142  0.81784  0.11564  1.0000
  C   C660      1.0  0.85168  0.79333  0.10574  1.0000
  C   C661      1.0  0.88481  0.78427  0.11301  1.0000
  C   C662      1.0  0.89752  0.79970  0.13002  1.0000
  H   H1121     1.0  0.82840  0.85226  0.14008  1.0000
  H   H1122     1.0  0.80562  0.82477  0.11016  1.0000
  H   H1123     1.0  0.90073  0.76564  0.10541  1.0000
  H   H1124     1.0  0.92318  0.79253  0.13554  1.0000
  C   C663      1.0  0.89789  0.53819  0.13379  1.0000
  C   C664      1.0  0.91746  0.56050  0.12196  1.0000
  C   C665      1.0  0.90060  0.58257  0.10869  1.0000
  C   C666      1.0  0.86386  0.58240  0.10701  1.0000
  C   C667      1.0  0.84425  0.56005  0.11881  1.0000
  C   C668      1.0  0.86111  0.53819  0.13221  1.0000
  H   H1125     1.0  0.94594  0.56063  0.12303  1.0000
  H   H1126     1.0  0.91605  0.59957  0.09972  1.0000
  H   H1127     1.0  0.81579  0.55974  0.11767  1.0000
  C   C669      1.0  0.70325  0.94955  0.31426  1.0000
  H   H1128     1.0  0.73822  0.94057  0.33953  1.0000
  H   H1129     1.0  0.53082  0.59142  0.16382  1.0000
  H   H1130     1.0  0.70002  0.97038  0.30335  1.0000
  C   C670      1.0  0.98601  0.86785  0.31657  1.0000
  C   C671      1.0  0.98682  0.81061  0.20090  1.0000
  H   H1131     1.0  0.80378  0.92272  0.09069  1.0000
  H   H1132     1.0  0.74557  0.94436  0.28462  1.0000
  H   H1133     1.0  0.62601  0.90647  0.28377  1.0000
  H   H1134     1.0  0.53074  0.62130  0.28990  1.0000
  C   C672      1.0  0.51662  0.60362  0.24709  1.0000
  C   C673      1.0  0.71398  0.98644  0.25721  1.0000
  C   C674      1.0  0.88834  0.98998  0.09256  1.0000
  H   H1135     1.0  0.81912  0.89448  0.10906  1.0000
  C   C675      1.0  0.53625  0.63247  0.24275  1.0000
  H   H1136     1.0  0.68615  0.61879  0.06555  1.0000
  H   H1137     1.0  0.56382  0.63335  0.24672  1.0000
  H   H1138     1.0  0.63515  0.93226  0.30412  1.0000
  H   H1139     1.0  0.74063  0.88618  0.32441  1.0000
  C   C676      1.0  0.72780  0.95968  0.24587  1.0000
  C   C677      1.0  0.76271  0.96052  0.23872  1.0000
  H   H1140     1.0  0.68708  0.98567  0.26255  1.0000
  H   H1141     1.0  0.93295  0.83305  0.20233  1.0000
  H   H1142     1.0  0.72610  0.63166  0.07621  1.0000
  H   H1143     1.0  0.71146  0.93817  0.24263  1.0000
  H   H1144     1.0  0.84571  0.52112  0.14117  1.0000
  H   H1145     1.0  0.78085  0.55610  0.24571  1.0000
  H   H1146     1.0  0.76667  0.58462  0.08698  1.0000
  H   H1147     1.0  0.73858  0.89199  0.26571  1.0000
  H   H1148     1.0  0.93682  0.87859  0.23439  1.0000
  C   C678      1.0  0.98677  0.94501  0.32054  1.0000
  H   H1149     1.0  0.78279  0.89570  0.27363  1.0000
  H   H1150     1.0  0.96715  0.83115  0.25124  1.0000
  S   S211      1.0  0.61895  0.52001  0.28249  1.0000
  C   C679      1.0  0.91730  0.92742  0.11862  1.0000
  C   C680      1.0  0.94622  0.80800  0.20254  1.0000
  H   H1151     1.0  0.53583  0.68221  0.22965  1.0000
  H   H1152     1.0  0.76754  0.92224  0.30349  1.0000
  H   H1153     1.0  0.72192  0.98288  0.33708  1.0000
  C   C681      1.0  0.73886  0.52291  0.25457  1.0000
  H   H1154     1.0  0.71143  0.86263  0.30977  1.0000
  H   H1155     1.0  0.99177  0.81433  0.13385  1.0000
  H   H1156     1.0  0.54992  0.68234  0.26981  1.0000
  H   H1157     1.0  0.68667  0.88608  0.28142  1.0000
  C   C682      1.0  0.98401  0.72504  0.01483  1.0000
  H   H1158     1.0  0.97929  0.97146  0.31680  1.0000
  C   C683      1.0  0.87385  0.87707  0.08647  1.0000
  H   H1159     1.0  0.89777  0.92471  0.08014  1.0000
  H   H1160     1.0  0.66255  0.60534  0.03627  1.0000
  H   H1161     1.0  0.72309  0.57656  0.09619  1.0000
  H   H1162     1.0  0.75336  0.54242  0.09038  1.0000
  H   H1163     1.0  0.70022  0.55977  0.06679  1.0000
  H   H1164     1.0  0.67039  0.56021  0.03917  1.0000
  H   H1165     1.0  0.73154  0.56715  0.02571  1.0000
  C   C684      1.0  0.64374  0.90896  0.29652  1.0000
  H   H1166     1.0  0.82366  0.58693  0.04225  1.0000
  H   H1167     1.0  0.96146  0.93400  0.32581  1.0000
  H   H1168     1.0  0.92864  0.93651  0.10472  1.0000
  C   C685      1.0  0.74515  0.92035  0.29314  1.0000
  H   H1169     1.0  0.50428  0.62638  0.31186  1.0000
  H   H1170     1.0  0.72421  0.61071  0.02217  1.0000
  H   H1171     1.0  0.97518  0.87815  0.33040  1.0000
  C   C686      1.0  0.52683  0.72538  0.32712  1.0000
  H   H1172     1.0  0.73994  0.66905  0.04756  1.0000
  N   N48       1.0  0.71048  0.91650  0.30401  1.0000
  S   S212      1.0  0.92095  0.50994  0.14951  1.0000
  C   C687      1.0  0.71305  0.65907  0.05019  1.0000
  C   C688      1.0  0.95778  0.95706  0.27865  1.0000
  H   H1173     1.0  0.67799  0.94947  0.32242  1.0000
  H   H1174     1.0  0.55163  0.73669  0.32175  1.0000
  H   H1175     1.0  0.88638  0.86920  0.10035  1.0000
  H   H1176     1.0  0.95863  0.86700  0.17908  1.0000
  H   H1177     1.0  0.78759  0.96537  0.11503  1.0000
  H   H1178     1.0  0.84755  0.86516  0.08525  1.0000
  H   H1179     1.0  0.50840  0.92120  0.01391  1.0000
  C   C689      1.0  0.55167  0.68837  0.28559  1.0000
  C   C690      1.0  0.68767  0.88544  0.33532  1.0000
  H   H1180     1.0  0.92851  0.94377  0.13012  1.0000
  H   H1181     1.0  0.53734  0.67285  0.32161  1.0000
  H   H1182     1.0  0.75611  0.96902  0.32111  1.0000
  C   C691      1.0  0.68214  0.91046  0.28908  1.0000
  C   C692      1.0  0.52032  0.66009  0.23302  1.0000
  H   H1183     1.0  0.93497  0.79167  0.19108  1.0000
  H   H1184     1.0  0.51545  0.56384  0.20484  1.0000
  H   H1185     1.0  0.93937  0.79605  0.21676  1.0000
  H   H1186     1.0  0.92741  0.90148  0.12161  1.0000
  H   H1187     1.0  0.79947  0.55848  0.05728  1.0000
  H   H1188     1.0  0.93498  0.95128  0.26912  1.0000
  H   H1189     1.0  0.00085  0.78718  0.16513  1.0000
  H   H1190     1.0  0.56509  0.66569  0.29178  1.0000
  Fe  Fe108     1.0  0.61274  0.52770  0.31504  1.0000
  S   S213      1.0  0.61121  0.65508  0.32644  1.0000
  C   C693      1.0  0.98135  0.85422  0.24819  1.0000
  H   H1191     1.0  0.51282  0.60886  0.20146  1.0000
  H   H1192     1.0  0.97824  0.96809  0.26893  1.0000
  H   H1193     1.0  0.55522  0.92376  0.01521  1.0000
  H   H1194     1.0  0.77490  0.62521  0.03826  1.0000
  C   C694      1.0  0.51142  0.57956  0.17398  1.0000
  C   C695      1.0  0.87647  0.92827  0.12021  1.0000
  C   C696      1.0  0.97048  0.92396  0.28849  1.0000
  N   N49       1.0  0.73310  0.59671  0.05230  1.0000
  C   C697      1.0  0.71843  0.58962  0.03233  1.0000
  C   C698      1.0  0.77149  0.60592  0.04995  1.0000
  C   C699      1.0  0.71385  0.62568  0.06192  1.0000
  C   C700      1.0  0.72868  0.56567  0.06483  1.0000
  H   H1195     1.0  0.69922  0.65660  0.03606  1.0000
  C   C701      1.0  0.79691  0.57656  0.04495  1.0000
  H   H1196     1.0  0.96103  0.81093  0.16488  1.0000
  C   C702      1.0  0.96412  0.88104  0.23854  1.0000
  C   C703      1.0  0.57829  0.71733  0.28783  1.0000
  C   C704      1.0  0.86491  0.52258  0.26381  1.0000
  C   C705      1.0  0.71378  0.88684  0.31786  1.0000
  C   C706      1.0  0.52335  0.58520  0.19521  1.0000
  C   C707      1.0  0.75533  0.89166  0.27893  1.0000
  H   H1197     1.0  0.86604  0.53130  0.27908  1.0000
  H   H1198     1.0  0.98338  0.87431  0.20036  1.0000
  H   H1199     1.0  0.55249  0.58791  0.19561  1.0000
  C   C708      1.0  0.50444  0.62851  0.29573  1.0000
  H   H1200     1.0  0.86935  0.94766  0.13130  1.0000
  H   H1201     1.0  0.75448  0.86645  0.28601  1.0000
  H   H1202     1.0  0.96440  0.86183  0.30635  1.0000
  C   C709      1.0  0.99009  0.81347  0.16548  1.0000
  H   H1203     1.0  0.94858  0.97610  0.28937  1.0000
  H   H1204     1.0  0.86870  0.90379  0.12703  1.0000
  H   H1205     1.0  0.98799  0.91268  0.16764  1.0000
  C   C710      1.0  0.98597  0.86639  0.18490  1.0000
  H   H1206     1.0  0.68297  0.93043  0.27761  1.0000
  C   C711      1.0  0.74370  0.56776  0.08573  1.0000
  C   C712      1.0  0.73179  0.96067  0.32879  1.0000
  C   C713      1.0  0.81884  0.92156  0.10461  1.0000
  C   C714      1.0  0.67836  0.58337  0.03120  1.0000
  H   H1207     1.0  0.52173  0.64758  0.17372  1.0000
  H   H1208     1.0  0.97759  0.90628  0.27654  1.0000
  H   H1209     1.0  0.89024  0.86662  0.07438  1.0000
  N   N50       1.0  0.85602  0.93435  0.10165  1.0000
  C   C715      1.0  0.87118  0.91581  0.08426  1.0000
  N   N51       1.0  0.83618  0.69230  0.13870  1.0000
  C   C716      1.0  0.86511  0.69213  0.12345  1.0000
  C   C717      1.0  0.80265  0.68051  0.12918  1.0000
  C   C718      1.0  0.84485  0.66892  0.15543  1.0000
  C   C719      1.0  0.83222  0.72766  0.14652  1.0000
  C   C720      1.0  0.90289  0.69830  0.13090  1.0000
  C   C721      1.0  0.78449  0.70628  0.11552  1.0000
  C   C722      1.0  0.85244  0.63187  0.14979  1.0000
  C   C723      1.0  0.80289  0.73300  0.16202  1.0000
  H   H1210     1.0  0.86576  0.66782  0.11533  1.0000
  H   H1211     1.0  0.85987  0.71177  0.11214  1.0000
  H   H1212     1.0  0.78274  0.67232  0.14020  1.0000
  H   H1213     1.0  0.80778  0.65747  0.12027  1.0000
  H   H1214     1.0  0.86777  0.67834  0.16384  1.0000
  H   H1215     1.0  0.82268  0.66828  0.16618  1.0000
  H   H1216     1.0  0.85698  0.73593  0.15360  1.0000
  H   H1217     1.0  0.82854  0.74652  0.13459  1.0000
  H   H1218     1.0  0.91200  0.67815  0.14099  1.0000
  H   H1219     1.0  0.92135  0.69798  0.11824  1.0000
  H   H1220     1.0  0.90564  0.72331  0.13786  1.0000
  H   H1221     1.0  0.77248  0.72754  0.12377  1.0000
  H   H1222     1.0  0.80293  0.71645  0.10441  1.0000
  H   H1223     1.0  0.76285  0.69363  0.10758  1.0000
  H   H1224     1.0  0.85841  0.61701  0.16319  1.0000
  H   H1225     1.0  0.87570  0.62932  0.14001  1.0000
  H   H1226     1.0  0.82927  0.61998  0.14291  1.0000
  H   H1227     1.0  0.81356  0.72958  0.17698  1.0000
  H   H1228     1.0  0.78021  0.71590  0.16030  1.0000
  H   H1229     1.0  0.79197  0.75904  0.16062  1.0000
  H   H1230     1.0  0.51520  0.55204  0.17141  1.0000
  H   H1231     1.0  0.78175  0.61850  0.06319  1.0000
  H   H1232     1.0  0.85500  0.92111  0.07104  1.0000
  H   H1233     1.0  0.81211  0.51336  0.22523  1.0000
  H   H1234     1.0  0.94679  0.91285  0.29567  1.0000
  H   H1235     1.0  0.69845  0.67849  0.05874  1.0000
  C   C724      1.0  0.78340  0.98872  0.24269  1.0000
  C   C725      1.0  0.98229  0.91078  0.23421  1.0000
  H   H1236     1.0  0.78910  0.56313  0.03152  1.0000
  C   C726      1.0  0.77034  0.53088  0.24456  1.0000
  H   H1237     1.0  0.81006  0.94238  0.13423  1.0000
  H   H1238     1.0  0.59697  0.71679  0.27526  1.0000
  H   H1239     1.0  0.99534  0.82148  0.21497  1.0000
  C   C727      1.0  0.79622  0.93999  0.12015  1.0000
  H   H1240     1.0  0.90277  0.97952  0.07984  1.0000
  C   C728      1.0  0.85351  0.97158  0.09698  1.0000
  S   S214      1.0  0.60292  0.96858  0.33777  1.0000
  N   N52       1.0  0.51558  0.69300  0.29469  1.0000
  H   H1241     1.0  0.56637  0.74283  0.28742  1.0000
  H   H1242     1.0  0.67134  0.57941  0.01563  1.0000
  H   H1243     1.0  0.83573  0.97596  0.08431  1.0000
  H   H1244     1.0  0.93801  0.75718  0.01431  1.0000
  H   H1245     1.0  0.66358  0.90096  0.33385  1.0000
  H   H1246     1.0  0.98581  0.85503  0.14422  1.0000
  H   H1247     1.0  0.67876  0.85901  0.33751  1.0000
  H   H1248     1.0  0.51831  0.72672  0.25763  1.0000
  H   H1249     1.0  0.50494  0.74409  0.32607  1.0000
  H   H1250     1.0  0.84151  0.98570  0.10937  1.0000
  H   H1251     1.0  0.51120  0.74794  0.29284  1.0000
  H   H1252     1.0  0.99909  0.84342  0.32017  1.0000
  H   H1253     1.0  0.90549  0.99081  0.10558  1.0000
  H   H1254     1.0  0.99775  0.78437  0.20071  1.0000
  S   S215      1.0  0.84162  0.00637  0.15096  1.0000
  C   C729      1.0  0.96511  0.75412  0.00953  1.0000
  C   C730      1.0  0.00020  0.83071  0.14608  1.0000
  N   N53       1.0  0.00065  0.92697  0.30269  1.0000
  H   H1255     1.0  0.54577  0.56646  0.36864  1.0000
  C   C731      1.0  0.50726  0.77411  0.48893  1.0000
  Fe  Fe109     1.0  0.61063  0.79695  0.44737  1.0000
  S   S216      1.0  0.65154  0.75724  0.45328  1.0000
  S   S217      1.0  0.55604  0.79620  0.46185  1.0000
  Fe  Fe110     1.0  0.66080  0.83746  0.42057  1.0000
  S   S218      1.0  0.70482  0.79963  0.42491  1.0000
  S   S219      1.0  0.67869  0.88594  0.40544  1.0000
  Fe  Fe111     1.0  0.66319  0.75998  0.42098  1.0000
  S   S220      1.0  0.67717  0.71089  0.40511  1.0000
  Fe  Fe112     1.0  0.68921  0.80056  0.45650  1.0000
  S   S221      1.0  0.72722  0.80009  0.48210  1.0000
  S   S222      1.0  0.61977  0.79765  0.41457  1.0000
  S   S223      1.0  0.64755  0.84036  0.45257  1.0000
  S   S224      1.0  0.93349  0.61200  0.65246  1.0000
  H   H1256     1.0  0.90323  0.97260  0.62244  1.0000
  Fe  Fe113     1.0  0.84221  0.93115  0.53871  1.0000
  S   S225      1.0  0.88571  0.89280  0.54114  1.0000
  S   S226      1.0  0.80320  0.93191  0.51362  1.0000
  Fe  Fe114     1.0  0.86546  0.96811  0.57620  1.0000
  S   S227      1.0  0.91090  0.93198  0.58090  1.0000
  H   H1257     1.0  0.55833  0.52020  0.38513  1.0000
  Fe  Fe115     1.0  0.92001  0.93737  0.54827  1.0000
  H   H1258     1.0  0.85968  0.97756  0.50104  1.0000
  Fe  Fe116     1.0  0.87263  0.89107  0.57319  1.0000
  S   S228      1.0  0.85815  0.84225  0.58894  1.0000
  S   S229      1.0  0.87701  0.97617  0.54412  1.0000
  S   S230      1.0  0.82667  0.92671  0.57010  1.0000
  H   H1259     1.0  0.54393  0.64209  0.59320  1.0000
  C   C732      1.0  0.63180  0.67155  0.34745  1.0000
  H   H1260     1.0  0.94286  0.99789  0.51498  1.0000
  H   H1261     1.0  0.63157  0.98674  0.40172  1.0000
  C   C733      1.0  0.54687  0.58331  0.57049  1.0000
  C   C734      1.0  0.91072  0.79670  0.64315  1.0000
  C   C735      1.0  0.87675  0.78702  0.63782  1.0000
  C   C736      1.0  0.86070  0.80177  0.62137  1.0000
  C   C737      1.0  0.87834  0.82642  0.61024  1.0000
  C   C738      1.0  0.91204  0.83652  0.61579  1.0000
  C   C739      1.0  0.92810  0.82178  0.63224  1.0000
  H   H1262     1.0  0.86302  0.76799  0.64626  1.0000
  H   H1263     1.0  0.83460  0.79386  0.61711  1.0000
  H   H1264     1.0  0.92604  0.85505  0.60710  1.0000
  H   H1265     1.0  0.95445  0.82930  0.63628  1.0000
  C   C740      1.0  0.91121  0.58267  0.63746  1.0000
  C   C741      1.0  0.87453  0.57933  0.63781  1.0000
  C   C742      1.0  0.85812  0.55589  0.62544  1.0000
  C   C743      1.0  0.87808  0.53568  0.61253  1.0000
  C   C744      1.0  0.91480  0.53901  0.61219  1.0000
  C   C745      1.0  0.93123  0.56236  0.62461  1.0000
  H   H1266     1.0  0.85876  0.59476  0.64758  1.0000
  H   H1267     1.0  0.82969  0.55343  0.62583  1.0000
  H   H1268     1.0  0.84484  0.88989  0.66521  1.0000
  H   H1269     1.0  0.95961  0.56492  0.62410  1.0000
  C   C746      1.0  0.54184  0.77016  0.48162  1.0000
  C   C747      1.0  0.56407  0.74618  0.49039  1.0000
  C   C748      1.0  0.97410  0.50988  0.49698  1.0000
  H   H1270     1.0  0.59052  0.74243  0.48473  1.0000
  H   H1271     1.0  0.56421  0.64121  0.36350  1.0000
  C   C749      1.0  0.74908  0.83681  0.49019  1.0000
  C   C750      1.0  0.74342  0.86832  0.48139  1.0000
  C   C751      1.0  0.76021  0.89720  0.48874  1.0000
  C   C752      1.0  0.78274  0.89487  0.50492  1.0000
  C   C753      1.0  0.78845  0.86335  0.51369  1.0000
  C   C754      1.0  0.77161  0.83448  0.50637  1.0000
  H   H1272     1.0  0.72603  0.87047  0.46898  1.0000
  H   H1273     1.0  0.75561  0.92149  0.48187  1.0000
  H   H1274     1.0  0.80571  0.86123  0.52616  1.0000
  H   H1275     1.0  0.77604  0.81022  0.51329  1.0000
  C   C755      1.0  0.88928  0.97544  0.47327  1.0000
  C   C756      1.0  0.66142  0.65616  0.35583  1.0000
  C   C757      1.0  0.67539  0.66892  0.37331  1.0000
  C   C758      1.0  0.66014  0.69732  0.38246  1.0000
  C   C759      1.0  0.63103  0.71314  0.37381  1.0000
  C   C760      1.0  0.61700  0.70031  0.35639  1.0000
  H   H1276     1.0  0.96879  0.54347  0.47218  1.0000
  H   H1277     1.0  0.69808  0.65669  0.37985  1.0000
  H   H1278     1.0  0.61912  0.73502  0.38070  1.0000
  C   C761      1.0  0.57611  0.63638  0.40755  1.0000
  C   C762      1.0  0.62394  0.94638  0.35689  1.0000
  C   C763      1.0  0.60761  0.91765  0.36483  1.0000
  C   C764      1.0  0.62397  0.89876  0.37974  1.0000
  C   C765      1.0  0.65682  0.90856  0.38680  1.0000
  C   C766      1.0  0.67319  0.93728  0.37882  1.0000
  C   C767      1.0  0.65689  0.95604  0.36386  1.0000
  H   H1279     1.0  0.56819  0.56512  0.41104  1.0000
  H   H1280     1.0  0.61120  0.87665  0.38578  1.0000
  H   H1281     1.0  0.69873  0.94481  0.38417  1.0000
  H   H1282     1.0  0.56822  0.60225  0.56845  1.0000
  N   N54       1.0  0.87881  0.92641  0.65089  1.0000
  H   H1283     1.0  0.50924  0.66893  0.58378  1.0000
  H   H1284     1.0  0.56960  0.70887  0.51332  1.0000
  S   S231      1.0  0.97523  0.93950  0.53469  1.0000
  C   C768      1.0  0.55207  0.72707  0.50654  1.0000
  H   H1285     1.0  0.94469  0.88389  0.48191  1.0000
  C   C769      1.0  0.91238  0.92520  0.63896  1.0000
  H   H1286     1.0  0.58219  0.90988  0.35940  1.0000
  N   N55       1.0  0.91302  0.70428  0.60421  1.0000
  C   C770      1.0  0.92014  0.73944  0.59646  1.0000
  C   C771      1.0  0.93293  0.70066  0.62313  1.0000
  C   C772      1.0  0.87397  0.70174  0.60839  1.0000
  C   C773      1.0  0.92448  0.67901  0.58891  1.0000
  C   C774      1.0  0.89793  0.75113  0.57883  1.0000
  H   H1287     1.0  0.57911  0.55385  0.59062  1.0000
  C   C775      1.0  0.86074  0.66802  0.61692  1.0000
  C   C776      1.0  0.93344  0.64279  0.59604  1.0000
  H   H1288     1.0  0.91623  0.75856  0.60809  1.0000
  H   H1289     1.0  0.94821  0.74203  0.59183  1.0000
  H   H1290     1.0  0.92939  0.67559  0.62998  1.0000
  H   H1291     1.0  0.92228  0.71874  0.63419  1.0000
  H   H1292     1.0  0.86547  0.72214  0.61860  1.0000
  H   H1293     1.0  0.85837  0.70556  0.59487  1.0000
  H   H1294     1.0  0.90401  0.67694  0.57738  1.0000
  H   H1295     1.0  0.94871  0.68803  0.58126  1.0000
  H   H1296     1.0  0.87038  0.75732  0.58325  1.0000
  H   H1297     1.0  0.90912  0.77498  0.57290  1.0000
  H   H1298     1.0  0.89811  0.73238  0.56687  1.0000
  H   H1299     1.0  0.93007  0.94131  0.49689  1.0000
  C   C777      1.0  0.51749  0.73114  0.51387  1.0000
  H   H1300     1.0  0.93047  0.52374  0.60228  1.0000
  H   H1301     1.0  0.87430  0.66045  0.63053  1.0000
  H   H1302     1.0  0.86248  0.64747  0.60599  1.0000
  H   H1303     1.0  0.83232  0.67080  0.62074  1.0000
  H   H1304     1.0  0.67339  0.63433  0.34893  1.0000
  H   H1305     1.0  0.92052  0.63501  0.60977  1.0000
  H   H1306     1.0  0.60558  0.51380  0.38412  1.0000
  H   H1307     1.0  0.93487  0.91684  0.64815  1.0000
  H   H1308     1.0  0.91149  0.90561  0.62741  1.0000
  H   H1309     1.0  0.93827  0.97475  0.64036  1.0000
  S   S232      1.0  0.93274  0.77772  0.66301  1.0000
  C   C778      1.0  0.65351  0.56978  0.37421  1.0000
  H   H1310     1.0  0.95825  0.97475  0.45911  1.0000
  C   C779      1.0  0.92238  0.93144  0.45586  1.0000
  C   C780      1.0  0.95922  0.94673  0.45919  1.0000
  H   H1311     1.0  0.86046  0.91153  0.61143  1.0000
  N   N56       1.0  0.89564  0.93784  0.47182  1.0000
  H   H1312     1.0  0.59434  0.71259  0.34994  1.0000
  H   H1313     1.0  0.55221  0.64555  0.39985  1.0000
  H   H1314     1.0  0.91283  0.94199  0.44174  1.0000
  H   H1315     1.0  0.55262  0.56341  0.55945  1.0000
  C   C781      1.0  0.84743  0.93767  0.63900  1.0000
  C   C782      1.0  0.60243  0.61890  0.39354  1.0000
  C   C783      1.0  0.58937  0.55959  0.40017  1.0000
  H   H1316     1.0  0.53312  0.54875  0.59516  1.0000
  H   H1317     1.0  0.83197  0.97784  0.47958  1.0000
  H   H1318     1.0  0.81491  0.92529  0.44951  1.0000
  H   H1319     1.0  0.91259  0.98809  0.47968  1.0000
  C   C784      1.0  0.85731  0.98648  0.48576  1.0000
  H   H1320     1.0  0.82743  0.89032  0.62618  1.0000
  H   H1321     1.0  0.58896  0.65903  0.41380  1.0000
  S   S233      1.0  0.87203  0.69301  0.67094  1.0000
  H   H1322     1.0  0.60534  0.55450  0.36002  1.0000
  C   C785      1.0  0.86236  0.91915  0.46698  1.0000
  C   C786      1.0  0.51466  0.62648  0.55166  1.0000
  H   H1323     1.0  0.97160  0.93774  0.47290  1.0000
  H   H1324     1.0  0.94375  0.95273  0.61763  1.0000
  H   H1325     1.0  0.60989  0.63769  0.38225  1.0000
  C   C787      1.0  0.96881  0.99362  0.50875  1.0000
  H   H1326     1.0  0.82346  0.93931  0.64848  1.0000
  Fe  Fe117     1.0  0.91339  0.65186  0.67401  1.0000
  N   N57       1.0  0.64729  0.81524  0.52314  1.0000
  C   C788      1.0  0.67121  0.84543  0.52489  1.0000
  C   C789      1.0  0.62996  0.81743  0.50341  1.0000
  C   C790      1.0  0.66984  0.78353  0.52465  1.0000
  C   C791      1.0  0.62059  0.81676  0.53955  1.0000
  C   C792      1.0  0.69526  0.84606  0.54301  1.0000
  C   C793      1.0  0.60749  0.84942  0.49950  1.0000
  C   C794      1.0  0.65805  0.75224  0.51307  1.0000
  C   C795      1.0  0.59024  0.79117  0.53875  1.0000
  H   H1327     1.0  0.68869  0.84744  0.51180  1.0000
  H   H1328     1.0  0.65576  0.86942  0.52530  1.0000
  H   H1329     1.0  0.61238  0.79573  0.50081  1.0000
  H   H1330     1.0  0.65045  0.81583  0.49173  1.0000
  H   H1331     1.0  0.69716  0.78827  0.51923  1.0000
  H   H1332     1.0  0.67312  0.77563  0.54015  1.0000
  H   H1333     1.0  0.63363  0.81280  0.55388  1.0000
  H   H1334     1.0  0.60832  0.84235  0.54040  1.0000
  H   H1335     1.0  0.71368  0.82419  0.54360  1.0000
  H   H1336     1.0  0.71199  0.86899  0.54218  1.0000
  H   H1337     1.0  0.67982  0.84767  0.55677  1.0000
  H   H1338     1.0  0.61431  0.55945  0.40869  1.0000
  H   H1339     1.0  0.58661  0.85331  0.51066  1.0000
  H   H1340     1.0  0.62405  0.87227  0.49799  1.0000
  H   H1341     1.0  0.67481  0.73025  0.51724  1.0000
  H   H1342     1.0  0.66217  0.75621  0.49716  1.0000
  H   H1343     1.0  0.63031  0.74523  0.51576  1.0000
  H   H1344     1.0  0.57390  0.79425  0.52548  1.0000
  H   H1345     1.0  0.57225  0.79547  0.55139  1.0000
  H   H1346     1.0  0.59992  0.76485  0.54002  1.0000
  H   H1347     1.0  0.66618  0.59252  0.38031  1.0000
  C   C796      1.0  0.98711  0.53118  0.48201  1.0000
  H   H1348     1.0  0.92573  0.90392  0.45313  1.0000
  H   H1349     1.0  0.99556  0.94940  0.35179  1.0000
  H   H1350     1.0  0.87069  0.87285  0.64580  1.0000
  H   H1351     1.0  0.62714  0.61475  0.40196  1.0000
  H   H1352     1.0  0.54990  0.59802  0.53153  1.0000
  H   H1353     1.0  0.96243  0.63920  0.59736  1.0000
  C   C797      1.0  0.54839  0.61842  0.36077  1.0000
  H   H1354     1.0  0.65571  0.54853  0.38471  1.0000
  H   H1355     1.0  0.81659  0.92791  0.61315  1.0000
  C   C798      1.0  0.63363  0.99978  0.41587  1.0000
  C   C799      1.0  0.92479  0.95849  0.62961  1.0000
  C   C800      1.0  0.61502  0.57694  0.36811  1.0000
  N   N58       1.0  0.59011  0.58643  0.38446  1.0000
  C   C801      1.0  0.55329  0.56736  0.59082  1.0000
  H   H1356     1.0  0.97890  0.73395  0.62036  1.0000
  C   C802      1.0  0.99023  0.96765  0.51612  1.0000
  N   N59       1.0  0.51100  0.59905  0.56692  1.0000
  H   H1357     1.0  0.85394  0.91472  0.43537  1.0000
  C   C803      1.0  0.83791  0.91520  0.62154  1.0000
  H   H1358     1.0  0.53046  0.72003  0.34292  1.0000
  H   H1359     1.0  0.92500  0.62439  0.58482  1.0000
  C   C804      1.0  0.84374  0.92971  0.44789  1.0000
  C   C805      1.0  0.55356  0.59011  0.37614  1.0000
  H   H1360     1.0  0.53423  0.64570  0.55619  1.0000
  C   C806      1.0  0.88291  0.94918  0.66840  1.0000
  H   H1361     1.0  0.56850  0.61982  0.41993  1.0000
  H   H1362     1.0  0.85078  0.96352  0.63306  1.0000
  H   H1363     1.0  0.98542  0.69263  0.60946  1.0000
  C   C807      1.0  0.87141  0.89102  0.65814  1.0000
  H   H1364     1.0  0.98563  0.69770  0.63544  1.0000
  C   C808      1.0  0.97304  0.70659  0.62172  1.0000
  H   H1365     1.0  0.86787  0.89165  0.46552  1.0000
  H   H1366     1.0  0.52049  0.62722  0.36107  1.0000
  H   H1367     1.0  0.59372  0.84647  0.48536  1.0000
  H   H1368     1.0  0.90086  0.87006  0.48932  1.0000
  H   H1369     1.0  0.66982  0.97781  0.35766  1.0000
  H   H1370     1.0  0.84631  0.95685  0.44438  1.0000
  H   H1371     1.0  0.55498  0.58680  0.60237  1.0000
  H   H1372     1.0  0.88729  0.92725  0.50252  1.0000
  H   H1373     1.0  0.84283  0.92010  0.47916  1.0000
  H   H1374     1.0  0.93245  0.88309  0.50687  1.0000
  H   H1375     1.0  0.97710  0.93915  0.44704  1.0000
  H   H1376     1.0  0.61600  0.59740  0.35692  1.0000
  H   H1377     1.0  0.66909  0.56248  0.36109  1.0000
  H   H1378     1.0  0.55493  0.60915  0.34592  1.0000
  H   H1379     1.0  0.53315  0.59313  0.38779  1.0000
  C   C809      1.0  0.90860  0.92525  0.49132  1.0000
  C   C810      1.0  0.92221  0.88841  0.49200  1.0000
  H   H1380     1.0  0.92450  0.87179  0.66609  1.0000
  H   H1381     1.0  0.50559  0.65172  0.60782  1.0000
  C   C811      1.0  0.51498  0.64613  0.59276  1.0000
  C   C812      1.0  0.58334  0.52308  0.39321  1.0000
  H   H1382     1.0  0.99359  0.56797  0.65958  1.0000
  C   C813      1.0  0.87450  0.98719  0.66549  1.0000
  H   H1383     1.0  0.53396  0.63768  0.52239  1.0000
  H   H1384     1.0  0.66092  0.99704  0.42151  1.0000
  C   C814      1.0  0.89811  0.87589  0.67279  1.0000
  C   C815      1.0  0.52655  0.61502  0.53111  1.0000
  H   H1385     1.0  0.88652  0.98735  0.45863  1.0000
  H   H1386     1.0  0.61568  0.98542  0.42570  1.0000
  H   H1387     1.0  0.84571  0.99164  0.66374  1.0000
  H   H1388     1.0  0.70117  0.89227  0.34908  1.0000
  H   H1389     1.0  0.88846  0.99874  0.65295  1.0000
  S   S234      1.0  0.84366  0.00573  0.59861  1.0000
  S   S235      1.0  0.50399  0.70736  0.53470  1.0000
  H   H1390     1.0  0.91020  0.94727  0.67429  1.0000
  H   H1391     1.0  0.50462  0.60291  0.52316  1.0000
  H   H1392     1.0  0.63882  0.99466  0.83276  1.0000
  H   H1393     1.0  0.63536  0.64089  0.82123  1.0000
  Fe  Fe118     1.0  0.86621  0.68853  0.70387  1.0000
  S   S236      1.0  0.90703  0.72742  0.71044  1.0000
  S   S237      1.0  0.81511  0.68581  0.72172  1.0000
  C   C816      1.0  0.71581  0.62977  0.98072  1.0000
  Fe  Fe119     1.0  0.94545  0.68381  0.71094  1.0000
  H   H1394     1.0  0.58964  0.80043  0.70414  1.0000
  H   H1395     1.0  0.98196  0.98823  0.96377  1.0000
  S   S238      1.0  0.90438  0.64426  0.70634  1.0000
  Fe  Fe120     1.0  0.57847  0.56018  0.96130  1.0000
  S   S239      1.0  0.62092  0.52033  0.96111  1.0000
  S   S240      1.0  0.53059  0.56509  0.98163  1.0000
  Fe  Fe121     1.0  0.60814  0.59423  0.92381  1.0000
  S   S241      1.0  0.65269  0.55648  0.92105  1.0000
  S   S242      1.0  0.58974  0.63269  0.90097  1.0000
  C   C817      1.0  0.56286  0.55760  0.87136  1.0000
  C   C818      1.0  0.76586  0.65222  0.99892  1.0000
  Fe  Fe122     1.0  0.65790  0.56323  0.95375  1.0000
  S   S243      1.0  0.71182  0.56304  0.96848  1.0000
  S   S244      1.0  0.56752  0.55413  0.92942  1.0000
  S   S245      1.0  0.61579  0.60358  0.95598  1.0000
  Fe  Fe123     1.0  0.69074  0.80745  0.78745  1.0000
  S   S246      1.0  0.64826  0.76904  0.79196  1.0000
  S   S247      1.0  0.73260  0.80791  0.76316  1.0000
  Fe  Fe124     1.0  0.66245  0.85168  0.82175  1.0000
  S   S248      1.0  0.61769  0.81623  0.82829  1.0000
  S   S249      1.0  0.67829  0.89998  0.83745  1.0000
  Fe  Fe125     1.0  0.65813  0.77450  0.82426  1.0000
  S   S250      1.0  0.67573  0.73294  0.84549  1.0000
  Fe  Fe126     1.0  0.61153  0.81416  0.79538  1.0000
  S   S251      1.0  0.55955  0.81404  0.77846  1.0000
  S   S252      1.0  0.70322  0.81037  0.81932  1.0000
  S   S253      1.0  0.65368  0.85225  0.78931  1.0000
  H   H1396     1.0  0.68998  0.63344  0.97438  1.0000
  H   H1397     1.0  0.53488  0.56609  0.87221  1.0000
  C   C819      1.0  0.73241  0.59816  0.97952  1.0000
  N   N60       1.0  0.88222  0.70162  0.77337  1.0000
  C   C820      1.0  0.99565  0.61944  0.74702  1.0000
  C   C821      1.0  0.65682  0.82496  0.70622  1.0000
  H   H1398     1.0  0.71933  0.68092  0.99127  1.0000
  C   C822      1.0  0.61428  0.66092  0.88610  1.0000
  C   C823      1.0  0.59601  0.68252  0.87322  1.0000
  C   C824      1.0  0.61430  0.70472  0.86066  1.0000
  C   C825      1.0  0.65117  0.70523  0.86070  1.0000
  C   C826      1.0  0.66947  0.68343  0.87347  1.0000
  C   C827      1.0  0.65116  0.66158  0.88624  1.0000
  H   H1399     1.0  0.56746  0.68215  0.87301  1.0000
  H   H1400     1.0  0.59988  0.72134  0.85093  1.0000
  H   H1401     1.0  0.69802  0.68367  0.87362  1.0000
  H   H1402     1.0  0.66556  0.64507  0.89604  1.0000
  C   C828      1.0  0.63639  0.94718  0.89444  1.0000
  C   C829      1.0  0.66683  0.95945  0.88533  1.0000
  C   C830      1.0  0.67917  0.94469  0.86787  1.0000
  C   C831      1.0  0.66109  0.91778  0.85924  1.0000
  C   C832      1.0  0.63034  0.90580  0.86821  1.0000
  C   C833      1.0  0.61829  0.92022  0.88585  1.0000
  H   H1403     1.0  0.63095  0.88815  0.74973  1.0000
  H   H1404     1.0  0.70299  0.95411  0.86103  1.0000
  H   H1405     1.0  0.61580  0.88558  0.86151  1.0000
  H   H1406     1.0  0.59456  0.91073  0.89273  1.0000
  H   H1407     1.0  0.97741  0.56914  0.71741  1.0000
  C   C834      1.0  0.55547  0.88056  0.76512  1.0000
  C   C835      1.0  0.54180  0.84789  0.76429  1.0000
  H   H1408     1.0  0.61379  0.89569  0.97031  1.0000
  H   H1409     1.0  0.57746  0.88574  0.77460  1.0000
  H   H1410     1.0  0.61520  0.60280  0.81328  1.0000
  H   H1411     1.0  0.96954  0.61552  0.74125  1.0000
  C   C836      1.0  0.79239  0.72015  0.73301  1.0000
  C   C837      1.0  0.80284  0.75367  0.73030  1.0000
  C   C838      1.0  0.78421  0.78010  0.73965  1.0000
  C   C839      1.0  0.75523  0.77342  0.75201  1.0000
  C   C840      1.0  0.74486  0.73990  0.75480  1.0000
  C   C841      1.0  0.76326  0.71347  0.74527  1.0000
  H   H1412     1.0  0.82507  0.75927  0.72087  1.0000
  H   H1413     1.0  0.79237  0.80595  0.73732  1.0000
  H   H1414     1.0  0.72258  0.73434  0.76420  1.0000
  H   H1415     1.0  0.75491  0.68765  0.74747  1.0000
  H   H1416     1.0  0.90039  0.67203  0.79801  1.0000
  H   H1417     1.0  0.53899  0.90252  0.94909  1.0000
  H   H1418     1.0  0.58058  0.92017  0.94279  1.0000
  H   H1419     1.0  0.65104  0.80948  0.69308  1.0000
  H   H1420     1.0  0.63889  0.58152  0.88015  1.0000
  C   C842      1.0  0.59464  0.81809  0.71642  1.0000
  C   C843      1.0  0.53261  0.92829  0.98535  1.0000
  H   H1421     1.0  0.64893  0.53963  0.82982  1.0000
  H   H1422     1.0  0.90251  0.62421  0.75063  1.0000
  H   H1423     1.0  0.93768  0.73376  0.75041  1.0000
  H   H1424     1.0  0.92348  0.72614  0.81610  1.0000
  C   C844      1.0  0.97946  0.69954  0.96047  1.0000
  C   C845      1.0  0.73254  0.65666  0.99029  1.0000
  C   C846      1.0  0.63969  0.56014  0.86960  1.0000
  H   H1425     1.0  0.87189  0.75601  0.77382  1.0000
  C   C847      1.0  0.60302  0.96281  0.99670  1.0000
  H   H1426     1.0  0.88231  0.68152  0.74398  1.0000
  H   H1427     1.0  0.57374  0.85565  0.95678  1.0000
  H   H1428     1.0  0.66170  0.82524  0.74915  1.0000
  H   H1429     1.0  0.97564  0.90580  0.99334  1.0000
  H   H1430     1.0  0.95040  0.57449  0.69611  1.0000
  C   C848      1.0  0.57065  0.86075  0.97263  1.0000
  H   H1431     1.0  0.87809  0.71332  0.81847  1.0000
  H   H1432     1.0  0.88878  0.85050  0.67742  1.0000
  H   H1433     1.0  0.64212  0.61999  0.85455  1.0000
  H   H1434     1.0  0.83087  0.73202  0.79981  1.0000
  H   H1435     1.0  0.68116  0.98000  0.89187  1.0000
  C   C849      1.0  0.64592  0.87389  0.73841  1.0000
  C   C850      1.0  0.89838  0.72277  0.80806  1.0000
  C   C851      1.0  0.58240  0.57940  0.85608  1.0000
  C   C852      1.0  0.53689  0.95548  0.94370  1.0000
  C   C853      1.0  0.76604  0.59388  0.98784  1.0000
  H   H1436     1.0  0.61195  0.95565  0.96588  1.0000
  H   H1437     1.0  0.60997  0.77643  0.75513  1.0000
  H   H1438     1.0  0.96621  0.80153  0.99388  1.0000
  C   C854      1.0  0.62179  0.54261  0.83597  1.0000
  H   H1439     1.0  0.68958  0.54181  0.88116  1.0000
  H   H1440     1.0  0.86377  0.63183  0.76479  1.0000
  H   H1441     1.0  0.54222  0.85998  0.97654  1.0000
  H   H1442     1.0  0.55459  0.97751  0.94213  1.0000
  H   H1443     1.0  0.87027  0.73781  0.75054  1.0000
  C   C855      1.0  0.58883  0.95659  0.97604  1.0000
  H   H1444     1.0  0.59826  0.99986  0.86807  1.0000
  H   H1445     1.0  0.65252  0.85128  0.70128  1.0000
  H   H1446     1.0  0.90717  0.63157  0.77604  1.0000
  H   H1447     1.0  0.92442  0.68085  0.75523  1.0000
  N   N61       1.0  0.56615  0.92580  0.97334  1.0000
  H   H1448     1.0  0.56281  0.53043  0.86784  1.0000
  H   H1449     1.0  0.52757  0.94965  0.92876  1.0000
  C   C856      1.0  0.63815  0.60083  0.84296  1.0000
  C   C857      1.0  0.61893  0.61924  0.82612  1.0000
  S   S254      1.0  0.99047  0.68517  0.73283  1.0000
  H   H1450     1.0  0.66500  0.59454  0.83731  1.0000
  C   C858      1.0  0.89180  0.63919  0.76302  1.0000
  H   H1451     1.0  0.58879  0.75563  0.73494  1.0000
  H   H1452     1.0  0.59441  0.89332  0.99375  1.0000
  H   H1453     1.0  0.99271  0.86538  0.95375  1.0000
  N   N62       1.0  0.68345  0.81707  0.89192  1.0000
  C   C859      1.0  0.68373  0.85208  0.90049  1.0000
  C   C860      1.0  0.65466  0.81554  0.87687  1.0000
  C   C861      1.0  0.71816  0.80875  0.88203  1.0000
  C   C862      1.0  0.67726  0.79186  0.90812  1.0000
  C   C863      1.0  0.71280  0.85879  0.91562  1.0000
  C   C864      1.0  0.61643  0.81878  0.88468  1.0000
  C   C865      1.0  0.73277  0.83600  0.86802  1.0000
  C   C866      1.0  0.67201  0.75498  0.90162  1.0000
  H   H1454     1.0  0.68593  0.87159  0.88881  1.0000
  H   H1455     1.0  0.65835  0.85785  0.90805  1.0000
  H   H1456     1.0  0.65635  0.79165  0.86841  1.0000
  H   H1457     1.0  0.65799  0.83591  0.86581  1.0000
  H   H1458     1.0  0.73907  0.80303  0.89292  1.0000
  H   H1459     1.0  0.71589  0.78531  0.87319  1.0000
  H   H1460     1.0  0.70000  0.79128  0.91831  1.0000
  H   H1461     1.0  0.65405  0.79933  0.91721  1.0000
  H   H1462     1.0  0.73964  0.85301  0.91000  1.0000
  H   H1463     1.0  0.71221  0.88606  0.91942  1.0000
  H   H1464     1.0  0.70807  0.84454  0.92936  1.0000
  H   H1465     1.0  0.60933  0.79816  0.89491  1.0000
  H   H1466     1.0  0.61127  0.84354  0.89162  1.0000
  H   H1467     1.0  0.59802  0.81699  0.87218  1.0000
  H   H1468     1.0  0.71336  0.84353  0.85683  1.0000
  H   H1469     1.0  0.75617  0.82564  0.86016  1.0000
  H   H1470     1.0  0.74153  0.85886  0.87584  1.0000
  H   H1471     1.0  0.64768  0.75186  0.89295  1.0000
  H   H1472     1.0  0.66919  0.73856  0.91472  1.0000
  H   H1473     1.0  0.69490  0.74522  0.89314  1.0000
  H   H1474     1.0  0.84236  0.67085  0.78765  1.0000
  S   S255      1.0  0.62059  0.96394  0.91682  1.0000
  H   H1475     1.0  0.67419  0.87928  0.74118  1.0000
  H   H1476     1.0  0.98209  0.89971  0.92293  1.0000
  H   H1477     1.0  0.88256  0.00127  0.67871  1.0000
  H   H1478     1.0  0.59664  0.86401  0.69769  1.0000
  C   C867      1.0  0.92265  0.74956  0.76089  1.0000
  C   C868      1.0  0.89584  0.67712  0.75816  1.0000
  H   H1479     1.0  0.93777  0.75178  0.77462  1.0000
  H   H1480     1.0  0.55083  0.93206  0.75484  1.0000
  C   C869      1.0  0.82026  0.72096  0.78634  1.0000
  H   H1481     1.0  0.98820  0.66006  0.98299  1.0000
  N   N63       1.0  0.62019  0.56988  0.85126  1.0000
  H   H1482     1.0  0.52409  0.95502  0.98650  1.0000
  C   C870      1.0  0.51298  0.84182  0.75195  1.0000
  C   C871      1.0  0.55654  0.92430  0.95199  1.0000
  C   C872      1.0  0.98767  0.93430  0.95708  1.0000
  C   C873      1.0  0.84409  0.69298  0.77761  1.0000
  H   H1483     1.0  0.98426  0.73747  0.91606  1.0000
  H   H1484     1.0  0.62595  0.73658  0.74662  1.0000
  H   H1485     1.0  0.79417  0.70998  0.79012  1.0000
  H   H1486     1.0  0.61587  0.83316  0.75124  1.0000
  C   C874      1.0  0.98345  0.96376  0.97176  1.0000
  C   C875      1.0  0.54022  0.90683  0.75393  1.0000
  H   H1487     1.0  0.59324  0.63018  0.83087  1.0000
  C   C876      1.0  0.58141  0.85330  0.71006  1.0000
  H   H1488     1.0  0.64024  0.76302  0.71386  1.0000
  H   H1489     1.0  0.96359  0.91843  0.95853  1.0000
  H   H1490     1.0  0.66690  0.77522  0.73386  1.0000
  C   C877      1.0  0.64011  0.77845  0.72744  1.0000
  H   H1491     1.0  0.57637  0.81057  0.72846  1.0000
  C   C878      1.0  0.61448  0.76117  0.74187  1.0000
  H   H1492     1.0  0.77916  0.56956  0.98690  1.0000
  H   H1493     1.0  0.95819  0.96127  0.97997  1.0000
  C   C879      1.0  0.96781  0.66827  0.97239  1.0000
  S   S256      1.0  0.95723  0.68874  0.67901  1.0000
  H   H1494     1.0  0.63830  0.88502  0.72426  1.0000
  H   H1495     1.0  0.94412  0.67515  0.98124  1.0000
  C   C880      1.0  0.69669  0.82115  0.71037  1.0000
  H   H1496     1.0  0.90050  0.89123  0.68620  1.0000
  H   H1497     1.0  0.83058  0.68509  0.76398  1.0000
  H   H1498     1.0  0.57389  0.56132  0.88615  1.0000
  C   C881      1.0  0.63866  0.83565  0.74105  1.0000
  N   N64       1.0  0.63259  0.81523  0.72285  1.0000
  C   C882      1.0  0.88487  0.73658  0.76461  1.0000
  H   H1499     1.0  0.89093  0.74840  0.80308  1.0000
  H   H1500     1.0  0.71197  0.83299  0.69830  1.0000
  H   H1501     1.0  0.69516  0.57079  0.86152  1.0000
  C   C883      1.0  0.90456  0.69738  0.79135  1.0000
  H   H1502     1.0  0.58422  0.83985  0.98054  1.0000
  H   H1503     1.0  0.93327  0.69719  0.78763  1.0000
  H   H1504     1.0  0.86512  0.94098  0.68053  1.0000
  H   H1505     1.0  0.58156  0.97085  0.00676  1.0000
  H   H1506     1.0  0.70503  0.79422  0.71101  1.0000
  H   H1507     1.0  0.80850  0.61706  0.00388  1.0000
  Fe  Fe127     1.0  0.91565  0.72919  0.67799  1.0000
  H   H1508     1.0  0.70447  0.83377  0.72407  1.0000
  H   H1509     1.0  0.55369  0.85111  0.70502  1.0000
  H   H1510     1.0  0.68155  0.52752  0.85699  1.0000
  C   C884      1.0  0.51136  0.90081  0.74162  1.0000
  H   H1511     1.0  0.51025  0.91543  0.97804  1.0000
  H   H1512     1.0  0.62696  0.53899  0.87753  1.0000
  Fe  Fe128     1.0  0.61242  0.51699  0.92863  1.0000
  H   H1513     1.0  0.58098  0.60562  0.86193  1.0000
  H   H1514     1.0  0.58047  0.87105  0.72251  1.0000
  H   H1515     1.0  0.51343  0.96243  0.95260  1.0000
  H   H1516     1.0  0.81491  0.74126  0.77550  1.0000
  H   H1517     1.0  0.57415  0.98011  0.97225  1.0000
  H   H1518     1.0  0.98638  0.61322  0.68182  1.0000
  H   H1519     1.0  0.92103  0.77525  0.75434  1.0000
  C   C885      1.0  0.58777  0.89470  0.97802  1.0000
  H   H1520     1.0  0.56599  0.57968  0.84266  1.0000
  C   C886      1.0  0.51254  0.53378  0.99735  1.0000
  H   H1521     1.0  0.60590  0.55009  0.82305  1.0000
  C   C887      1.0  0.98122  0.77926  0.99791  1.0000
  C   C888      1.0  0.78272  0.62074  0.99749  1.0000
  C   C889      1.0  0.67867  0.54959  0.86680  1.0000
  H   H1522     1.0  0.61798  0.94110  0.00273  1.0000
  H   H1523     1.0  0.98644  0.54638  0.69520  1.0000
  H   H1524     1.0  0.95559  0.70856  0.95256  1.0000
  H   H1525     1.0  0.53458  0.88594  0.00648  1.0000
  H   H1526     1.0  0.98696  0.86386  0.98505  1.0000
  H   H1527     1.0  0.62160  0.98438  0.99608  1.0000
  H   H1528     1.0  0.99756  0.62060  0.70598  1.0000
  H   H1529     1.0  0.98607  0.94561  0.94219  1.0000
  C   C890      1.0  0.99746  0.88735  0.99138  1.0000
  C   C891      1.0  0.97797  0.57092  0.70125  1.0000
  H   H1530     1.0  0.96036  0.64683  0.96298  1.0000
  C   C892      1.0  0.53339  0.91392  0.00636  1.0000
  H   H1531     1.0  0.97212  0.68247  0.92404  1.0000
  C   C893      1.0  0.60849  0.50725  0.84187  1.0000
  H   H1532     1.0  0.97200  0.75791  0.93894  1.0000
  H   H1533     1.0  0.98525  0.71966  0.97120  1.0000
  H   H1534     1.0  0.50218  0.81665  0.75117  1.0000
  C   C894      1.0  0.99771  0.67304  0.92992  1.0000
  C   C895      1.0  0.99419  0.75047  0.92919  1.0000
  H   H1535     1.0  0.99121  0.64722  0.93522  1.0000
  C   C896      1.0  0.00025  0.60125  0.69436  1.0000
  H   H1536     1.0  0.00061  0.85864  0.91951  1.0000
