data_image0
_chemical_formula_structural       H3CSCH4SCHC2H2CSH4CHCHCHC2H5CH2C2HCHCH3C3H2NHNCFeHCHC2HCH3CH2CH8CH2SHSCFeSFeCSHFeS2FeCSH3NC7H6SCH2CH2CNC8H20CFeHFe2HCHSCHC2SHC2H8CH4FeSHFeSFeSFeHS2CH5CHCH3CH2NCH2CHNSHSH2SC4HC2H7C2H3SHCHSHC3H3C2H4C2H4C4HCHC2HCH6FeS2FeS2Fe2CS2H2CH3C2H2NH2C2H2C3H2SHSH2CH3SCH3C2NHCH2C2H2C2HCH2CH6C8HCHCSCS3CFeHFeSNSCSHFeSHC6H6CH4CH3S2CH2C2SFeH3C2H3C2H2CNH2FeH3SHC2H4C7HCH2CH6CHFeCHCH2CHSHC2FeCH2CH8NHCH3C2HC2H2CHCH3CH3CH2CHSH2CH3NHSHCHCH3CHCHCH2C2HCFeHNFeS3HC2H7C6H2SNCSHC2HFeHC2H4SCNH10CHC2H3CH5CH6C2H2C2HC3H2CH2CHC2H4C3H5CH4CHSCFeSFeSHFeSFeS3CHC6H5CH5SH2SCH2NC6H5CSHC3H3NC8H16CH3CHCH2CFeS2CSCH3FeCHFeHSH2S3HSH2FeCSCH2C3H2C2HFeNH5C2H2CH2CH4CH4SCHSFeHFeSHSH4CHCSCH4CHNHC4H2CH9FeHCH2FeCH3C3FeS2FeS2Fe2S3C2SH3C3H2C6H6CH7C3HCH5FeH4CH6SHCHCH2CH2NC8H4SNHCHCH3FeC2H2SHSFeHSC2S2CHCFeC4H2CHSH4NH2CNH4CSHC2H5CH4CHC2FeH2CHC2SCHCH2CSCH5CNH2CH4C2HCH2CH12CHCHC2H2
_chemical_formula_sum              "H576 C336 S96 N24 Fe48"
_cell_length_a       29.9653
_cell_length_b       55.043
_cell_length_c       34.3762
_cell_angle_alpha    90.0525
_cell_angle_beta     108.439
_cell_angle_gamma    90.1095

_space_group_name_H-M_alt    "P 1"
_space_group_IT_number       1

loop_
  _space_group_symop_operation_xyz
  'x, y, z'

loop_
  _atom_site_type_symbol
  _atom_site_label
  _atom_site_symmetry_multiplicity
  _atom_site_fract_x
  _atom_site_fract_y
  _atom_site_fract_z
  _atom_site_occupancy
  H   H1        1.0  0.45839  0.30121  0.32514  1.0000
  H   H2        1.0  0.21016  0.27164  0.00914  1.0000
  H   H3        1.0  0.43674  0.99540  0.01018  1.0000
  C   C1        1.0  0.45321  0.16885  0.08279  1.0000
  S   S1        1.0  0.39857  0.29640  0.22761  1.0000
  C   C2        1.0  0.36499  0.31963  0.15141  1.0000
  H   H4        1.0  0.11140  0.29619  0.06766  1.0000
  H   H5        1.0  0.35888  0.24222  0.41598  1.0000
  H   H6        1.0  0.39651  0.31339  0.14563  1.0000
  H   H7        1.0  0.46864  0.25743  0.32477  1.0000
  S   S2        1.0  0.46252  0.23392  0.24158  1.0000
  C   C3        1.0  0.46071  0.08833  0.05880  1.0000
  H   H8        1.0  0.37970  0.21574  0.03931  1.0000
  C   C4        1.0  0.35726  0.31354  0.18831  1.0000
  C   C5        1.0  0.45887  0.24628  0.39952  1.0000
  H   H9        1.0  0.45099  0.10579  0.07009  1.0000
  H   H10       1.0  0.35555  0.21834  0.37908  1.0000
  C   C6        1.0  0.44778  0.29026  0.34793  1.0000
  S   S3        1.0  0.47242  0.19805  0.15121  1.0000
  H   H11       1.0  0.13226  0.26590  0.07388  1.0000
  H   H12       1.0  0.19406  0.30916  0.11665  1.0000
  H   H13       1.0  0.45941  0.01555  0.43319  1.0000
  H   H14       1.0  0.20126  0.25515  0.05036  1.0000
  C   C7        1.0  0.14348  0.28491  0.07160  1.0000
  H   H15       1.0  0.32586  0.19929  0.02049  1.0000
  C   C8        1.0  0.37490  0.25495  0.36127  1.0000
  H   H16       1.0  0.27831  0.28590  0.05284  1.0000
  C   C9        1.0  0.37772  0.21879  0.29671  1.0000
  H   H17       1.0  0.24866  0.30237  0.08166  1.0000
  C   C10       1.0  0.34927  0.23784  0.38278  1.0000
  C   C11       1.0  0.47108  0.99655  0.00618  1.0000
  H   H18       1.0  0.20621  0.27691  0.12426  1.0000
  H   H19       1.0  0.34259  0.22059  0.30072  1.0000
  H   H20       1.0  0.42804  0.21990  0.43296  1.0000
  H   H21       1.0  0.40925  0.26609  0.30066  1.0000
  H   H22       1.0  0.31066  0.24022  0.36884  1.0000
  C   C12       1.0  0.46149  0.22392  0.42722  1.0000
  H   H23       1.0  0.34989  0.25973  0.33059  1.0000
  H   H24       1.0  0.26673  0.27178  0.09534  1.0000
  C   C13       1.0  0.47109  0.01379  0.40586  1.0000
  C   C14       1.0  0.43658  0.26416  0.33109  1.0000
  H   H25       1.0  0.37946  0.27238  0.37848  1.0000
  C   C15       1.0  0.47002  0.09293  0.37157  1.0000
  H   H26       1.0  0.37964  0.20024  0.28457  1.0000
  C   C16       1.0  0.25173  0.28425  0.06907  1.0000
  H   H27       1.0  0.08774  0.28723  0.99691  1.0000
  H   H28       1.0  0.33114  0.22959  0.00152  1.0000
  H   H29       1.0  0.43941  0.08188  0.45266  1.0000
  C   C17       1.0  0.20503  0.27392  0.03968  1.0000
  C   C18       1.0  0.17826  0.29083  0.11433  1.0000
  C   C19       1.0  0.45861  0.16026  0.04584  1.0000
  H   H30       1.0  0.15888  0.29037  0.13706  1.0000
  H   H31       1.0  0.38061  0.23164  0.27286  1.0000
  N   N1        1.0  0.16079  0.28818  0.03516  1.0000
  H   H32       1.0  0.42806  0.16017  0.09499  1.0000
  N   N2        1.0  0.42132  0.24639  0.35796  1.0000
  C   C20       1.0  0.34937  0.21206  0.01133  1.0000
  Fe  Fe1       1.0  0.46348  0.27396  0.22866  1.0000
  H   H33       1.0  0.42777  0.05228  0.42907  1.0000
  C   C21       1.0  0.16619  0.31499  0.02853  1.0000
  H   H34       1.0  0.44215  0.01809  0.37748  1.0000
  C   C22       1.0  0.41777  0.22179  0.33774  1.0000
  C   C23       1.0  0.12207  0.27904  0.99797  1.0000
  H   H35       1.0  0.43765  0.14515  0.02981  1.0000
  C   C24       1.0  0.11440  0.25126  0.99415  1.0000
  H   H36       1.0  0.45539  0.26248  0.41775  1.0000
  H   H37       1.0  0.45277  0.05529  0.48298  1.0000
  H   H38       1.0  0.41269  0.20692  0.35761  1.0000
  C   C25       1.0  0.19133  0.32188  0.99716  1.0000
  H   H39       1.0  0.45151  0.21729  0.33220  1.0000
  H   H40       1.0  0.42951  0.08218  0.03332  1.0000
  C   C26       1.0  0.45302  0.06307  0.45323  1.0000
  H   H41       1.0  0.22905  0.31697  0.00801  1.0000
  H   H42       1.0  0.43834  0.09752  0.34546  1.0000
  H   H43       1.0  0.44005  0.05771  0.37192  1.0000
  H   H44       1.0  0.33622  0.15839  0.99978  1.0000
  H   H45       1.0  0.10550  0.24326  0.02029  1.0000
  H   H46       1.0  0.41662  0.29940  0.35198  1.0000
  H   H47       1.0  0.46719  0.07447  0.08323  1.0000
  H   H48       1.0  0.46543  0.10112  0.39951  1.0000
  C   C27       1.0  0.31594  0.32193  0.19509  1.0000
  H   H49       1.0  0.30954  0.31748  0.22352  1.0000
  H   H50       1.0  0.32916  0.14255  0.95191  1.0000
  S   S4        1.0  0.40290  0.10945  0.94963  1.0000
  H   H51       1.0  0.38850  0.21716  0.89996  1.0000
  S   S5        1.0  0.39565  0.08047  0.86591  1.0000
  C   C28       1.0  0.31216  0.15483  0.96843  1.0000
  Fe  Fe2       1.0  0.36754  0.11585  0.88195  1.0000
  S   S6        1.0  0.28923  0.12665  0.86213  1.0000
  Fe  Fe3       1.0  0.43694  0.07613  0.93282  1.0000
  C   C29       1.0  0.29433  0.17824  0.94384  1.0000
  S   S7        1.0  0.42694  0.13818  0.87370  1.0000
  H   H52       1.0  0.03912  0.30684  0.68930  1.0000
  Fe  Fe4       1.0  0.06908  0.21743  0.74033  1.0000
  S   S8        1.0  0.03403  0.21749  0.78964  1.0000
  S   S9        1.0  0.14074  0.20028  0.74387  1.0000
  Fe  Fe5       1.0  0.03230  0.25834  0.78294  1.0000
  C   C30       1.0  0.00874  0.28717  0.57637  1.0000
  S   S10       1.0  0.06945  0.25835  0.73532  1.0000
  H   H53       1.0  0.33339  0.23308  0.92085  1.0000
  H   H54       1.0  0.25933  0.23353  0.86247  1.0000
  H   H55       1.0  0.42952  0.19356  0.92325  1.0000
  N   N3        1.0  0.33153  0.19504  0.93793  1.0000
  C   C31       1.0  0.30765  0.21810  0.91827  1.0000
  C   C32       1.0  0.18227  0.18096  0.77928  1.0000
  C   C33       1.0  0.22875  0.17973  0.77779  1.0000
  C   C34       1.0  0.26230  0.16387  0.80367  1.0000
  C   C35       1.0  0.24952  0.14839  0.83068  1.0000
  C   C36       1.0  0.20329  0.14981  0.83254  1.0000
  C   C37       1.0  0.17005  0.16610  0.80739  1.0000
  H   H56       1.0  0.23875  0.19114  0.75630  1.0000
  H   H57       1.0  0.29773  0.16335  0.80220  1.0000
  H   H58       1.0  0.19280  0.13800  0.85328  1.0000
  H   H59       1.0  0.13454  0.16663  0.80889  1.0000
  H   H60       1.0  0.29937  0.21231  0.85268  1.0000
  H   H61       1.0  0.28381  0.22506  0.93485  1.0000
  S   S11       1.0  0.00010  0.21434  0.68748  1.0000
  C   C38       1.0  0.05297  0.30042  0.87449  1.0000
  H   H62       1.0  0.44050  0.99291  0.51059  1.0000
  H   H63       1.0  0.33035  0.17550  0.88249  1.0000
  C   C39       1.0  0.01643  0.29204  0.88817  1.0000
  H   H64       1.0  0.37375  0.16571  0.92662  1.0000
  H   H65       1.0  0.03231  0.27290  0.59212  1.0000
  C   C40       1.0  0.00904  0.30251  0.92320  1.0000
  N   N4        1.0  0.32057  0.10521  0.73722  1.0000
  C   C41       1.0  0.27541  0.11849  0.73414  1.0000
  C   C42       1.0  0.35950  0.11868  0.76869  1.0000
  C   C43       1.0  0.31628  0.07996  0.75278  1.0000
  C   C44       1.0  0.32689  0.10452  0.69538  1.0000
  C   C45       1.0  0.22946  0.10742  0.70523  1.0000
  C   C46       1.0  0.37003  0.14459  0.75663  1.0000
  C   C47       1.0  0.35791  0.06255  0.75767  1.0000
  C   C48       1.0  0.37701  0.09910  0.69355  1.0000
  H   H66       1.0  0.27062  0.11998  0.76494  1.0000
  H   H67       1.0  0.27640  0.13742  0.72325  1.0000
  H   H68       1.0  0.39323  0.10877  0.77724  1.0000
  H   H69       1.0  0.35130  0.12018  0.79806  1.0000
  H   H70       1.0  0.30987  0.08096  0.78302  1.0000
  H   H71       1.0  0.28554  0.07024  0.73176  1.0000
  H   H72       1.0  0.30282  0.09077  0.67567  1.0000
  H   H73       1.0  0.31614  0.12222  0.67945  1.0000
  H   H74       1.0  0.20032  0.12048  0.70242  1.0000
  H   H75       1.0  0.23096  0.10421  0.67385  1.0000
  H   H76       1.0  0.21941  0.09051  0.71792  1.0000
  H   H77       1.0  0.34081  0.15736  0.75430  1.0000
  H   H78       1.0  0.40108  0.15187  0.78101  1.0000
  H   H79       1.0  0.37897  0.14489  0.72776  1.0000
  H   H80       1.0  0.35105  0.04546  0.77201  1.0000
  H   H81       1.0  0.39176  0.06964  0.77812  1.0000
  H   H82       1.0  0.36131  0.05738  0.72757  1.0000
  H   H83       1.0  0.37543  0.08397  0.67173  1.0000
  H   H84       1.0  0.40318  0.09385  0.72287  1.0000
  H   H85       1.0  0.39116  0.11501  0.68132  1.0000
  C   C49       1.0  0.27752  0.21598  0.87273  1.0000
  Fe  Fe6       1.0  0.99884  0.25534  0.68694  1.0000
  H   H86       1.0  0.28149  0.14468  0.97178  1.0000
  Fe  Fe7       1.0  0.46311  0.13027  0.94092  1.0000
  Fe  Fe8       1.0  0.45760  0.10252  0.86162  1.0000
  H   H87       1.0  0.26996  0.17217  0.91368  1.0000
  C   C50       1.0  0.39432  0.19733  0.90080  1.0000
  H   H88       1.0  0.24978  0.20189  0.86765  1.0000
  S   S12       1.0  0.06484  0.28795  0.83089  1.0000
  C   C51       1.0  0.35586  0.18245  0.91135  1.0000
  H   H89       1.0  0.39482  0.19230  0.86964  1.0000
  C   C52       1.0  0.08175  0.31944  0.89622  1.0000
  C   C53       1.0  0.01479  0.29824  0.54128  1.0000
  S   S13       1.0  0.43929  0.04039  0.96830  1.0000
  H   H90       1.0  0.04316  0.29235  0.53037  1.0000
  C   C54       1.0  0.36813  0.20126  0.97813  1.0000
  C   C55       1.0  0.03781  0.32155  0.94486  1.0000
  H   H91       1.0  0.99398  0.27743  0.87193  1.0000
  H   H92       1.0  0.12790  0.28470  0.96898  1.0000
  H   H93       1.0  0.09601  0.31402  0.75819  1.0000
  H   H94       1.0  0.27159  0.18781  0.95900  1.0000
  H   H95       1.0  0.08400  0.24750  0.96627  1.0000
  H   H96       1.0  0.01442  0.30578  0.74807  1.0000
  H   H97       1.0  0.17452  0.31398  0.96639  1.0000
  H   H98       1.0  0.39397  0.21462  0.97351  1.0000
  C   C56       1.0  0.98455  0.31684  0.52016  1.0000
  H   H99       1.0  0.38967  0.18510  0.99131  1.0000
  H   H100      1.0  0.98098  0.29570  0.93375  1.0000
  H   H101      1.0  0.14506  0.24174  0.98979  1.0000
  H   H102      1.0  0.19000  0.34195  0.99346  1.0000
  Fe  Fe9       1.0  0.09568  0.38329  0.12153  1.0000
  S   S14       1.0  0.15293  0.40695  0.11177  1.0000
  H   H103      1.0  0.00118  0.58284  0.43435  1.0000
  Fe  Fe10      1.0  0.07346  0.36163  0.03465  1.0000
  S   S15       1.0  0.12855  0.38433  0.02044  1.0000
  Fe  Fe11      1.0  0.17528  0.37393  0.08399  1.0000
  S   S16       1.0  0.25060  0.36088  0.09078  1.0000
  Fe  Fe12      1.0  0.10080  0.41535  0.04958  1.0000
  H   H104      1.0  0.07862  0.43625  0.12595  1.0000
  S   S17       1.0  0.12103  0.34987  0.09688  1.0000
  S   S18       1.0  0.04268  0.39310  0.06058  1.0000
  C   C57       1.0  0.29082  0.34261  0.12900  1.0000
  H   H105      1.0  0.07870  0.51955  0.46338  1.0000
  H   H106      1.0  0.98138  0.43574  0.06559  1.0000
  H   H107      1.0  0.04597  0.45695  0.08929  1.0000
  H   H108      1.0  0.12205  0.47340  0.11248  1.0000
  H   H109      1.0  0.04806  0.49001  0.35734  1.0000
  C   C58       1.0  0.19209  0.64158  0.46909  1.0000
  H   H110      1.0  0.00895  0.49837  0.38462  1.0000
  C   C59       1.0  0.04539  0.50087  0.38378  1.0000
  H   H111      1.0  0.22272  0.62921  0.48009  1.0000
  H   H112      1.0  0.25134  0.34251  0.17147  1.0000
  H   H113      1.0  0.99045  0.37601  0.15869  1.0000
  C   C60       1.0  0.00156  0.37916  0.19142  1.0000
  H   H114      1.0  0.13956  0.56469  0.39664  1.0000
  H   H115      1.0  0.16234  0.55077  0.46377  1.0000
  N   N5        1.0  0.05728  0.54480  0.41215  1.0000
  C   C61       1.0  0.05677  0.52772  0.37765  1.0000
  H   H116      1.0  0.00429  0.63674  0.05422  1.0000
  H   H117      1.0  0.09251  0.56731  0.34836  1.0000
  C   C62       1.0  0.14283  0.53334  0.45563  1.0000
  H   H118      1.0  0.41595  0.37730  0.16452  1.0000
  N   N6        1.0  0.02760  0.45607  0.14592  1.0000
  S   S19       1.0  0.99325  0.32971  0.47551  1.0000
  H   H119      1.0  0.05771  0.64434  0.37052  1.0000
  S   S20       1.0  0.98582  0.39134  0.40886  1.0000
  H   H120      1.0  0.09133  0.54984  0.47720  1.0000
  H   H121      1.0  0.14801  0.52560  0.42774  1.0000
  S   S21       1.0  0.09245  0.38621  0.18724  1.0000
  C   C63       1.0  0.10590  0.57372  0.38063  1.0000
  C   C64       1.0  0.06856  0.57044  0.40247  1.0000
  C   C65       1.0  0.06256  0.38767  0.25524  1.0000
  C   C66       1.0  0.98198  0.38196  0.25560  1.0000
  H   H122      1.0  0.04910  0.45107  0.25238  1.0000
  C   C67       1.0  0.05464  0.45245  0.19081  1.0000
  C   C68       1.0  0.04895  0.38390  0.21252  1.0000
  H   H123      1.0  0.07963  0.46772  0.20274  1.0000
  H   H124      1.0  0.04049  0.38949  0.30951  1.0000
  H   H125      1.0  0.98366  0.47980  0.07213  1.0000
  H   H126      1.0  0.33877  0.33901  0.09397  1.0000
  H   H127      1.0  0.09909  0.39134  0.27193  1.0000
  H   H128      1.0  0.43399  0.35703  0.20657  1.0000
  H   H129      1.0  0.99980  0.52689  0.42672  1.0000
  C   C69       1.0  0.98964  0.49238  0.09823  1.0000
  C   C70       1.0  0.99844  0.56398  0.44469  1.0000
  H   H130      1.0  0.07067  0.49290  0.41172  1.0000
  H   H131      1.0  0.01257  0.41763  0.13825  1.0000
  H   H132      1.0  0.03068  0.53403  0.34847  1.0000
  S   S22       1.0  0.05982  0.62999  0.45112  1.0000
  H   H133      1.0  0.09083  0.52762  0.37139  1.0000
  C   C71       1.0  0.09083  0.53660  0.45267  1.0000
  H   H134      1.0  0.45422  0.38855  0.21185  1.0000
  S   S23       1.0  0.09572  0.45508  0.02651  1.0000
  H   H135      1.0  0.99190  0.45717  0.00466  1.0000
  C   C72       1.0  0.06267  0.45470  0.12272  1.0000
  C   C73       1.0  0.10365  0.47309  0.13594  1.0000
  C   C74       1.0  0.97493  0.47381  0.47429  1.0000
  H   H136      1.0  0.07691  0.43587  0.19526  1.0000
  H   H137      1.0  0.09159  0.49181  0.13876  1.0000
  H   H138      1.0  0.11355  0.59344  0.37953  1.0000
  C   C75       1.0  0.02940  0.38665  0.27669  1.0000
  C   C76       1.0  0.28277  0.33617  0.16558  1.0000
  H   H139      1.0  0.13017  0.46752  0.16518  1.0000
  H   H140      1.0  0.02007  0.64611  0.12814  1.0000
  H   H141      1.0  0.19710  0.65396  0.44545  1.0000
  H   H142      1.0  0.08021  0.58158  0.43099  1.0000
  C   C77       1.0  0.44635  0.37237  0.19166  1.0000
  C   C78       1.0  0.05270  0.47834  0.00600  1.0000
  H   H143      1.0  0.02463  0.49371  0.16277  1.0000
  H   H144      1.0  0.16103  0.62996  0.45411  1.0000
  H   H145      1.0  0.03647  0.57964  0.38219  1.0000
  H   H146      1.0  0.98142  0.54757  0.38502  1.0000
  C   C79       1.0  0.00824  0.54477  0.41565  1.0000
  C   C80       1.0  0.02510  0.45047  0.22026  1.0000
  C   C81       1.0  0.00442  0.47476  0.99871  1.0000
  C   C82       1.0  0.00337  0.65535  0.06408  1.0000
  H   H147      1.0  0.02184  0.56174  0.47657  1.0000
  C   C83       1.0  0.33216  0.33421  0.12217  1.0000
  H   H148      1.0  0.10494  0.50448  0.00246  1.0000
  C   C84       1.0  0.00239  0.48018  0.14094  1.0000
  C   C85       1.0  0.06783  0.50138  0.99719  1.0000
  H   H149      1.0  0.01659  0.50606  0.09726  1.0000
  C   C86       1.0  0.99330  0.43524  0.13264  1.0000
  H   H150      1.0  0.99973  0.46559  0.21642  1.0000
  H   H151      1.0  0.00642  0.43279  0.21702  1.0000
  H   H152      1.0  0.13116  0.32401  0.01870  1.0000
  H   H153      1.0  0.15907  0.51993  0.48018  1.0000
  H   H154      1.0  0.03312  0.44901  0.48738  1.0000
  H   H155      1.0  0.18517  0.32447  0.05726  1.0000
  Fe  Fe13      1.0  0.16368  0.61227  0.59563  1.0000
  S   S24       1.0  0.10708  0.64084  0.57735  1.0000
  S   S25       1.0  0.24338  0.61945  0.61325  1.0000
  Fe  Fe14      1.0  0.09069  0.56988  0.56320  1.0000
  S   S26       1.0  0.03077  0.59615  0.54326  1.0000
  S   S27       1.0  0.08544  0.52831  0.55349  1.0000
  Fe  Fe15      1.0  0.07751  0.61959  0.51871  1.0000
  Fe  Fe16      1.0  0.06539  0.61484  0.60404  1.0000
  C   C87       1.0  0.01531  0.37906  0.75440  1.0000
  S   S28       1.0  0.13583  0.59219  0.53556  1.0000
  S   S29       1.0  0.12367  0.58735  0.62547  1.0000
  H   H156      1.0  0.02327  0.36973  0.78421  1.0000
  H   H157      1.0  0.09637  0.34473  0.94703  1.0000
  C   C88       1.0  0.01642  0.61140  0.77153  1.0000
  H   H158      1.0  0.02068  0.57346  0.62450  1.0000
  H   H159      1.0  0.09285  0.51122  0.67385  1.0000
  H   H160      1.0  0.97618  0.50893  0.58547  1.0000
  C   C89       1.0  0.05655  0.61076  0.71923  1.0000
  C   C90       1.0  0.05591  0.60578  0.75935  1.0000
  H   H161      1.0  0.08737  0.60653  0.71060  1.0000
  H   H162      1.0  0.08640  0.59761  0.78126  1.0000
  N   N7        1.0  0.00773  0.54235  0.65790  1.0000
  H   H163      1.0  0.06754  0.35613  0.66013  1.0000
  H   H164      1.0  0.06177  0.53623  0.71649  1.0000
  C   C91       1.0  0.08928  0.33395  0.75431  1.0000
  C   C92       1.0  0.01740  0.62127  0.69051  1.0000
  H   H165      1.0  0.06083  0.37491  0.71697  1.0000
  H   H166      1.0  0.03635  0.50315  0.61500  1.0000
  C   C93       1.0  0.33102  0.64109  0.64255  1.0000
  C   C94       1.0  0.05790  0.54414  0.68587  1.0000
  C   C95       1.0  0.05495  0.48391  0.51681  1.0000
  H   H167      1.0  0.05511  0.32875  0.63101  1.0000
  H   H168      1.0  0.10582  0.36542  0.79605  1.0000
  S   S30       1.0  0.01479  0.62628  0.63859  1.0000
  H   H169      1.0  0.00970  0.33139  0.77644  1.0000
  S   S31       1.0  0.00826  0.60285  0.93077  1.0000
  H   H170      1.0  0.01384  0.55519  0.74470  1.0000
  H   H171      1.0  0.99802  0.32966  0.66453  1.0000
  C   C96       1.0  0.04159  0.50771  0.52345  1.0000
  H   H172      1.0  0.02378  0.54556  0.60052  1.0000
  H   H173      1.0  0.06860  0.56355  0.69148  1.0000
  H   H174      1.0  0.11525  0.34118  0.74030  1.0000
  S   S32       1.0  0.01771  0.60399  0.82240  1.0000
  C   C97       1.0  0.28405  0.64156  0.64280  1.0000
  H   H175      1.0  0.13083  0.53645  0.69233  1.0000
  H   H176      1.0  0.34175  0.62716  0.62517  1.0000
  H   H177      1.0  0.00840  0.50542  0.67999  1.0000
  C   C98       1.0  0.09547  0.53123  0.67156  1.0000
  C   C99       1.0  0.02968  0.36535  0.72077  1.0000
  N   N8        1.0  0.03957  0.33850  0.72710  1.0000
  H   H178      1.0  0.97727  0.38362  0.74327  1.0000
  C   C100      1.0  0.03420  0.32689  0.68600  1.0000
  H   H179      1.0  0.09121  0.47842  0.53043  1.0000
  H   H180      1.0  0.09457  0.53649  0.64030  1.0000
  C   C101      1.0  0.97796  0.62700  0.70269  1.0000
  C   C102      1.0  0.10367  0.34534  0.79743  1.0000
  H   H181      1.0  0.13941  0.33881  0.81506  1.0000
  H   H182      1.0  0.98481  0.57580  0.67895  1.0000
  C   C103      1.0  0.00399  0.55514  0.61820  1.0000
  C   C104      1.0  0.06745  0.33608  0.66279  1.0000
  H   H183      1.0  0.26787  0.64913  0.55648  1.0000
  C   C105      1.0  0.98739  0.51704  0.97481  1.0000
  H   H184      1.0  0.04812  0.53800  0.97510  1.0000
  H   H185      1.0  0.18479  0.64166  0.52934  1.0000
  C   C106      1.0  0.97716  0.55602  0.67804  1.0000
  H   H186      1.0  0.03411  0.39678  0.76067  1.0000
  H   H187      1.0  0.08035  0.33990  0.81521  1.0000
  H   H188      1.0  0.10380  0.32922  0.67672  1.0000
  H   H189      1.0  0.99097  0.48282  0.61732  1.0000
  H   H190      1.0  0.00062  0.36840  0.69153  1.0000
  H   H191      1.0  0.98314  0.53234  0.51099  1.0000
  C   C107      1.0  0.99964  0.50232  0.61539  1.0000
  C   C108      1.0  0.99151  0.51618  0.65174  1.0000
  C   C109      1.0  0.03556  0.52050  0.98156  1.0000
  C   C110      1.0  0.07405  0.33006  0.93091  1.0000
  C   C111      1.0  0.02205  0.46714  0.49230  1.0000
  C   C112      1.0  0.98093  0.54827  0.72211  1.0000
  C   C113      1.0  0.99442  0.51434  0.50576  1.0000
  C   C114      1.0  0.97740  0.62210  0.74290  1.0000
  H   H192      1.0  0.97838  0.52831  0.72511  1.0000
  C   C115      1.0  0.18352  0.65538  0.50516  1.0000
  H   H193      1.0  0.11041  0.32599  0.88630  1.0000
  C   C116      1.0  0.00596  0.32551  0.74478  1.0000
  S   S33       1.0  0.02938  0.33282  0.99069  1.0000
  C   C117      1.0  0.04067  0.70270  0.42689  1.0000
  S   S34       1.0  0.41524  0.87793  0.45335  1.0000
  S   S35       1.0  0.44688  0.94787  0.47031  1.0000
  S   S36       1.0  0.40471  0.90625  0.36816  1.0000
  C   C118      1.0  0.16678  0.70229  0.46182  1.0000
  Fe  Fe17      1.0  0.44595  0.91196  0.43502  1.0000
  H   H194      1.0  0.27264  0.75896  0.43829  1.0000
  Fe  Fe18      1.0  0.37959  0.87024  0.38593  1.0000
  S   S37       1.0  0.30498  0.85443  0.37494  1.0000
  N   N9        1.0  0.14667  0.74431  0.13950  1.0000
  S   S38       1.0  0.44110  0.84915  0.37874  1.0000
  C   C119      1.0  0.18794  0.76109  0.15811  1.0000
  S   S39       1.0  0.08589  0.73443  0.26598  1.0000
  H   H195      1.0  0.11888  0.76228  0.08040  1.0000
  Fe  Fe19      1.0  0.07559  0.77330  0.24473  1.0000
  S   S40       1.0  0.14237  0.79354  0.24264  1.0000
  H   H196      1.0  0.09251  0.71355  0.07158  1.0000
  C   C120      1.0  0.18789  0.80973  0.28052  1.0000
  C   C121      1.0  0.18471  0.81563  0.31919  1.0000
  C   C122      1.0  0.22073  0.82931  0.34735  1.0000
  C   C123      1.0  0.26088  0.83709  0.33769  1.0000
  C   C124      1.0  0.26458  0.83071  0.29939  1.0000
  C   C125      1.0  0.22823  0.81730  0.27099  1.0000
  H   H197      1.0  0.15398  0.81012  0.32708  1.0000
  H   H198      1.0  0.21719  0.83413  0.37673  1.0000
  H   H199      1.0  0.29501  0.83651  0.29130  1.0000
  H   H200      1.0  0.23124  0.81299  0.24123  1.0000
  H   H201      1.0  0.26139  0.76394  0.19480  1.0000
  H   H202      1.0  0.04560  0.67912  0.47857  1.0000
  C   C126      1.0  0.23604  0.74934  0.17989  1.0000
  H   H203      1.0  0.08903  0.78267  0.15241  1.0000
  H   H204      1.0  0.13106  0.70404  0.21165  1.0000
  H   H205      1.0  0.13661  0.69073  0.08155  1.0000
  H   H206      1.0  0.17850  0.70505  0.19226  1.0000
  C   C127      1.0  0.09678  0.78374  0.12309  1.0000
  H   H207      1.0  0.04815  0.68415  0.33480  1.0000
  H   H208      1.0  0.16069  0.69274  0.43210  1.0000
  H   H209      1.0  0.18035  0.77360  0.18073  1.0000
  S   S41       1.0  0.02323  0.78163  0.27799  1.0000
  S   S42       1.0  0.03506  0.73330  0.36230  1.0000
  C   C128      1.0  0.04146  0.70436  0.38624  1.0000
  H   H210      1.0  0.37638  0.75293  0.45216  1.0000
  H   H211      1.0  0.44532  0.79934  0.41299  1.0000
  C   C129      1.0  0.10888  0.75875  0.10850  1.0000
  C   C130      1.0  0.01233  0.68486  0.11972  1.0000
  S   S43       1.0  0.02759  0.69055  0.17340  1.0000
  Fe  Fe20      1.0  0.02578  0.72568  0.20866  1.0000
  H   H212      1.0  0.07524  0.74835  0.09791  1.0000
  H   H213      1.0  0.06488  0.79109  0.09984  1.0000
  H   H214      1.0  0.03583  0.71898  0.44273  1.0000
  C   C131      1.0  0.15537  0.71682  0.20336  1.0000
  C   C132      1.0  0.12617  0.73520  0.17161  1.0000
  H   H215      1.0  0.37940  0.81934  0.42537  1.0000
  H   H216      1.0  0.11933  0.75061  0.18978  1.0000
  H   H217      1.0  0.23513  0.73664  0.20442  1.0000
  C   C133      1.0  0.04760  0.68317  0.36609  1.0000
  C   C134      1.0  0.12183  0.70529  0.09623  1.0000
  H   H218      1.0  0.17393  0.73141  0.09201  1.0000
  H   H219      1.0  0.25485  0.78984  0.44485  1.0000
  C   C135      1.0  0.16081  0.72391  0.11649  1.0000
  N   N10       1.0  0.35559  0.79050  0.45718  1.0000
  H   H220      1.0  0.25059  0.74020  0.15777  1.0000
  H   H221      1.0  0.19077  0.71330  0.13623  1.0000
  Fe  Fe21      1.0  0.03093  0.74196  0.29609  1.0000
  H   H222      1.0  0.10812  0.69629  0.11901  1.0000
  H   H223      1.0  0.17648  0.72633  0.23177  1.0000
  H   H224      1.0  0.09056  0.72720  0.15740  1.0000
  S   S44       1.0  0.01791  0.76396  0.18515  1.0000
  H   H225      1.0  0.19396  0.77299  0.13400  1.0000
  C   C136      1.0  0.31378  0.78732  0.41910  1.0000
  C   C137      1.0  0.04642  0.68014  0.44737  1.0000
  H   H226      1.0  0.98783  0.71288  0.02683  1.0000
  H   H227      1.0  0.32233  0.77472  0.39717  1.0000
  H   H228      1.0  0.00199  0.72221  0.10068  1.0000
  H   H229      1.0  0.16589  0.72195  0.45433  1.0000
  C   C138      1.0  0.32250  0.83081  0.47475  1.0000
  C   C139      1.0  0.39376  0.80327  0.44499  1.0000
  C   C140      1.0  0.01242  0.66075  0.10604  1.0000
  C   C141      1.0  0.00245  0.70359  0.09073  1.0000
  C   C142      1.0  0.37124  0.76584  0.47534  1.0000
  C   C143      1.0  0.26829  0.77759  0.42551  1.0000
  C   C144      1.0  0.99498  0.67410  0.03526  1.0000
  H   H230      1.0  0.12543  0.79717  0.12637  1.0000
  C   C145      1.0  0.41938  0.78774  0.42131  1.0000
  H   H231      1.0  0.39484  0.78040  0.39240  1.0000
  H   H232      1.0  0.42088  0.81108  0.47198  1.0000
  C   C146      1.0  0.05280  0.65897  0.42725  1.0000
  H   H233      1.0  0.30472  0.80471  0.40209  1.0000
  H   H234      1.0  0.13690  0.69898  0.47322  1.0000
  H   H235      1.0  0.24041  0.77665  0.39516  1.0000
  H   H236      1.0  0.43988  0.77283  0.44037  1.0000
  H   H237      1.0  0.28864  0.82973  0.44952  1.0000
  H   H238      1.0  0.23771  0.69092  0.47297  1.0000
  C   C147      1.0  0.99429  0.69823  0.04884  1.0000
  H   H239      1.0  0.34736  0.84236  0.46508  1.0000
  Fe  Fe22      1.0  0.46858  0.88539  0.36488  1.0000
  C   C148      1.0  0.05311  0.66061  0.38649  1.0000
  H   H240      1.0  0.34312  0.75710  0.48520  1.0000
  C   C149      1.0  0.34346  0.80558  0.48903  1.0000
  H   H241      1.0  0.46608  0.76049  0.84800  1.0000
  H   H242      1.0  0.43370  0.74777  0.51566  1.0000
  C   C150      1.0  0.45831  0.96610  0.90861  1.0000
  H   H243      1.0  0.23516  0.66036  0.66634  1.0000
  S   S45       1.0  0.39227  0.69815  0.71817  1.0000
  H   H244      1.0  0.37535  0.80878  0.51596  1.0000
  C   C151      1.0  0.36798  0.74842  0.78902  1.0000
  C   C152      1.0  0.15915  0.69769  0.55369  1.0000
  Fe  Fe23      1.0  0.46684  0.71314  0.72608  1.0000
  C   C153      1.0  0.35360  0.73274  0.87800  1.0000
  H   H245      1.0  0.23333  0.69975  0.57614  1.0000
  H   H246      1.0  0.46458  0.88859  0.95618  1.0000
  C   C154      1.0  0.39759  0.71820  0.87816  1.0000
  H   H247      1.0  0.30623  0.69993  0.54389  1.0000
  H   H248      1.0  0.40611  0.76833  0.54225  1.0000
  H   H249      1.0  0.44643  0.90101  0.84210  1.0000
  H   H250      1.0  0.44527  0.91717  0.96930  1.0000
  H   H251      1.0  0.15532  0.70191  0.58410  1.0000
  H   H252      1.0  0.43830  0.88303  0.54830  1.0000
  H   H253      1.0  0.34188  0.75229  0.80476  1.0000
  H   H254      1.0  0.43849  0.82604  0.59572  1.0000
  N   N11       1.0  0.42714  0.72839  0.85377  1.0000
  H   H255      1.0  0.34536  0.72884  0.90671  1.0000
  C   C155      1.0  0.35147  0.67636  0.68790  1.0000
  H   H256      1.0  0.31546  0.84026  0.50075  1.0000
  H   H257      1.0  0.44622  0.68511  0.81278  1.0000
  H   H258      1.0  0.45273  0.96028  0.93758  1.0000
  C   C156      1.0  0.30449  0.67683  0.68812  1.0000
  C   C157      1.0  0.46769  0.89450  0.56719  1.0000
  H   H259      1.0  0.32277  0.72743  0.85150  1.0000
  C   C158      1.0  0.20732  0.68563  0.56045  1.0000
  C   C159      1.0  0.30644  0.68260  0.56031  1.0000
  H   H260      1.0  0.38422  0.69984  0.86656  1.0000
  H   H261      1.0  0.43737  0.93383  0.87313  1.0000
  C   C160      1.0  0.40103  0.72717  0.80833  1.0000
  H   H262      1.0  0.29397  0.69051  0.70607  1.0000
  C   C161      1.0  0.26625  0.66532  0.53676  1.0000
  H   H263      1.0  0.41394  0.76714  0.85858  1.0000
  H   H264      1.0  0.12919  0.68577  0.53769  1.0000
  H   H265      1.0  0.42508  0.97470  0.88956  1.0000
  C   C162      1.0  0.44343  0.75405  0.86612  1.0000
  H   H266      1.0  0.34816  0.74361  0.75673  1.0000
  H   H267      1.0  0.42646  0.72636  0.79078  1.0000
  H   H268      1.0  0.37987  0.71015  0.80037  1.0000
  C   C163      1.0  0.46604  0.81857  0.58520  1.0000
  H   H269      1.0  0.35838  0.75264  0.87816  1.0000
  H   H270      1.0  0.30572  0.68629  0.59186  1.0000
  C   C164      1.0  0.27095  0.65971  0.66558  1.0000
  H   H271      1.0  0.45041  0.84199  0.53208  1.0000
  S   S46       1.0  0.98814  0.66864  0.98259  1.0000
  H   H272      1.0  0.43141  0.90835  0.91687  1.0000
  H   H273      1.0  0.21073  0.67079  0.58326  1.0000
  C   C165      1.0  0.45925  0.90797  0.94679  1.0000
  H   H274      1.0  0.44161  0.67573  0.86201  1.0000
  H   H275      1.0  0.41898  0.71471  0.91061  1.0000
  H   H276      1.0  0.14646  0.66144  0.49450  1.0000
  N   N12       1.0  0.21723  0.67595  0.52292  1.0000
  H   H277      1.0  0.15674  0.71526  0.53738  1.0000
  S   S47       1.0  0.47081  0.75317  0.74121  1.0000
  H   H278      1.0  0.38832  0.76512  0.78773  1.0000
  C   C166      1.0  0.47064  0.71282  0.86203  1.0000
  H   H279      1.0  0.44190  0.77925  0.51276  1.0000
  C   C167      1.0  0.41545  0.76549  0.51374  1.0000
  H   H280      1.0  0.45258  0.91282  0.56803  1.0000
  H   H281      1.0  0.31866  0.79574  0.50169  1.0000
  H   H282      1.0  0.23104  0.71298  0.50867  1.0000
  C   C168      1.0  0.46263  0.68628  0.84655  1.0000
  H   H283      1.0  0.34071  0.67361  0.56403  1.0000
  C   C169      1.0  0.36442  0.65842  0.66466  1.0000
  H   H284      1.0  0.45057  0.75208  0.93217  1.0000
  C   C170      1.0  0.47084  0.75798  0.91192  1.0000
  H   H285      1.0  0.46843  0.88078  0.88610  1.0000
  H   H286      1.0  0.40035  0.65763  0.66427  1.0000
  C   C171      1.0  0.47293  0.82779  0.54927  1.0000
  C   C172      1.0  0.47011  0.94452  0.88491  1.0000
  H   H287      1.0  0.27618  0.65857  0.51013  1.0000
  C   C173      1.0  0.21558  0.69594  0.49239  1.0000
  Fe  Fe24      1.0  0.56809  0.27228  0.23457  1.0000
  H   H288      1.0  0.52870  0.02339  0.38436  1.0000
  N   N13       1.0  0.51254  0.05590  0.41275  1.0000
  Fe  Fe25      1.0  0.53288  0.23887  0.28962  1.0000
  S   S48       1.0  0.55861  0.22892  0.35770  1.0000
  S   S49       1.0  0.57340  0.23179  0.24567  1.0000
  S   S50       1.0  0.53503  0.13404  0.45652  1.0000
  H   H289      1.0  0.52156  0.11554  0.11412  1.0000
  C   C174      1.0  0.51261  0.19953  0.08817  1.0000
  C   C175      1.0  0.52579  0.18216  0.36417  1.0000
  H   H290      1.0  0.60035  0.05699  0.47588  1.0000
  H   H291      1.0  0.50134  0.07605  0.02147  1.0000
  H   H292      1.0  0.88248  0.26664  0.48192  1.0000
  H   H293      1.0  0.63411  0.06805  0.44523  1.0000
  H   H294      1.0  0.51806  0.04021  0.09342  1.0000
  H   H295      1.0  0.51688  0.08255  0.46007  1.0000
  H   H296      1.0  0.55993  0.08654  0.41721  1.0000
  C   C176      1.0  0.55364  0.20174  0.38392  1.0000
  C   C177      1.0  0.51818  0.19085  0.05131  1.0000
  C   C178      1.0  0.52060  0.16163  0.38691  1.0000
  C   C179      1.0  0.54383  0.16018  0.42943  1.0000
  C   C180      1.0  0.57215  0.17963  0.44907  1.0000
  C   C181      1.0  0.57673  0.20034  0.42645  1.0000
  H   H297      1.0  0.59818  0.21543  0.44206  1.0000
  H   H298      1.0  0.53373  0.21459  0.10432  1.0000
  S   S51       1.0  0.53107  0.27941  0.28055  1.0000
  N   N14       1.0  0.55033  0.09414  0.07448  1.0000
  C   C182      1.0  0.58699  0.09802  0.05344  1.0000
  S   S52       1.0  0.50005  0.26948  0.18114  1.0000
  H   H299      1.0  0.56396  0.06376  0.38175  1.0000
  C   C183      1.0  0.60342  0.05653  0.44468  1.0000
  C   C184      1.0  0.55899  0.06651  0.41226  1.0000
  H   H300      1.0  0.62132  0.13142  0.11874  1.0000
  Fe  Fe26      1.0  0.50256  0.22945  0.19613  1.0000
  H   H301      1.0  0.71556  0.27962  0.38933  1.0000
  C   C185      1.0  0.67180  0.31262  0.27193  1.0000
  C   C186      1.0  0.73093  0.26576  0.37389  1.0000
  H   H302      1.0  0.83559  0.27849  0.31789  1.0000
  H   H303      1.0  0.90955  0.27812  0.44562  1.0000
  H   H304      1.0  0.81543  0.25186  0.43299  1.0000
  H   H305      1.0  0.71945  0.31805  0.23702  1.0000
  S   S53       1.0  0.63171  0.29493  0.23249  1.0000
  C   C187      1.0  0.56289  0.07297  0.10387  1.0000
  N   N15       1.0  0.81571  0.28354  0.39602  1.0000
  H   H306      1.0  0.48818  0.22744  0.45753  1.0000
  H   H307      1.0  0.61136  0.06100  0.04648  1.0000
  H   H308      1.0  0.54376  0.19938  0.03944  1.0000
  H   H309      1.0  0.90758  0.24672  0.45288  1.0000
  H   H310      1.0  0.82848  0.31380  0.36103  1.0000
  H   H311      1.0  0.50047  0.10156  0.36521  1.0000
  H   H312      1.0  0.88944  0.29483  0.33636  1.0000
  H   H313      1.0  0.47912  0.99420  0.40382  1.0000
  H   H314      1.0  0.49518  0.10764  0.02176  1.0000
  H   H315      1.0  0.58673  0.13956  0.15014  1.0000
  C   C188      1.0  0.50273  0.09149  0.04237  1.0000
  H   H316      1.0  0.87893  0.30453  0.40048  1.0000
  C   C189      1.0  0.88689  0.26362  0.45140  1.0000
  C   C190      1.0  0.80018  0.29993  0.42461  1.0000
  H   H317      1.0  0.50793  0.18291  0.33149  1.0000
  H   H318      1.0  0.75837  0.29161  0.34059  1.0000
  H   H319      1.0  0.52590  0.05248  0.47819  1.0000
  C   C191      1.0  0.83744  0.31703  0.45278  1.0000
  H   H320      1.0  0.49452  0.24777  0.39606  1.0000
  H   H321      1.0  0.78112  0.26187  0.34176  1.0000
  H   H322      1.0  0.60145  0.07280  0.12027  1.0000
  H   H323      1.0  0.62099  0.08283  0.01185  1.0000
  H   H324      1.0  0.78502  0.28909  0.44473  1.0000
  C   C192      1.0  0.84710  0.29735  0.37708  1.0000
  H   H325      1.0  0.60947  0.10939  0.15373  1.0000
  H   H326      1.0  0.70234  0.26035  0.34564  1.0000
  H   H327      1.0  0.62205  0.10166  0.07615  1.0000
  H   H328      1.0  0.88434  0.26655  0.35990  1.0000
  H   H329      1.0  0.57813  0.11439  0.03326  1.0000
  H   H330      1.0  0.53829  0.13281  0.07728  1.0000
  C   C193      1.0  0.86467  0.28311  0.34614  1.0000
  C   C194      1.0  0.59538  0.07686  0.02726  1.0000
  H   H331      1.0  0.86887  0.30741  0.47198  1.0000
  H   H332      1.0  0.54256  0.02142  0.43857  1.0000
  C   C195      1.0  0.77247  0.27601  0.36139  1.0000
  C   C196      1.0  0.59459  0.12435  0.13199  1.0000
  H   H333      1.0  0.74072  0.24934  0.39329  1.0000
  C   C197      1.0  0.54899  0.04723  0.08566  1.0000
  C   C198      1.0  0.47533  0.06507  0.37491  1.0000
  C   C199      1.0  0.51610  0.02861  0.41045  1.0000
  H   H334      1.0  0.54189  0.04566  0.05233  1.0000
  H   H335      1.0  0.57804  0.03435  0.10002  1.0000
  C   C200      1.0  0.83871  0.26084  0.41775  1.0000
  H   H336      1.0  0.84246  0.24681  0.39563  1.0000
  H   H337      1.0  0.48266  0.05857  0.34681  1.0000
  C   C201      1.0  0.54866  0.11701  0.09836  1.0000
  H   H338      1.0  0.77142  0.31216  0.40676  1.0000
  C   C202      1.0  0.71264  0.32202  0.26546  1.0000
  C   C203      1.0  0.66352  0.31806  0.30884  1.0000
  H   H339      1.0  0.49840  0.14678  0.37140  1.0000
  H   H340      1.0  0.50423  0.32318  0.21430  1.0000
  H   H341      1.0  0.61164  0.03777  0.43728  1.0000
  H   H342      1.0  0.54581  0.07518  0.12814  1.0000
  C   C204      1.0  0.50428  0.06359  0.45211  1.0000
  C   C205      1.0  0.49137  0.17116  0.02997  1.0000
  C   C206      1.0  0.48024  0.18849  0.10429  1.0000
  H   H343      1.0  0.47771  0.29085  0.37685  1.0000
  H   H344      1.0  0.63236  0.31104  0.31442  1.0000
  H   H345      1.0  0.59004  0.17884  0.48175  1.0000
  H   H346      1.0  0.54160  0.31531  0.16734  1.0000
  H   H347      1.0  0.56322  0.07135  0.00257  1.0000
  C   C207      1.0  0.56003  0.99939  0.99719  1.0000
  H   H348      1.0  0.47381  0.20755  0.41480  1.0000
  H   H349      1.0  0.59459  0.00067  0.99368  1.0000
  H   H350      1.0  0.53577  0.03318  0.96515  1.0000
  H   H351      1.0  0.82913  0.28023  0.53809  1.0000
  C   C208      1.0  0.84778  0.26737  0.56272  1.0000
  H   H352      1.0  0.49767  0.02594  0.54128  1.0000
  S   S54       1.0  0.89330  0.20039  0.73414  1.0000
  C   C209      1.0  0.81659  0.24482  0.56108  1.0000
  Fe  Fe27      1.0  0.57260  0.12262  0.52298  1.0000
  S   S55       1.0  0.63473  0.09776  0.53508  1.0000
  Fe  Fe28      1.0  0.56898  0.11553  0.61088  1.0000
  S   S56       1.0  0.63083  0.08982  0.62771  1.0000
  H   H353      1.0  0.88154  0.26268  0.55778  1.0000
  Fe  Fe29      1.0  0.66441  0.11699  0.59596  1.0000
  S   S57       1.0  0.74384  0.12621  0.61722  1.0000
  Fe  Fe30      1.0  0.59603  0.07269  0.56529  1.0000
  S   S58       1.0  0.59802  0.03197  0.54908  1.0000
  S   S59       1.0  0.60424  0.14350  0.58182  1.0000
  S   S60       1.0  0.53232  0.09678  0.55070  1.0000
  C   C210      1.0  0.55475  0.00934  0.52583  1.0000
  H   H354      1.0  0.78477  0.10032  0.75791  1.0000
  C   C211      1.0  0.85227  0.18033  0.69972  1.0000
  C   C212      1.0  0.86641  0.16150  0.67884  1.0000
  C   C213      1.0  0.83273  0.14532  0.65365  1.0000
  C   C214      1.0  0.78435  0.14786  0.64835  1.0000
  C   C215      1.0  0.77012  0.16713  0.66824  1.0000
  C   C216      1.0  0.80387  0.18291  0.69431  1.0000
  H   H355      1.0  0.90343  0.15896  0.68302  1.0000
  H   H356      1.0  0.84436  0.13053  0.63849  1.0000
  H   H357      1.0  0.73316  0.16974  0.66392  1.0000
  H   H358      1.0  0.79238  0.19732  0.71031  1.0000
  H   H359      1.0  0.79755  0.18407  0.53757  1.0000
  C   C217      1.0  0.52863  0.09504  0.70954  1.0000
  H   H360      1.0  0.75286  0.20748  0.52840  1.0000
  H   H361      1.0  0.54247  0.08291  0.69141  1.0000
  H   H362      1.0  0.74934  0.18087  0.55701  1.0000
  H   H363      1.0  0.78350  0.25107  0.56602  1.0000
  H   H364      1.0  0.49487  0.15362  0.71302  1.0000
  S   S61       1.0  0.48875  0.08945  0.81224  1.0000
  H   H365      1.0  0.86093  0.20877  0.54068  1.0000
  H   H366      1.0  0.92357  0.18201  0.58187  1.0000
  S   S62       1.0  0.49971  0.09677  0.92824  1.0000
  C   C218      1.0  0.50073  0.10176  0.76866  1.0000
  H   H367      1.0  0.70187  0.12004  0.68689  1.0000
  H   H368      1.0  0.80526  0.23835  0.52872  1.0000
  N   N16       1.0  0.83914  0.22445  0.58990  1.0000
  C   C219      1.0  0.87536  0.21245  0.57418  1.0000
  C   C220      1.0  0.80148  0.20678  0.59184  1.0000
  C   C221      1.0  0.86355  0.23371  0.63262  1.0000
  C   C222      1.0  0.89618  0.18833  0.59501  1.0000
  C   C223      1.0  0.77420  0.19430  0.55105  1.0000
  C   C224      1.0  0.83260  0.24752  0.65367  1.0000
  H   H369      1.0  0.47876  0.13825  0.77533  1.0000
  H   H370      1.0  0.90585  0.22486  0.57777  1.0000
  H   H371      1.0  0.77479  0.21589  0.60315  1.0000
  H   H372      1.0  0.87924  0.21845  0.65344  1.0000
  H   H373      1.0  0.89469  0.24506  0.63403  1.0000
  C   C225      1.0  0.50835  0.01067  0.52649  1.0000
  S   S63       1.0  0.53112  0.13140  0.65374  1.0000
  H   H374      1.0  0.91369  0.19043  0.62841  1.0000
  C   C226      1.0  0.49226  0.12609  0.75705  1.0000
  C   C227      1.0  0.50163  0.13476  0.72176  1.0000
  C   C228      1.0  0.52673  0.01794  0.98103  1.0000
  H   H375      1.0  0.81828  0.23485  0.67192  1.0000
  H   H376      1.0  0.80302  0.25744  0.63214  1.0000
  H   H377      1.0  0.85431  0.26149  0.67464  1.0000
  N   N17       1.0  0.69276  0.12077  0.74720  1.0000
  C   C229      1.0  0.64677  0.13314  0.72495  1.0000
  C   C230      1.0  0.68118  0.09484  0.75474  1.0000
  C   C231      1.0  0.72351  0.12161  0.71977  1.0000
  C   C232      1.0  0.71537  0.13448  0.78651  1.0000
  C   C233      1.0  0.65030  0.15870  0.70759  1.0000
  C   C234      1.0  0.65203  0.09146  0.78421  1.0000
  C   C235      1.0  0.76164  0.10189  0.72588  1.0000
  C   C236      1.0  0.76106  0.12379  0.81601  1.0000
  H   H378      1.0  0.62595  0.12183  0.69858  1.0000
  H   H379      1.0  0.62434  0.13525  0.74507  1.0000
  H   H380      1.0  0.71313  0.08364  0.76752  1.0000
  H   H381      1.0  0.66171  0.08583  0.72514  1.0000
  H   H382      1.0  0.72484  0.15321  0.77983  1.0000
  H   H383      1.0  0.69023  0.13760  0.80394  1.0000
  H   H384      1.0  0.61413  0.16595  0.69369  1.0000
  H   H385      1.0  0.66629  0.15814  0.68263  1.0000
  H   H386      1.0  0.61731  0.10046  0.77313  1.0000
  H   H387      1.0  0.64494  0.07178  0.78652  1.0000
  H   H388      1.0  0.67135  0.09790  0.81563  1.0000
  H   H389      1.0  0.78449  0.10661  0.70702  1.0000
  H   H390      1.0  0.74560  0.08397  0.71460  1.0000
  H   H391      1.0  0.79220  0.13015  0.80785  1.0000
  H   H392      1.0  0.76110  0.10375  0.81750  1.0000
  H   H393      1.0  0.76494  0.12985  0.84776  1.0000
  C   C237      1.0  0.94170  0.31304  0.56947  1.0000
  H   H394      1.0  0.86945  0.17367  0.58945  1.0000
  H   H395      1.0  0.85500  0.27727  0.59222  1.0000
  H   H396      1.0  0.52545  0.06744  0.75323  1.0000
  C   C238      1.0  0.51888  0.08632  0.74464  1.0000
  H   H397      1.0  0.74164  0.13949  0.72257  1.0000
  C   C239      1.0  0.48208  0.01683  0.98586  1.0000
  H   H398      1.0  0.81641  0.19235  0.61469  1.0000
  H   H399      1.0  0.66942  0.17180  0.73155  1.0000
  C   C240      1.0  0.51993  0.11934  0.69782  1.0000
  Fe  Fe31      1.0  0.96505  0.21699  0.73654  1.0000
  S   S64       1.0  0.50138  0.16035  0.98464  1.0000
  S   S65       1.0  0.96165  0.25792  0.73430  1.0000
  C   C241      1.0  0.97193  0.29444  0.59054  1.0000
  S   S66       1.0  0.96100  0.28072  0.63360  1.0000
  C   C242      1.0  0.47598  0.99183  0.50912  1.0000
  H   H400      1.0  0.94426  0.31599  0.69200  1.0000
  H   H401      1.0  0.93206  0.32066  0.73880  1.0000
  H   H402      1.0  0.91319  0.31892  0.58019  1.0000
  Fe  Fe32      1.0  0.92733  0.41394  0.41877  1.0000
  C   C243      1.0  0.96836  0.37832  0.21283  1.0000
  H   H403      1.0  0.60258  0.34606  0.21027  1.0000
  Fe  Fe33      1.0  0.85205  0.37338  0.38108  1.0000
  H   H404      1.0  0.62978  0.37605  0.25560  1.0000
  S   S67       1.0  0.77614  0.36005  0.37156  1.0000
  H   H405      1.0  0.95652  0.50280  0.09276  1.0000
  H   H406      1.0  0.84821  0.33143  0.43497  1.0000
  S   S68       1.0  0.90658  0.34916  0.36962  1.0000
  S   S69       1.0  0.89694  0.38291  0.44577  1.0000
  S   S70       1.0  0.87706  0.40637  0.35512  1.0000
  H   H407      1.0  0.94106  0.41787  0.08166  1.0000
  S   S71       1.0  0.93803  0.38084  0.28053  1.0000
  H   H408      1.0  0.68836  0.33714  0.36675  1.0000
  H   H409      1.0  0.58566  0.32605  0.14699  1.0000
  Fe  Fe34      1.0  0.95246  0.35995  0.43287  1.0000
  C   C244      1.0  0.56877  0.35209  0.18781  1.0000
  S   S72       1.0  0.93142  0.45360  0.44268  1.0000
  C   C245      1.0  0.60046  0.37749  0.26872  1.0000
  H   H410      1.0  0.55658  0.39611  0.21511  1.0000
  H   H411      1.0  0.56184  0.32784  0.24827  1.0000
  C   C246      1.0  0.52743  0.33710  0.23442  1.0000
  C   C247      1.0  0.73651  0.34212  0.33220  1.0000
  C   C248      1.0  0.69540  0.33290  0.33851  1.0000
  H   H412      1.0  0.57771  0.36828  0.17220  1.0000
  H   H413      1.0  0.60803  0.39371  0.28905  1.0000
  C   C249      1.0  0.74500  0.33647  0.29547  1.0000
  C   C250      1.0  0.55250  0.38084  0.23502  1.0000
  H   H414      1.0  0.52792  0.38804  0.25031  1.0000
  Fe  Fe35      1.0  0.93430  0.38238  0.34643  1.0000
  N   N18       1.0  0.53347  0.35861  0.20932  1.0000
  H   H415      1.0  0.93182  0.37462  0.19620  1.0000
  H   H416      1.0  0.93527  0.45005  0.08170  1.0000
  H   H417      1.0  0.77630  0.34343  0.28998  1.0000
  H   H418      1.0  0.96184  0.56160  0.44531  1.0000
  H   H419      1.0  0.60098  0.36147  0.28831  1.0000
  C   C251      1.0  0.96141  0.43514  0.08769  1.0000
  C   C252      1.0  0.55431  0.33167  0.15543  1.0000
  H   H420      1.0  0.92515  0.50294  0.46790  1.0000
  H   H421      1.0  0.49328  0.37956  0.15666  1.0000
  C   C253      1.0  0.50778  0.34218  0.27030  1.0000
  H   H422      1.0  0.53576  0.33970  0.30022  1.0000
  H   H423      1.0  0.49111  0.36004  0.27006  1.0000
  C   C254      1.0  0.96148  0.49754  0.48139  1.0000
  H   H424      1.0  0.48028  0.32849  0.26964  1.0000
  H   H425      1.0  0.96941  0.47840  0.14912  1.0000
  H   H426      1.0  0.52757  0.33793  0.12682  1.0000
  H   H427      1.0  0.96861  0.43462  0.15088  1.0000
  C   C255      1.0  0.48770  0.36477  0.17679  1.0000
  H   H428      1.0  0.82181  0.32661  0.47380  1.0000
  H   H429      1.0  0.47401  0.34888  0.15644  1.0000
  H   H430      1.0  0.79055  0.50860  0.93626  1.0000
  H   H431      1.0  0.74881  0.57337  0.92094  1.0000
  S   S73       1.0  0.90971  0.58464  0.86066  1.0000
  C   C256      1.0  0.75340  0.64576  0.82471  1.0000
  H   H432      1.0  0.79893  0.58662  0.91244  1.0000
  S   S74       1.0  0.90637  0.61019  0.94508  1.0000
  Fe  Fe36      1.0  0.94627  0.57901  0.92852  1.0000
  H   H433      1.0  0.93513  0.49093  0.97849  1.0000
  Fe  Fe37      1.0  0.87497  0.61787  0.87742  1.0000
  S   S75       1.0  0.79635  0.62777  0.86142  1.0000
  H   H434      1.0  0.79859  0.57583  0.84565  1.0000
  S   S76       1.0  0.93352  0.64298  0.87557  1.0000
  H   H435      1.0  0.83166  0.52799  0.83346  1.0000
  H   H436      1.0  0.93929  0.55426  0.65983  1.0000
  H   H437      1.0  0.72204  0.59112  0.85714  1.0000
  H   H438      1.0  0.69240  0.56523  0.82718  1.0000
  C   C257      1.0  0.81552  0.56349  0.96431  1.0000
  H   H439      1.0  0.80972  0.57776  0.98508  1.0000
  C   C258      1.0  0.77010  0.56297  0.84651  1.0000
  S   S77       1.0  0.94480  0.54080  0.95667  1.0000
  C   C259      1.0  0.72348  0.57738  0.83398  1.0000
  H   H440      1.0  0.94677  0.62654  0.75169  1.0000
  H   H441      1.0  0.92498  0.33880  0.51923  1.0000
  H   H442      1.0  0.93080  0.54281  0.58713  1.0000
  H   H443      1.0  0.73771  0.52020  0.85706  1.0000
  C   C260      1.0  0.94818  0.32433  0.53478  1.0000
  H   H444      1.0  0.72046  0.58759  0.80535  1.0000
  N   N19       1.0  0.78287  0.55022  0.88748  1.0000
  H   H445      1.0  0.87089  0.51183  0.87499  1.0000
  C   C261      1.0  0.83079  0.53909  0.89501  1.0000
  C   C262      1.0  0.78476  0.56913  0.91995  1.0000
  C   C263      1.0  0.74546  0.53147  0.88536  1.0000
  C   C264      1.0  0.83503  0.51985  0.86375  1.0000
  H   H446      1.0  0.95450  0.56305  0.55775  1.0000
  H   H447      1.0  0.84412  0.53034  0.92548  1.0000
  C   C265      1.0  0.75360  0.51430  0.92237  1.0000
  H   H448      1.0  0.76677  0.54985  0.82113  1.0000
  H   H449      1.0  0.85356  0.56417  0.96737  1.0000
  H   H450      1.0  0.80724  0.54581  0.97557  1.0000
  H   H451      1.0  0.85694  0.55361  0.89594  1.0000
  H   H452      1.0  0.80961  0.50476  0.86050  1.0000
  H   H453      1.0  0.73406  0.49708  0.91187  1.0000
  H   H454      1.0  0.71126  0.54051  0.88202  1.0000
  H   H455      1.0  0.70244  0.64179  0.85676  1.0000
  H   H456      1.0  0.95168  0.55669  0.73074  1.0000
  Fe  Fe38      1.0  0.97064  0.60954  0.86321  1.0000
  H   H457      1.0  0.95304  0.51469  0.64694  1.0000
  C   C266      1.0  0.95344  0.55900  0.58908  1.0000
  H   H458      1.0  0.93702  0.57493  0.59904  1.0000
  H   H459      1.0  0.94744  0.63513  0.68079  1.0000
  Fe  Fe39      1.0  0.96598  0.63430  0.94293  1.0000
  C   C267      1.0  0.70949  0.64978  0.83057  1.0000
  H   H460      1.0  0.74062  0.52258  0.94623  1.0000
  H   H461      1.0  0.94225  0.34647  0.71108  1.0000
  H   H462      1.0  0.79503  0.65337  0.78535  1.0000
  C   C268      1.0  0.76170  0.65629  0.79059  1.0000
  C   C269      1.0  0.97220  0.49399  0.98362  1.0000
  C   C270      1.0  0.95331  0.32755  0.71986  1.0000
  Fe  Fe40      1.0  0.59458  0.91639  0.05945  1.0000
  S   S78       1.0  0.53316  0.89067  0.04566  1.0000
  S   S79       1.0  0.59269  0.95609  0.03660  1.0000
  Fe  Fe41      1.0  0.66570  0.87426  0.09689  1.0000
  S   S80       1.0  0.60775  0.84626  0.08293  1.0000
  S   S81       1.0  0.74483  0.86885  0.13113  1.0000
  Fe  Fe42      1.0  0.57732  0.86500  0.02182  1.0000
  Fe  Fe43      1.0  0.56871  0.87433  0.10798  1.0000
  S   S82       1.0  0.52997  0.85958  0.15095  1.0000
  S   S83       1.0  0.63795  0.89117  0.03405  1.0000
  S   S84       1.0  0.62755  0.90176  0.12383  1.0000
  C   C271      1.0  0.49276  0.86453  0.25523  1.0000
  C   C272      1.0  0.92988  0.79276  0.32867  1.0000
  S   S85       1.0  0.88755  0.77948  0.19419  1.0000
  H   H463      1.0  0.95407  0.75866  0.31266  1.0000
  H   H464      1.0  0.73185  0.85416  0.29269  1.0000
  H   H465      1.0  0.70998  0.88698  0.19582  1.0000
  C   C273      1.0  0.52186  0.87118  0.19674  1.0000
  C   C274      1.0  0.53530  0.90126  0.25132  1.0000
  C   C275      1.0  0.54024  0.89358  0.21368  1.0000
  H   H466      1.0  0.54981  0.91859  0.26418  1.0000
  H   H467      1.0  0.55817  0.90503  0.19778  1.0000
  C   C276      1.0  0.78377  0.84361  0.14798  1.0000
  C   C277      1.0  0.76814  0.81947  0.14334  1.0000
  C   C278      1.0  0.80037  0.80024  0.15787  1.0000
  C   C279      1.0  0.84880  0.80473  0.17671  1.0000
  C   C280      1.0  0.86437  0.82886  0.18154  1.0000
  C   C281      1.0  0.83205  0.84811  0.16746  1.0000
  H   H468      1.0  0.73135  0.81561  0.12815  1.0000
  H   H469      1.0  0.78778  0.78168  0.15376  1.0000
  H   H470      1.0  0.90134  0.83274  0.19597  1.0000
  H   H471      1.0  0.84469  0.86666  0.17129  1.0000
  H   H472      1.0  0.81646  0.74479  0.31940  1.0000
  H   H473      1.0  0.61605  0.86681  0.28988  1.0000
  C   C282      1.0  0.86551  0.72224  0.26364  1.0000
  H   H474      1.0  0.82674  0.72281  0.25649  1.0000
  H   H475      1.0  0.76735  0.85653  0.23202  1.0000
  H   H476      1.0  0.79450  0.83639  0.27312  1.0000
  H   H477      1.0  0.49482  0.96232  0.03701  1.0000
  H   H478      1.0  0.66616  0.84792  0.31644  1.0000
  H   H479      1.0  0.69345  0.84857  0.18108  1.0000
  H   H480      1.0  0.67112  0.88429  0.26840  1.0000
  C   C283      1.0  0.84052  0.76009  0.31855  1.0000
  C   C284      1.0  0.50402  0.97771  0.02149  1.0000
  C   C285      1.0  0.81803  0.77389  0.27779  1.0000
  H   H481      1.0  0.69578  0.91184  0.22263  1.0000
  C   C286      1.0  0.91419  0.74970  0.37270  1.0000
  H   H482      1.0  0.91388  0.76778  0.38713  1.0000
  H   H483      1.0  0.90749  0.73580  0.42987  1.0000
  H   H484      1.0  0.83836  0.77276  0.34318  1.0000
  H   H485      1.0  0.66379  0.81038  0.15508  1.0000
  H   H486      1.0  0.71702  0.82367  0.27828  1.0000
  Fe  Fe44      1.0  0.96637  0.76934  0.22042  1.0000
  H   H487      1.0  0.62340  0.80870  0.18355  1.0000
  H   H488      1.0  0.92748  0.71902  0.31676  1.0000
  H   H489      1.0  0.78047  0.77751  0.27413  1.0000
  H   H490      1.0  0.87297  0.71239  0.32470  1.0000
  C   C287      1.0  0.89296  0.73172  0.39655  1.0000
  H   H491      1.0  0.63388  0.88336  0.21664  1.0000
  H   H492      1.0  0.85414  0.73311  0.38777  1.0000
  H   H493      1.0  0.75671  0.82443  0.22609  1.0000
  H   H494      1.0  0.83494  0.79180  0.27753  1.0000
  H   H495      1.0  0.60723  0.83622  0.30190  1.0000
  H   H496      1.0  0.63261  0.85095  0.17232  1.0000
  S   S86       1.0  0.51011  0.89250  0.43134  1.0000
  H   H497      1.0  0.74098  0.89158  0.25004  1.0000
  C   C288      1.0  0.54898  0.97906  0.01740  1.0000
  H   H498      1.0  0.68564  0.80403  0.20903  1.0000
  C   C289      1.0  0.89054  0.72560  0.30991  1.0000
  H   H499      1.0  0.87670  0.73554  0.24446  1.0000
  H   H500      1.0  0.90330  0.76964  0.27600  1.0000
  C   C290      1.0  0.51148  0.88685  0.27235  1.0000
  H   H501      1.0  0.95201  0.74489  0.37977  1.0000
  H   H502      1.0  0.48374  0.83937  0.20502  1.0000
  N   N20       1.0  0.67331  0.85031  0.23662  1.0000
  C   C291      1.0  0.63425  0.83958  0.25031  1.0000
  C   C292      1.0  0.66507  0.84232  0.19293  1.0000
  C   C293      1.0  0.66899  0.87762  0.23736  1.0000
  C   C294      1.0  0.72013  0.84195  0.26547  1.0000
  C   C295      1.0  0.63148  0.84832  0.29217  1.0000
  C   C296      1.0  0.65941  0.81468  0.18524  1.0000
  C   C297      1.0  0.70641  0.89243  0.22564  1.0000
  C   C298      1.0  0.76147  0.83989  0.24773  1.0000
  H   H503      1.0  0.59940  0.84316  0.22721  1.0000
  H   H504      1.0  0.63717  0.81944  0.25248  1.0000
  H   H505      1.0  0.54584  0.95523  0.47381  1.0000
  H   H506      1.0  0.94096  0.80492  0.30757  1.0000
  S   S87       1.0  0.50787  0.89733  0.32038  1.0000
  N   N21       1.0  0.89021  0.75089  0.32689  1.0000
  H   H507      1.0  0.81885  0.76368  0.25033  1.0000
  C   C299      1.0  0.49808  0.85675  0.21776  1.0000
  H   H508      1.0  0.87415  0.70396  0.25431  1.0000
  C   C300      1.0  0.91949  0.76720  0.30938  1.0000
  H   H509      1.0  0.90336  0.71274  0.39269  1.0000
  H   H510      1.0  0.95954  0.79208  0.35787  1.0000
  H   H511      1.0  0.89886  0.80103  0.33440  1.0000
  Fe  Fe45      1.0  0.47688  0.85823  0.44546  1.0000
  C   C301      1.0  0.53520  0.97047  0.48867  1.0000
  C   C302      1.0  0.48900  0.97160  0.48998  1.0000
  H   H512      1.0  0.47444  0.85321  0.27097  1.0000
  H   H513      1.0  0.87770  0.69630  0.00173  1.0000
  S   S88       1.0  0.51862  0.82944  0.49027  1.0000
  H   H514      1.0  0.88964  0.66513  0.99672  1.0000
  S   S89       1.0  0.97188  0.73015  0.24098  1.0000
  Fe  Fe46      1.0  0.57288  0.71247  0.73421  1.0000
  H   H515      1.0  0.56862  0.92027  0.51965  1.0000
  S   S90       1.0  0.63894  0.69193  0.73153  1.0000
  C   C303      1.0  0.56091  0.78415  0.88387  1.0000
  C   C304      1.0  0.88334  0.70829  0.86708  1.0000
  S   S91       1.0  0.58141  0.75276  0.74725  1.0000
  S   S92       1.0  0.54097  0.85214  0.95568  1.0000
  C   C305      1.0  0.55435  0.94565  0.91888  1.0000
  H   H516      1.0  0.51938  0.94173  0.55572  1.0000
  C   C306      1.0  0.60245  0.93334  0.93832  1.0000
  Fe  Fe47      1.0  0.53943  0.74595  0.79007  1.0000
  C   C307      1.0  0.55011  0.82583  0.92895  1.0000
  C   C308      1.0  0.52475  0.82337  0.88695  1.0000
  C   C309      1.0  0.53034  0.80279  0.86443  1.0000
  C   C310      1.0  0.51934  0.90890  0.88211  1.0000
  H   H517      1.0  0.60531  0.85703  0.63151  1.0000
  H   H518      1.0  0.82501  0.74033  0.90400  1.0000
  C   C311      1.0  0.60122  0.88511  0.53218  1.0000
  H   H519      1.0  0.53048  0.91639  0.85649  1.0000
  S   S93       1.0  0.50580  0.71728  0.67996  1.0000
  H   H520      1.0  0.60351  0.92295  0.96606  1.0000
  H   H521      1.0  0.48869  0.87836  0.84317  1.0000
  H   H522      1.0  0.51436  0.93406  0.97195  1.0000
  H   H523      1.0  0.90093  0.68936  0.94136  1.0000
  N   N22       1.0  0.55274  0.90664  0.57277  1.0000
  H   H524      1.0  0.91122  0.69504  0.88213  1.0000
  H   H525      1.0  0.53454  0.90570  0.96151  1.0000
  C   C312      1.0  0.58527  0.90888  0.54722  1.0000
  N   N23       1.0  0.82947  0.70145  0.91229  1.0000
  H   H526      1.0  0.49272  0.90540  0.51769  1.0000
  H   H527      1.0  0.57145  0.87370  0.51421  1.0000
  H   H528      1.0  0.61367  0.89793  0.62472  1.0000
  H   H529      1.0  0.56908  0.85669  0.57964  1.0000
  C   C313      1.0  0.54149  0.93206  0.58353  1.0000
  S   S94       1.0  0.48360  0.78898  0.65267  1.0000
  H   H530      1.0  0.61008  0.93979  0.63053  1.0000
  C   C314      1.0  0.72644  0.67041  0.76269  1.0000
  C   C315      1.0  0.58386  0.94872  0.60426  1.0000
  H   H531      1.0  0.55959  0.89822  0.63580  1.0000
  H   H532      1.0  0.81171  0.71911  0.98184  1.0000
  H   H533      1.0  0.49008  0.71177  0.89541  1.0000
  H   H534      1.0  0.77344  0.69242  0.93785  1.0000
  H   H535      1.0  0.70611  0.70255  0.88308  1.0000
  C   C316      1.0  0.83936  0.72694  0.92916  1.0000
  H   H536      1.0  0.61227  0.92147  0.91625  1.0000
  H   H537      1.0  0.74457  0.72770  0.88445  1.0000
  H   H538      1.0  0.50045  0.83743  0.87172  1.0000
  H   H539      1.0  0.82993  0.67406  0.98472  1.0000
  C   C317      1.0  0.50694  0.91954  0.94822  1.0000
  H   H540      1.0  0.51056  0.80120  0.83221  1.0000
  C   C318      1.0  0.50855  0.81841  0.53543  1.0000
  C   C319      1.0  0.81872  0.73423  0.96351  1.0000
  Fe  Fe48      1.0  0.51199  0.75706  0.69676  1.0000
  H   H541      1.0  0.60094  0.95528  0.58187  1.0000
  H   H542      1.0  0.60060  0.80881  0.98056  1.0000
  C   C320      1.0  0.58095  0.80727  0.94830  1.0000
  H   H543      1.0  0.88131  0.70863  0.83423  1.0000
  C   C321      1.0  0.57580  0.89289  0.61201  1.0000
  C   C322      1.0  0.78027  0.69293  0.90810  1.0000
  S   S95       1.0  0.53315  0.70545  0.77878  1.0000
  C   C323      1.0  0.86449  0.68364  0.93836  1.0000
  H   H544      1.0  0.61854  0.91822  0.56455  1.0000
  C   C324      1.0  0.68268  0.67463  0.76873  1.0000
  H   H545      1.0  0.57112  0.96523  0.61609  1.0000
  H   H546      1.0  0.73623  0.70404  0.84619  1.0000
  C   C325      1.0  0.58605  0.78651  0.92591  1.0000
  S   S96       1.0  0.56646  0.75681  0.85807  1.0000
  C   C326      1.0  0.52970  0.79015  0.59360  1.0000
  H   H547      1.0  0.55176  0.77565  0.61050  1.0000
  H   H548      1.0  0.50570  0.74899  0.92091  1.0000
  H   H549      1.0  0.60961  0.77215  0.94134  1.0000
  H   H550      1.0  0.54843  0.89685  0.90005  1.0000
  H   H551      1.0  0.56456  0.79213  0.54744  1.0000
  C   C327      1.0  0.53691  0.79958  0.55784  1.0000
  N   N24       1.0  0.51158  0.92927  0.90866  1.0000
  H   H552      1.0  0.63007  0.94759  0.94827  1.0000
  H   H553      1.0  0.55633  0.95535  0.89102  1.0000
  C   C328      1.0  0.50701  0.89531  0.54708  1.0000
  H   H554      1.0  0.52010  0.93158  0.60473  1.0000
  H   H555      1.0  0.55225  0.96007  0.94086  1.0000
  H   H556      1.0  0.54374  0.85806  0.62081  1.0000
  H   H557      1.0  0.82682  0.68229  0.85639  1.0000
  C   C329      1.0  0.74002  0.70790  0.87878  1.0000
  C   C330      1.0  0.49426  0.79966  0.60758  1.0000
  H   H558      1.0  0.77552  0.67375  0.89736  1.0000
  C   C331      1.0  0.57266  0.86478  0.60986  1.0000
  H   H559      1.0  0.89406  0.72673  0.87958  1.0000
  H   H560      1.0  0.87803  0.73029  0.94092  1.0000
  C   C332      1.0  0.83476  0.70081  0.86998  1.0000
  H   H561      1.0  0.49735  0.67716  0.85373  1.0000
  H   H562      1.0  0.84406  0.74647  0.98549  1.0000
  H   H563      1.0  0.49566  0.72103  0.84774  1.0000
  H   H564      1.0  0.80922  0.71320  0.84864  1.0000
  H   H565      1.0  0.64115  0.66716  0.80815  1.0000
  H   H566      1.0  0.62173  0.88961  0.51128  1.0000
  H   H567      1.0  0.73307  0.67812  0.73609  1.0000
  H   H568      1.0  0.78621  0.74515  0.95077  1.0000
  H   H569      1.0  0.47794  0.77773  0.91750  1.0000
  H   H570      1.0  0.62505  0.87462  0.55792  1.0000
  H   H571      1.0  0.51163  0.87656  0.53748  1.0000
  H   H572      1.0  0.85967  0.66539  0.92342  1.0000
  C   C333      1.0  0.86448  0.67993  0.98272  1.0000
  H   H573      1.0  0.48569  0.98047  0.91512  1.0000
  C   C334      1.0  0.67461  0.66429  0.80312  1.0000
  H   H574      1.0  0.47992  0.88666  0.59844  1.0000
  C   C335      1.0  0.47767  0.89167  0.86266  1.0000
  C   C336      1.0  0.56790  0.98902  0.50697  1.0000
  H   H575      1.0  0.60364  0.98770  0.50623  1.0000
  H   H576      1.0  0.47599  0.95194  0.85676  1.0000
