data_image0
_chemical_formula_structural       HCSHSFeS2FeS2FeSFeS3C8H4C4HCH3C6H3FeH2C2H2FeSH3CHCH2CHC2H5CH2NHC2NC8H16C2H13CHCH4CH3CH3SH4CSHCHNHC2HCFeS2CH2CFeSH4FeSH2SNHC6HCH3CH2C6SCH6CHSH5CSCSH2CH2NCH4FeH4CH5C2HC3H4FeS2FeS2Fe2S3H2FeH2SHFe2CSH4SCHCHC3H3C5H4C3H2CH3CHCH7SCHC2HSCHCH4CH4C2NC4H2C2H8CH3C2HFeH3NC4SC2SH9CH3SH5SC2NH2C3H2NH3CHCH2CH2CH2CHCHC2HC2HNSHS2FeSHFeS2FeS3FeCS2H3SHC4H4CHC2H3SCFeH2C6H4C4H4NCH3C2H2FeH2CHCHC3H5C2HSC4H4SFeH3C2H2SCHSCFeHNSC2HNC8H20SC3H2FeH6FeHCHCH5CS2NHCSH3CHCHC2H4C2FeS3CSHFeSFeHSH2SFeS2FeSFeHSCH2C6H4C6H5FeHC6H5NC8H11CH2CH5NC4HC3H9CH5C2H5CH5SNH6CH5C2HSC2HCH3SH2CH2SH5NHCHFeH4CH2C2SFeS2FeSFeSHSFeS2FeS2FeSFeS4CHC6H4C3H2CHCHC6H5CHNC4H3C2H9CH2CH3C2NH3CH6CH2CH5CHC2H9CHFeHCH3CH2SH3C2NH3NC6H9CH3CH5C2H2C2H2C2SH3FeHSFeSHSCFeS2FeS2FeSFeS2HCHC4HCHC6H4C6H4C7H5SHCHCNC7H7FeHCHCH7CHFeC2SCHNCNC8H22CH2CSHCHC2HCHC2H2CH3NH5CSH2CH2SH2CSCH2CSH3CH3CH4FeS2FeS2FeSFeS2H2FeS2FeS2Fe2S3C6H7C6H4CHC5H4C4H3NC8H20CH5CHCHNH3C2H11C3HCHNCH3NH2CHCH3C2HC3SH9C3HCHCH6C2H4CH2C2HS2FeSFeS3FeSFeSFeHSCSC3NH2C6HCH2SC3HCH5C3H3CHCHCH4C2HCH4C2H2CHCHC2NH5C2H4CH2CH2CHCHCHC2HFeH2CH2NCH7C2H12C3H2C2H4C2SH2CH6CH3FeSHCS2HS2FeSFeS3Fe2SCHC4HCH3C2H3C2H2C4H4C2HC2SHFeH7NHCH3C2H2C3H5CH2CH3CH6CFeC2N2H7CH2CHNC7H13SCHSHSC2H2C2H2CH8FeH2SH2SHFeSFeSHSHC4HCH6CH2CHCH4CFeH2CHC2H4C3HC2H2CNH6NH4C2H4FeHSH5CFeC2H2C2H2S2CHC3HC2H3CH6CNSHSH4C2H4C2H2CHCHCFeH4
_chemical_formula_sum              "H960 C560 S160 Fe80 N40"
_cell_length_a       49.888
_cell_length_b       40.1359
_cell_length_c       40.0965
_cell_angle_alpha    90.0544
_cell_angle_beta     105.808
_cell_angle_gamma    90.0656

_space_group_name_H-M_alt    "P 1"
_space_group_IT_number       1

loop_
  _space_group_symop_operation_xyz
  'x, y, z'

loop_
  _atom_site_type_symbol
  _atom_site_label
  _atom_site_symmetry_multiplicity
  _atom_site_fract_x
  _atom_site_fract_y
  _atom_site_fract_z
  _atom_site_occupancy
  H   H1        1.0  0.22439  0.46185  0.38556  1.0000
  C   C1        1.0  0.10559  0.49223  0.27250  1.0000
  S   S1        1.0  0.03224  0.20572  0.39786  1.0000
  H   H2        1.0  0.98640  0.25095  0.36482  1.0000
  S   S2        1.0  0.99973  0.12206  0.42198  1.0000
  Fe  Fe1       1.0  0.05247  0.35754  0.26876  1.0000
  S   S3        1.0  0.09125  0.33496  0.26043  1.0000
  S   S4        1.0  0.02596  0.33455  0.30183  1.0000
  Fe  Fe2       1.0  0.05579  0.41706  0.22025  1.0000
  S   S5        1.0  0.09431  0.39719  0.20872  1.0000
  S   S6        1.0  0.03566  0.46601  0.19761  1.0000
  Fe  Fe3       1.0  0.07262  0.34726  0.20364  1.0000
  S   S7        1.0  0.07102  0.30590  0.16356  1.0000
  Fe  Fe4       1.0  0.10862  0.38745  0.26633  1.0000
  S   S8        1.0  0.15309  0.40142  0.29685  1.0000
  S   S9        1.0  0.03308  0.36773  0.21188  1.0000
  S   S10       1.0  0.07093  0.40944  0.27807  1.0000
  C   C2        1.0  0.15685  0.48364  0.22598  1.0000
  C   C3        1.0  0.03217  0.19384  0.27750  1.0000
  C   C4        1.0  0.05459  0.30604  0.11815  1.0000
  C   C5        1.0  0.05525  0.27684  0.09886  1.0000
  C   C6        1.0  0.04230  0.27554  0.06288  1.0000
  C   C7        1.0  0.02881  0.30366  0.04559  1.0000
  C   C8        1.0  0.02825  0.33293  0.06479  1.0000
  C   C9        1.0  0.04084  0.33407  0.10089  1.0000
  H   H3        1.0  0.06605  0.25512  0.11185  1.0000
  H   H4        1.0  0.04332  0.25303  0.04842  1.0000
  H   H5        1.0  0.00778  0.33393  0.48631  1.0000
  H   H6        1.0  0.04019  0.35671  0.11532  1.0000
  C   C10       1.0  0.16405  0.42947  0.33238  1.0000
  C   C11       1.0  0.19264  0.43626  0.34600  1.0000
  C   C12       1.0  0.20232  0.45709  0.37524  1.0000
  C   C13       1.0  0.03475  0.10359  0.34339  1.0000
  H   H7        1.0  0.09203  0.30050  0.43597  1.0000
  C   C14       1.0  0.14516  0.44415  0.34807  1.0000
  H   H8        1.0  0.20747  0.42506  0.33408  1.0000
  H   H9        1.0  0.04534  0.26766  0.44693  1.0000
  H   H10       1.0  0.12312  0.43962  0.33757  1.0000
  C   C15       1.0  0.02917  0.23969  0.36835  1.0000
  C   C16       1.0  0.05234  0.24881  0.35666  1.0000
  C   C17       1.0  0.05135  0.27668  0.33481  1.0000
  C   C18       1.0  0.02737  0.29645  0.32521  1.0000
  C   C19       1.0  0.00396  0.28671  0.33612  1.0000
  C   C20       1.0  0.00465  0.25818  0.35694  1.0000
  H   H11       1.0  0.07129  0.23436  0.36480  1.0000
  H   H12       1.0  0.06936  0.28334  0.32616  1.0000
  H   H13       1.0  0.99668  0.34195  0.44132  1.0000
  Fe  Fe5       1.0  0.99882  0.17844  0.41741  1.0000
  H   H14       1.0  0.01797  0.35487  0.05170  1.0000
  H   H15       1.0  0.08753  0.46671  0.17679  1.0000
  C   C21       1.0  0.15488  0.46424  0.37784  1.0000
  C   C22       1.0  0.02976  0.44788  0.08461  1.0000
  H   H16       1.0  0.04992  0.14984  0.30449  1.0000
  H   H17       1.0  0.19006  0.34382  0.41856  1.0000
  Fe  Fe6       1.0  0.98789  0.12854  0.47215  1.0000
  S   S11       1.0  0.99135  0.18449  0.47023  1.0000
  H   H18       1.0  0.03322  0.08688  0.32094  1.0000
  H   H19       1.0  0.09714  0.40928  0.36822  1.0000
  H   H20       1.0  0.99190  0.07384  0.27668  1.0000
  C   C23       1.0  0.01079  0.12916  0.33669  1.0000
  H   H21       1.0  0.16137  0.47448  0.27980  1.0000
  C   C24       1.0  0.00163  0.27879  0.44060  1.0000
  H   H22       1.0  0.07699  0.32026  0.39537  1.0000
  H   H23       1.0  0.08584  0.38144  0.39670  1.0000
  C   C25       1.0  0.18350  0.47092  0.39161  1.0000
  H   H24       1.0  0.02241  0.18413  0.25110  1.0000
  C   C26       1.0  0.07781  0.49088  0.17135  1.0000
  C   C27       1.0  0.98879  0.20816  0.07776  1.0000
  H   H25       1.0  0.04825  0.44741  0.07431  1.0000
  H   H26       1.0  0.17411  0.35648  0.45226  1.0000
  H   H27       1.0  0.05540  0.11606  0.35070  1.0000
  H   H28       1.0  0.19149  0.38619  0.43238  1.0000
  H   H29       1.0  0.03400  0.08772  0.36579  1.0000
  C   C28       1.0  0.99906  0.12766  0.27159  1.0000
  H   H30       1.0  0.01846  0.11711  0.26714  1.0000
  H   H31       1.0  0.01528  0.14607  0.35954  1.0000
  N   N1        1.0  0.00619  0.14913  0.30379  1.0000
  H   H32       1.0  0.06681  0.38305  0.35281  1.0000
  C   C29       1.0  0.03194  0.27602  0.46341  1.0000
  C   C30       1.0  0.98991  0.02397  0.33659  1.0000
  N   N2        1.0  0.13043  0.34397  0.38832  1.0000
  C   C31       1.0  0.14341  0.31507  0.37433  1.0000
  C   C32       1.0  0.12151  0.33195  0.41930  1.0000
  C   C33       1.0  0.15083  0.37217  0.39954  1.0000
  C   C34       1.0  0.10611  0.35663  0.35996  1.0000
  C   C35       1.0  0.15768  0.32338  0.34568  1.0000
  C   C36       1.0  0.09624  0.30818  0.41127  1.0000
  C   C37       1.0  0.17803  0.36360  0.42729  1.0000
  C   C38       1.0  0.08832  0.38425  0.37032  1.0000
  H   H33       1.0  0.15911  0.30213  0.39543  1.0000
  H   H34       1.0  0.12741  0.29581  0.36313  1.0000
  H   H35       1.0  0.11700  0.35315  0.43484  1.0000
  H   H36       1.0  0.13882  0.31835  0.43765  1.0000
  H   H37       1.0  0.15675  0.38273  0.37704  1.0000
  H   H38       1.0  0.14109  0.39327  0.41002  1.0000
  H   H39       1.0  0.11350  0.36744  0.33848  1.0000
  H   H40       1.0  0.09203  0.33611  0.34705  1.0000
  H   H41       1.0  0.17569  0.34046  0.35477  1.0000
  H   H42       1.0  0.16593  0.30004  0.33734  1.0000
  H   H43       1.0  0.14290  0.33390  0.32230  1.0000
  H   H44       1.0  0.01228  0.02083  0.34531  1.0000
  H   H45       1.0  0.00377  0.48188  0.10301  1.0000
  H   H46       1.0  0.14011  0.47489  0.39022  1.0000
  H   H47       1.0  0.99576  0.15972  0.05729  1.0000
  H   H48       1.0  0.03613  0.43591  0.11059  1.0000
  C   C39       1.0  0.98401  0.48699  0.03351  1.0000
  C   C40       1.0  0.03308  0.16753  0.30586  1.0000
  H   H49       1.0  0.10035  0.28513  0.39829  1.0000
  H   H50       1.0  0.03397  0.25667  0.48372  1.0000
  H   H51       1.0  0.02140  0.21687  0.28219  1.0000
  H   H52       1.0  0.02007  0.24252  0.13387  1.0000
  H   H53       1.0  0.99470  0.25293  0.43215  1.0000
  H   H54       1.0  0.16882  0.46058  0.22458  1.0000
  H   H55       1.0  0.05382  0.20143  0.27852  1.0000
  H   H56       1.0  0.99186  0.11562  0.33812  1.0000
  H   H57       1.0  0.99384  0.28102  0.09161  1.0000
  H   H58       1.0  0.98946  0.14305  0.24832  1.0000
  H   H59       1.0  0.04075  0.18042  0.33132  1.0000
  H   H60       1.0  0.99020  0.19139  0.32582  1.0000
  H   H61       1.0  0.99293  0.19598  0.10348  1.0000
  C   C41       1.0  0.98391  0.17486  0.30263  1.0000
  H   H62       1.0  0.98954  0.46380  0.02171  1.0000
  C   C42       1.0  0.02013  0.48373  0.08891  1.0000
  H   H63       1.0  0.04040  0.30010  0.47522  1.0000
  H   H64       1.0  0.13457  0.47679  0.21646  1.0000
  H   H65       1.0  0.00468  0.27333  0.15458  1.0000
  H   H66       1.0  0.00292  0.29215  0.41682  1.0000
  C   C43       1.0  0.99978  0.25161  0.13668  1.0000
  H   H67       1.0  0.00940  0.21761  0.07606  1.0000
  H   H68       1.0  0.01279  0.43245  0.06817  1.0000
  H   H69       1.0  0.08301  0.49086  0.25886  1.0000
  C   C44       1.0  0.98942  0.33178  0.46324  1.0000
  H   H70       1.0  0.03475  0.47992  0.02595  1.0000
  H   H71       1.0  0.11484  0.46827  0.26751  1.0000
  H   H72       1.0  0.98516  0.30151  0.32846  1.0000
  S   S12       1.0  0.01288  0.30385  0.00008  1.0000
  H   H73       1.0  0.98972  0.06606  0.37016  1.0000
  H   H74       1.0  0.99043  0.23214  0.14939  1.0000
  H   H75       1.0  0.98520  0.25673  0.03403  1.0000
  H   H76       1.0  0.97993  0.18867  0.02444  1.0000
  C   C45       1.0  0.98190  0.27788  0.49001  1.0000
  S   S13       1.0  0.19436  0.49558  0.42987  1.0000
  H   H77       1.0  0.10706  0.49477  0.30046  1.0000
  C   C46       1.0  0.16465  0.49585  0.26376  1.0000
  H   H78       1.0  0.01870  0.41333  0.00146  1.0000
  N   N3        1.0  0.98104  0.29572  0.45663  1.0000
  H   H79       1.0  0.98107  0.19135  0.27969  1.0000
  C   C47       1.0  0.98012  0.18005  0.05072  1.0000
  C   C48       1.0  0.98063  0.26320  0.10145  1.0000
  H   H80       1.0  0.03768  0.49678  0.10714  1.0000
  C   C49       1.0  0.05264  0.49705  0.17929  1.0000
  Fe  Fe7       1.0  0.05351  0.02100  0.76873  1.0000
  S   S14       1.0  0.09337  0.04364  0.76318  1.0000
  S   S15       1.0  0.02511  0.04258  0.79999  1.0000
  C   C50       1.0  0.16917  0.03394  0.89370  1.0000
  H   H81       1.0  0.02016  0.00995  0.51149  1.0000
  H   H82       1.0  0.04724  0.39669  0.89820  1.0000
  C   C51       1.0  0.99360  0.41218  0.89730  1.0000
  Fe  Fe8       1.0  0.07842  0.02749  0.70704  1.0000
  S   S16       1.0  0.08438  0.05875  0.66180  1.0000
  H   H83       1.0  0.08128  0.04240  0.88256  1.0000
  H   H84       1.0  0.98616  0.34409  0.89235  1.0000
  H   H85       1.0  0.12326  0.12317  0.89995  1.0000
  H   H86       1.0  0.17408  0.02009  0.87201  1.0000
  Fe  Fe9       1.0  0.99872  0.20802  0.90556  1.0000
  S   S17       1.0  0.02995  0.18082  0.88227  1.0000
  H   H87       1.0  0.99379  0.46370  0.88029  1.0000
  H   H88       1.0  0.02203  0.37046  0.87060  1.0000
  S   S18       1.0  0.00075  0.26441  0.90713  1.0000
  N   N4        1.0  0.14026  0.04882  0.88226  1.0000
  H   H89       1.0  0.13093  0.05542  0.93153  1.0000
  C   C52       1.0  0.05882  0.07063  0.62319  1.0000
  C   C53       1.0  0.03064  0.06259  0.61747  1.0000
  C   C54       1.0  0.01140  0.07024  0.58548  1.0000
  C   C55       1.0  0.01984  0.08679  0.55907  1.0000
  C   C56       1.0  0.04788  0.09577  0.56517  1.0000
  C   C57       1.0  0.06724  0.08755  0.59697  1.0000
  H   H90       1.0  0.02372  0.05017  0.63758  1.0000
  C   C58       1.0  0.05131  0.34533  0.91247  1.0000
  H   H91       1.0  0.05480  0.10820  0.54507  1.0000
  H   H92       1.0  0.08897  0.09401  0.60114  1.0000
  H   H93       1.0  0.98976  0.06327  0.58112  1.0000
  C   C59       1.0  0.13832  0.06747  0.84901  1.0000
  H   H94       1.0  0.15576  0.08404  0.92393  1.0000
  H   H95       1.0  0.16084  0.11263  0.87372  1.0000
  C   C60       1.0  0.02681  0.08142  0.82228  1.0000
  C   C61       1.0  0.00756  0.08769  0.84152  1.0000
  C   C62       1.0  0.00787  0.11808  0.85952  1.0000
  C   C63       1.0  0.02773  0.14255  0.85885  1.0000
  C   C64       1.0  0.04725  0.13607  0.84001  1.0000
  C   C65       1.0  0.04669  0.10587  0.82163  1.0000
  S   S19       1.0  0.99818  0.20532  0.96170  1.0000
  C   C66       1.0  0.15971  0.09579  0.85149  1.0000
  H   H96       1.0  0.06276  0.15473  0.83935  1.0000
  H   H97       1.0  0.06156  0.10161  0.80687  1.0000
  H   H98       1.0  0.00054  0.34650  0.80121  1.0000
  H   H99       1.0  0.01934  0.43853  0.86901  1.0000
  H   H100      1.0  0.15349  0.11103  0.82747  1.0000
  H   H101      1.0  0.18527  0.05384  0.90097  1.0000
  C   C67       1.0  0.11348  0.09839  0.90064  1.0000
  H   H102      1.0  0.11750  0.07849  0.83785  1.0000
  S   S20       1.0  0.03750  0.00776  0.71182  1.0000
  H   H103      1.0  0.03944  0.32167  0.90642  1.0000
  H   H104      1.0  0.02468  0.45272  0.91335  1.0000
  H   H105      1.0  0.04616  0.01321  0.57294  1.0000
  H   H106      1.0  0.18072  0.08571  0.85301  1.0000
  H   H107      1.0  0.05326  0.99825  0.63315  1.0000
  C   C68       1.0  0.02727  0.39585  0.95407  1.0000
  S   S21       1.0  0.99509  0.09214  0.51800  1.0000
  C   C69       1.0  0.00910  0.44343  0.88991  1.0000
  S   S22       1.0  0.98503  0.41361  0.78093  1.0000
  H   H108      1.0  0.03443  0.37367  0.97089  1.0000
  H   H109      1.0  0.04654  0.40963  0.95346  1.0000
  C   C70       1.0  0.13599  0.07084  0.91096  1.0000
  H   H110      1.0  0.09733  0.09436  0.87603  1.0000
  H   H111      1.0  0.10227  0.10040  0.92100  1.0000
  N   N5        1.0  0.01174  0.38509  0.91784  1.0000
  C   C71       1.0  0.03269  0.37569  0.89839  1.0000
  H   H112      1.0  0.00706  0.33457  0.93441  1.0000
  H   H113      1.0  0.14106  0.04994  0.82859  1.0000
  H   H114      1.0  0.99247  0.06871  0.84262  1.0000
  H   H115      1.0  0.99314  0.12240  0.87443  1.0000
  Fe  Fe10      1.0  0.99590  0.26144  0.96137  1.0000
  H   H116      1.0  0.12413  0.00343  0.85521  1.0000
  H   H117      1.0  0.98873  0.41636  0.96561  1.0000
  H   H118      1.0  0.99785  0.01055  0.53919  1.0000
  H   H119      1.0  0.06125  0.34703  0.94074  1.0000
  C   C72       1.0  0.99425  0.35462  0.91879  1.0000
  H   H120      1.0  0.16919  0.02094  0.94747  1.0000
  H   H121      1.0  0.19769  0.00454  0.93353  1.0000
  H   H122      1.0  0.06824  0.34390  0.89937  1.0000
  H   H123      1.0  0.00311  0.27883  0.50825  1.0000
  H   H124      1.0  0.08378  0.04438  0.83809  1.0000
  C   C73       1.0  0.17501  0.01005  0.92502  1.0000
  C   C74       1.0  0.08866  0.02958  0.86222  1.0000
  H   H125      1.0  0.01735  0.44543  0.97072  1.0000
  C   C75       1.0  0.01161  0.41899  0.97328  1.0000
  C   C76       1.0  0.11967  0.02038  0.87497  1.0000
  C   C77       1.0  0.98140  0.35160  0.80803  1.0000
  H   H126      1.0  0.00528  0.99796  0.60342  1.0000
  H   H127      1.0  0.07619  0.00632  0.85594  1.0000
  H   H128      1.0  0.98138  0.40224  0.87180  1.0000
  H   H129      1.0  0.12143  0.00505  0.89853  1.0000
  Fe  Fe11      1.0  0.07865  0.67546  0.04378  1.0000
  S   S23       1.0  0.03197  0.68085  0.02187  1.0000
  S   S24       1.0  0.10433  0.70646  0.01563  1.0000
  Fe  Fe12      1.0  0.07170  0.61961  0.09345  1.0000
  S   S25       1.0  0.02526  0.62220  0.07480  1.0000
  S   S26       1.0  0.09458  0.57847  0.12968  1.0000
  Fe  Fe13      1.0  0.03064  0.62462  0.02070  1.0000
  Fe  Fe14      1.0  0.03082  0.67817  0.07787  1.0000
  S   S27       1.0  0.00015  0.70730  0.10071  1.0000
  S   S28       1.0  0.07712  0.61960  0.03953  1.0000
  S   S29       1.0  0.07754  0.67558  0.09980  1.0000
  H   H130      1.0  0.12238  0.74873  0.44351  1.0000
  H   H131      1.0  0.26633  0.72467  0.07234  1.0000
  Fe  Fe15      1.0  0.29167  0.85759  0.02757  1.0000
  H   H132      1.0  0.15830  0.57955  0.27261  1.0000
  H   H133      1.0  0.02050  0.53344  0.17729  1.0000
  S   S30       1.0  0.28981  0.80216  0.03504  1.0000
  H   H134      1.0  0.15402  0.69555  0.46342  1.0000
  Fe  Fe16      1.0  0.23435  0.52398  0.45759  1.0000
  Fe  Fe17      1.0  0.28669  0.56504  0.45809  1.0000
  C   C78       1.0  0.27114  0.71074  0.02082  1.0000
  S   S31       1.0  0.24056  0.57581  0.43935  1.0000
  H   H135      1.0  0.04753  0.73378  0.36947  1.0000
  H   H136      1.0  0.08132  0.70987  0.47320  1.0000
  H   H137      1.0  0.03766  0.79288  0.39235  1.0000
  H   H138      1.0  0.15127  0.50812  0.32285  1.0000
  S   S32       1.0  0.22327  0.77751  0.06360  1.0000
  C   C79       1.0  0.14209  0.56804  0.21939  1.0000
  H   H139      1.0  0.05936  0.80793  0.03569  1.0000
  C   C80       1.0  0.00330  0.80147  0.16874  1.0000
  H   H140      1.0  0.10782  0.54521  0.26468  1.0000
  C   C81       1.0  0.02555  0.79404  0.15464  1.0000
  C   C82       1.0  0.02541  0.76497  0.13463  1.0000
  C   C83       1.0  0.00278  0.74297  0.12816  1.0000
  H   H141      1.0  0.07720  0.75008  0.40040  1.0000
  H   H142      1.0  0.04301  0.81098  0.15936  1.0000
  H   H143      1.0  0.04260  0.75971  0.12387  1.0000
  C   C84       1.0  0.13809  0.72437  0.02936  1.0000
  C   C85       1.0  0.15522  0.72089  0.06319  1.0000
  C   C86       1.0  0.18124  0.73731  0.07325  1.0000
  C   C87       1.0  0.19038  0.75736  0.04970  1.0000
  C   C88       1.0  0.15899  0.55732  0.25613  1.0000
  H   H144      1.0  0.06864  0.85724  0.11807  1.0000
  H   H145      1.0  0.14832  0.70582  0.08164  1.0000
  H   H146      1.0  0.00631  0.99028  0.42348  1.0000
  H   H147      1.0  0.13638  0.78735  0.05343  1.0000
  C   C89       1.0  0.07756  0.54728  0.14783  1.0000
  C   C90       1.0  0.05226  0.55333  0.15546  1.0000
  C   C91       1.0  0.03997  0.52840  0.17126  1.0000
  H   H148      1.0  0.13557  0.76094  0.16764  1.0000
  H   H149      1.0  0.01715  0.87622  0.36460  1.0000
  C   C92       1.0  0.09030  0.51597  0.15600  1.0000
  H   H150      1.0  0.04235  0.57742  0.14967  1.0000
  H   H151      1.0  0.00810  0.85835  0.42030  1.0000
  H   H152      1.0  0.13963  0.54806  0.19987  1.0000
  C   C93       1.0  0.00390  0.53845  0.06574  1.0000
  H   H153      1.0  0.26077  0.65098  0.05466  1.0000
  C   C94       1.0  0.01594  0.79260  0.39211  1.0000
  H   H154      1.0  0.11549  0.69572  0.48709  1.0000
  H   H155      1.0  0.00832  0.88341  0.45834  1.0000
  H   H156      1.0  0.22876  0.69429  0.04859  1.0000
  H   H157      1.0  0.12112  0.57740  0.21934  1.0000
  H   H158      1.0  0.16451  0.68352  0.42605  1.0000
  H   H159      1.0  0.07034  0.50429  0.07911  1.0000
  H   H160      1.0  0.18756  0.50002  0.27120  1.0000
  S   S33       1.0  0.99097  0.96933  0.29569  1.0000
  C   C95       1.0  0.99565  0.86740  0.43743  1.0000
  H   H161      1.0  0.19433  0.73456  0.09948  1.0000
  C   C96       1.0  0.15684  0.53064  0.31019  1.0000
  C   C97       1.0  0.07099  0.78446  0.03559  1.0000
  H   H162      1.0  0.06802  0.65763  0.47990  1.0000
  S   S34       1.0  0.28043  0.51157  0.47249  1.0000
  C   C98       1.0  0.18790  0.53725  0.32853  1.0000
  H   H163      1.0  0.20108  0.51538  0.32697  1.0000
  C   C99       1.0  0.97990  0.77829  0.41941  1.0000
  H   H164      1.0  0.11683  0.73983  0.12920  1.0000
  H   H165      1.0  0.14460  0.55144  0.31721  1.0000
  H   H166      1.0  0.02590  0.90477  0.39988  1.0000
  H   H167      1.0  0.11550  0.82269  0.03831  1.0000
  C   C100      1.0  0.11101  0.74415  0.46308  1.0000
  H   H168      1.0  0.08216  0.78506  0.01514  1.0000
  H   H169      1.0  0.05536  0.76408  0.02820  1.0000
  H   H170      1.0  0.02401  0.52069  0.01257  1.0000
  H   H171      1.0  0.19612  0.55968  0.31854  1.0000
  C   C101      1.0  0.98103  0.77902  0.16311  1.0000
  C   C102      1.0  0.11832  0.52244  0.25848  1.0000
  N   N6        1.0  0.11192  0.80291  0.08750  1.0000
  C   C103      1.0  0.12863  0.81067  0.06219  1.0000
  C   C104      1.0  0.09085  0.77639  0.07142  1.0000
  C   C105      1.0  0.13174  0.78990  0.12058  1.0000
  C   C106      1.0  0.09822  0.83483  0.09396  1.0000
  H   H172      1.0  0.04750  0.64663  0.43656  1.0000
  H   H173      1.0  0.05959  0.81574  0.10389  1.0000
  C   C107      1.0  0.12006  0.76458  0.14215  1.0000
  C   C108      1.0  0.07747  0.83217  0.11596  1.0000
  H   H174      1.0  0.16495  0.83634  0.05473  1.0000
  H   H175      1.0  0.14826  0.85904  0.08167  1.0000
  H   H176      1.0  0.07743  0.76976  0.08840  1.0000
  H   H177      1.0  0.10175  0.75285  0.06851  1.0000
  H   H178      1.0  0.14956  0.77648  0.11483  1.0000
  H   H179      1.0  0.14131  0.81082  0.13809  1.0000
  H   H180      1.0  0.11413  0.85337  0.10732  1.0000
  H   H181      1.0  0.08695  0.84666  0.06899  1.0000
  C   C109      1.0  0.06022  0.51887  0.05563  1.0000
  H   H182      1.0  0.29887  0.73562  0.06524  1.0000
  H   H183      1.0  0.26231  0.73516  0.01017  1.0000
  H   H184      1.0  0.10982  0.51098  0.15008  1.0000
  C   C110      1.0  0.17336  0.76055  0.01581  1.0000
  C   C111      1.0  0.06762  0.64295  0.45643  1.0000
  H   H185      1.0  0.18119  0.55512  0.25583  1.0000
  Fe  Fe18      1.0  0.24390  0.80788  0.02893  1.0000
  H   H186      1.0  0.16988  0.82311  0.09821  1.0000
  H   H187      1.0  0.00888  0.93173  0.43443  1.0000
  H   H188      1.0  0.08781  0.82412  0.14275  1.0000
  N   N7        1.0  0.09569  0.68683  0.43245  1.0000
  C   C112      1.0  0.09289  0.65099  0.44263  1.0000
  C   C113      1.0  0.11948  0.68800  0.41595  1.0000
  C   C114      1.0  0.06875  0.69655  0.40644  1.0000
  C   C115      1.0  0.10070  0.70799  0.46470  1.0000
  S   S35       1.0  0.03437  0.75995  0.45433  1.0000
  C   C116      1.0  0.14843  0.67940  0.44011  1.0000
  C   C117      1.0  0.06925  0.72791  0.38447  1.0000
  S   S36       1.0  0.00394  0.83984  0.19160  1.0000
  H   H189      1.0  0.09173  0.63392  0.42033  1.0000
  H   H190      1.0  0.11148  0.64301  0.46340  1.0000
  H   H191      1.0  0.12159  0.71270  0.40468  1.0000
  H   H192      1.0  0.11538  0.67067  0.39336  1.0000
  H   H193      1.0  0.06116  0.67594  0.38754  1.0000
  H   H194      1.0  0.05200  0.70067  0.41957  1.0000
  H   H195      1.0  0.06861  0.61633  0.46427  1.0000
  H   H196      1.0  0.02173  0.91923  0.35672  1.0000
  H   H197      1.0  0.10035  0.77244  0.14728  1.0000
  C   C118      1.0  0.00807  0.77820  0.42005  1.0000
  H   H198      1.0  0.18009  0.77588  0.99741  1.0000
  H   H199      1.0  0.15005  0.65286  0.44804  1.0000
  H   H200      1.0  0.15296  0.58899  0.21047  1.0000
  S   S37       1.0  0.24637  0.86391  0.02671  1.0000
  H   H201      1.0  0.99895  0.55537  0.04291  1.0000
  H   H202      1.0  0.08117  0.72374  0.36517  1.0000
  H   H203      1.0  0.09340  0.76198  0.45878  1.0000
  H   H204      1.0  0.00240  0.81754  0.34248  1.0000
  H   H205      1.0  0.02294  0.54970  0.08325  1.0000
  S   S38       1.0  0.99063  0.87361  0.27947  1.0000
  C   C119      1.0  0.03138  0.50492  0.03601  1.0000
  C   C120      1.0  0.99600  0.80681  0.36383  1.0000
  N   N8        1.0  0.14955  0.52629  0.27132  1.0000
  H   H206      1.0  0.11137  0.52029  0.22989  1.0000
  H   H207      1.0  0.19934  0.64966  0.02751  1.0000
  C   C121      1.0  0.28265  0.71589  0.06040  1.0000
  C   C122      1.0  0.22426  0.69273  0.01989  1.0000
  C   C123      1.0  0.15422  0.83365  0.07554  1.0000
  H   H208      1.0  0.19023  0.54156  0.35659  1.0000
  H   H209      1.0  0.05919  0.54553  0.06246  1.0000
  N   N9        1.0  0.00981  0.50351  0.05605  1.0000
  H   H210      1.0  0.30569  0.93393  0.08576  1.0000
  H   H211      1.0  0.99052  0.54121  0.11360  1.0000
  H   H212      1.0  0.99038  0.84488  0.45049  1.0000
  C   C124      1.0  0.01327  0.90178  0.37286  1.0000
  H   H213      1.0  0.28550  0.65071  0.02996  1.0000
  C   C125      1.0  0.14743  0.74406  0.00572  1.0000
  H   H214      1.0  0.29292  0.69339  0.07403  1.0000
  H   H215      1.0  0.07421  0.51768  0.03833  1.0000
  C   C126      1.0  0.26270  0.65151  0.02761  1.0000
  H   H216      1.0  0.26031  0.59746  0.02897  1.0000
  H   H217      1.0  0.21762  0.71852  0.01138  1.0000
  C   C127      1.0  0.98784  0.94086  0.42100  1.0000
  H   H218      1.0  0.12596  0.75056  0.48833  1.0000
  H   H219      1.0  0.00199  0.97019  0.38260  1.0000
  C   C128      1.0  0.98153  0.90746  0.36612  1.0000
  H   H220      1.0  0.16256  0.50198  0.20853  1.0000
  C   C129      1.0  0.99211  0.97408  0.40392  1.0000
  H   H221      1.0  0.17950  0.68438  0.00536  1.0000
  C   C130      1.0  0.98074  0.75013  0.14280  1.0000
  C   C131      1.0  0.98119  0.54220  0.08511  1.0000
  H   H222      1.0  0.28949  0.70655  0.01050  1.0000
  C   C132      1.0  0.19875  0.66957  0.00810  1.0000
  C   C133      1.0  0.25127  0.61795  0.01077  1.0000
  H   H223      1.0  0.22840  0.61583  0.00505  1.0000
  N   N10       1.0  0.25001  0.68308  0.00944  1.0000
  S   S39       1.0  0.04126  0.90947  0.70317  1.0000
  H   H224      1.0  0.98965  0.96703  0.57340  1.0000
  S   S40       1.0  0.23309  0.80065  0.97163  1.0000
  S   S41       1.0  0.28251  0.85358  0.96901  1.0000
  Fe  Fe19      1.0  0.23692  0.85653  0.96856  1.0000
  S   S42       1.0  0.19673  0.88040  0.93474  1.0000
  H   H225      1.0  0.19295  0.61972  0.59297  1.0000
  Fe  Fe20      1.0  0.06911  0.76032  0.58470  1.0000
  S   S43       1.0  0.02397  0.75816  0.55481  1.0000
  S   S44       1.0  0.09034  0.80635  0.61414  1.0000
  Fe  Fe21      1.0  0.08222  0.69250  0.55538  1.0000
  S   S45       1.0  0.03753  0.68633  0.52413  1.0000
  S   S46       1.0  0.10979  0.64838  0.54955  1.0000
  S   S47       1.0  0.29676  0.75225  0.95634  1.0000
  Fe  Fe22      1.0  0.02662  0.70393  0.57222  1.0000
  C   C134      1.0  0.27636  0.61183  0.59394  1.0000
  S   S48       1.0  0.08429  0.74544  0.53883  1.0000
  S   S49       1.0  0.07118  0.70731  0.60446  1.0000
  H   H226      1.0  0.19626  0.65841  0.98226  1.0000
  H   H227      1.0  0.09102  0.99184  0.60165  1.0000
  H   H228      1.0  0.10155  0.98138  0.64611  1.0000
  S   S50       1.0  0.99263  0.68036  0.59366  1.0000
  H   H229      1.0  0.05591  0.97876  0.55109  1.0000
  C   C135      1.0  0.14163  0.64682  0.53783  1.0000
  C   C136      1.0  0.15901  0.67461  0.54024  1.0000
  C   C137      1.0  0.18434  0.67188  0.53118  1.0000
  C   C138      1.0  0.19255  0.64145  0.51958  1.0000
  H   H230      1.0  0.04087  0.91252  0.60417  1.0000
  H   H231      1.0  0.19132  0.60747  0.63584  1.0000
  H   H232      1.0  0.15304  0.69812  0.54933  1.0000
  H   H233      1.0  0.18118  0.59012  0.50821  1.0000
  C   C139      1.0  0.21145  0.57013  0.60995  1.0000
  H   H234      1.0  0.23162  0.65733  0.96050  1.0000
  C   C140      1.0  0.99481  0.64255  0.61753  1.0000
  C   C141      1.0  0.01824  0.62192  0.62408  1.0000
  H   H235      1.0  0.28104  0.55457  0.62375  1.0000
  H   H236      1.0  0.99572  0.52929  0.93398  1.0000
  H   H237      1.0  0.06287  0.57430  0.76886  1.0000
  S   S51       1.0  0.15567  0.98186  0.80808  1.0000
  C   C142      1.0  0.99721  0.58299  0.93577  1.0000
  Fe  Fe23      1.0  0.27932  0.79825  0.97728  1.0000
  H   H238      1.0  0.02268  0.91898  0.52572  1.0000
  H   H239      1.0  0.22718  0.92051  0.89533  1.0000
  C   C143      1.0  0.05402  0.88249  0.67588  1.0000
  C   C144      1.0  0.03945  0.85290  0.66390  1.0000
  C   C145      1.0  0.04969  0.82985  0.64382  1.0000
  C   C146      1.0  0.07473  0.83615  0.63564  1.0000
  C   C147      1.0  0.08889  0.86621  0.64678  1.0000
  C   C148      1.0  0.07864  0.88927  0.66681  1.0000
  H   H240      1.0  0.02036  0.84743  0.67072  1.0000
  H   H241      1.0  0.03861  0.80679  0.63548  1.0000
  H   H242      1.0  0.10828  0.87128  0.64053  1.0000
  H   H243      1.0  0.09017  0.91183  0.67592  1.0000
  C   C149      1.0  0.20512  0.92540  0.88532  1.0000
  C   C150      1.0  0.18622  0.90941  0.90012  1.0000
  C   C151      1.0  0.15760  0.91619  0.88676  1.0000
  C   C152      1.0  0.14789  0.93809  0.85858  1.0000
  H   H244      1.0  0.14280  0.90395  0.89802  1.0000
  H   H245      1.0  0.12579  0.94253  0.84840  1.0000
  H   H246      1.0  0.20671  0.55074  0.62727  1.0000
  H   H247      1.0  0.00465  0.67315  0.78912  1.0000
  N   N11       1.0  0.01318  0.63858  0.75190  1.0000
  C   C153      1.0  0.03568  0.61557  0.74686  1.0000
  H   H248      1.0  0.00346  0.97213  0.51829  1.0000
  H   H249      1.0  0.02179  0.63736  0.80828  1.0000
  H   H250      1.0  0.26220  0.52793  0.67058  1.0000
  C   C154      1.0  0.04545  0.58832  0.77460  1.0000
  C   C155      1.0  0.02951  0.67779  0.70919  1.0000
  H   H251      1.0  0.99040  0.65360  0.69988  1.0000
  H   H252      1.0  0.25238  0.53927  0.59157  1.0000
  Fe  Fe24      1.0  0.11137  0.99183  0.77441  1.0000
  H   H253      1.0  0.05470  0.62922  0.74569  1.0000
  H   H254      1.0  0.02862  0.60287  0.72129  1.0000
  C   C156      1.0  0.25648  0.52015  0.64302  1.0000
  H   H255      1.0  0.99565  0.92204  0.54800  1.0000
  C   C157      1.0  0.22929  0.70893  0.94880  1.0000
  H   H256      1.0  0.02127  0.69829  0.69058  1.0000
  C   C158      1.0  0.04832  0.67585  0.79616  1.0000
  C   C159      1.0  0.03897  0.92916  0.58145  1.0000
  C   C160      1.0  0.25854  0.54912  0.61860  1.0000
  H   H257      1.0  0.02887  0.56982  0.77406  1.0000
  H   H258      1.0  0.23562  0.50829  0.63577  1.0000
  H   H259      1.0  0.05337  0.59889  0.80102  1.0000
  H   H260      1.0  0.03727  0.65843  0.69431  1.0000
  H   H261      1.0  0.04702  0.68804  0.72981  1.0000
  C   C161      1.0  0.19036  0.59845  0.60939  1.0000
  C   C162      1.0  0.24821  0.59352  0.65757  1.0000
  H   H262      1.0  0.06536  0.66437  0.78747  1.0000
  S   S52       1.0  0.30878  0.51959  0.58010  1.0000
  C   C163      1.0  0.01720  0.91390  0.55028  1.0000
  C   C164      1.0  0.98039  0.60987  0.87942  1.0000
  C   C165      1.0  0.00571  0.66411  0.72308  1.0000
  C   C166      1.0  0.01913  0.59221  0.64317  1.0000
  H   H263      1.0  0.05933  0.92580  0.57555  1.0000
  H   H264      1.0  0.98251  0.60205  0.72577  1.0000
  H   H265      1.0  0.05642  0.67722  0.82485  1.0000
  H   H266      1.0  0.28411  0.59012  0.58219  1.0000
  S   S53       1.0  0.99963  0.54533  0.68089  1.0000
  Fe  Fe25      1.0  0.28229  0.53258  0.52529  1.0000
  H   H267      1.0  0.23730  0.61769  0.65768  1.0000
  H   H268      1.0  0.28460  0.62672  0.67306  1.0000
  H   H269      1.0  0.24147  0.73224  0.95433  1.0000
  C   C167      1.0  0.02115  0.65535  0.78689  1.0000
  C   C168      1.0  0.08760  0.97352  0.62077  1.0000
  H   H270      1.0  0.16891  0.58872  0.59822  1.0000
  H   H271      1.0  0.23842  0.63082  0.60184  1.0000
  S   S54       1.0  0.23580  0.54069  0.51212  1.0000
  C   C169      1.0  0.99681  0.58282  0.65635  1.0000
  H   H272      1.0  0.13430  0.74702  0.97953  1.0000
  S   S55       1.0  0.22468  0.63931  0.50866  1.0000
  C   C170      1.0  0.01345  0.99504  0.53116  1.0000
  Fe  Fe26      1.0  0.24380  0.59157  0.49420  1.0000
  H   H273      1.0  0.26442  0.67554  0.96369  1.0000
  N   N12       1.0  0.24187  0.57990  0.62119  1.0000
  S   S56       1.0  0.29042  0.58517  0.51110  1.0000
  C   C171      1.0  0.00066  0.95042  0.62594  1.0000
  C   C172      1.0  0.98765  0.61751  0.74979  1.0000
  H   H274      1.0  0.05660  0.95554  0.64425  1.0000
  N   N13       1.0  0.13901  0.86188  0.76302  1.0000
  C   C173      1.0  0.14250  0.85080  0.72840  1.0000
  C   C174      1.0  0.15101  0.89655  0.76966  1.0000
  C   C175      1.0  0.10816  0.86329  0.75971  1.0000
  C   C176      1.0  0.15347  0.83707  0.79032  1.0000
  C   C177      1.0  0.12910  0.81705  0.71446  1.0000
  C   C178      1.0  0.18195  0.90015  0.77036  1.0000
  C   C179      1.0  0.09919  0.87583  0.79131  1.0000
  C   C180      1.0  0.16251  0.84948  0.82832  1.0000
  H   H275      1.0  0.13401  0.86989  0.70813  1.0000
  H   H276      1.0  0.16493  0.84834  0.72947  1.0000
  H   H277      1.0  0.14906  0.90674  0.79440  1.0000
  H   H278      1.0  0.13894  0.91424  0.74974  1.0000
  H   H279      1.0  0.09767  0.87961  0.73764  1.0000
  H   H280      1.0  0.09838  0.83830  0.75388  1.0000
  H   H281      1.0  0.14015  0.81461  0.78942  1.0000
  H   H282      1.0  0.17294  0.82806  0.78475  1.0000
  H   H283      1.0  0.10603  0.81842  0.70619  1.0000
  H   H284      1.0  0.13549  0.81032  0.69082  1.0000
  H   H285      1.0  0.13594  0.79657  0.73337  1.0000
  H   H286      1.0  0.18470  0.89909  0.74384  1.0000
  H   H287      1.0  0.18955  0.92505  0.78106  1.0000
  H   H288      1.0  0.19532  0.88121  0.78697  1.0000
  H   H289      1.0  0.10712  0.90109  0.79974  1.0000
  H   H290      1.0  0.10487  0.85788  0.81309  1.0000
  H   H291      1.0  0.07608  0.87777  0.78386  1.0000
  H   H292      1.0  0.16074  0.82864  0.84583  1.0000
  H   H293      1.0  0.15001  0.87005  0.83429  1.0000
  H   H294      1.0  0.18489  0.85659  0.83612  1.0000
  S   S57       1.0  0.07244  0.96992  0.78297  1.0000
  C   C181      1.0  0.17517  0.61367  0.51716  1.0000
  C   C182      1.0  0.16678  0.95401  0.84373  1.0000
  C   C183      1.0  0.27902  0.60042  0.67673  1.0000
  H   H295      1.0  0.03566  0.62880  0.61428  1.0000
  H   H296      1.0  0.27637  0.63324  0.57636  1.0000
  Fe  Fe27      1.0  0.03902  0.74043  0.50952  1.0000
  H   H297      1.0  0.01674  0.88645  0.55391  1.0000
  H   H298      1.0  0.23933  0.57728  0.67443  1.0000
  H   H299      1.0  0.23415  0.59970  0.56927  1.0000
  H   H300      1.0  0.13665  0.59470  0.52445  1.0000
  H   H301      1.0  0.22660  0.70341  0.92093  1.0000
  H   H302      1.0  0.29407  0.58375  0.66944  1.0000
  Fe  Fe28      1.0  0.06038  0.95906  0.72557  1.0000
  H   H303      1.0  0.99580  0.63606  0.92826  1.0000
  C   C184      1.0  0.00715  0.97126  0.59681  1.0000
  H   H304      1.0  0.16449  0.98565  0.91795  1.0000
  C   C185      1.0  0.19542  0.94771  0.85743  1.0000
  H   H305      1.0  0.03738  0.57647  0.64789  1.0000
  H   H306      1.0  0.20604  0.55887  0.58346  1.0000
  H   H307      1.0  0.29111  0.61796  0.61912  1.0000
  H   H308      1.0  0.21025  0.95990  0.84619  1.0000
  H   H309      1.0  0.04453  0.70157  0.78575  1.0000
  C   C186      1.0  0.14990  0.61637  0.52631  1.0000
  S   S58       1.0  0.10042  0.97795  0.71790  1.0000
  S   S59       1.0  0.00906  0.58400  0.98198  1.0000
  N   N14       1.0  0.03509  0.96508  0.59019  1.0000
  H   H310      1.0  0.99142  0.59953  0.77163  1.0000
  C   C187      1.0  0.24632  0.60612  0.59617  1.0000
  S   S60       1.0  0.99146  0.51132  0.76947  1.0000
  H   H311      1.0  0.01374  0.95822  0.65178  1.0000
  H   H312      1.0  0.28225  0.59616  0.70493  1.0000
  H   H313      1.0  0.09457  0.94842  0.61521  1.0000
  C   C188      1.0  0.99166  0.55190  0.91886  1.0000
  H   H314      1.0  0.19767  0.69350  0.53321  1.0000
  C   C189      1.0  0.24447  0.67951  0.97065  1.0000
  H   H315      1.0  0.27154  0.50049  0.64055  1.0000
  C   C190      1.0  0.03907  0.98811  0.56204  1.0000
  C   C191      1.0  0.05719  0.97335  0.62323  1.0000
  H   H316      1.0  0.25783  0.61342  0.98681  1.0000
  H   H317      1.0  0.20821  0.71300  0.95222  1.0000
  H   H318      1.0  0.99508  0.68598  0.73093  1.0000
  H   H319      1.0  0.00291  0.92328  0.62236  1.0000
  C   C192      1.0  0.99187  0.61198  0.91571  1.0000
  C   C193      1.0  0.98062  0.54978  0.88251  1.0000
  Fe  Fe29      1.0  0.48064  0.02901  0.21365  1.0000
  S   S61       1.0  0.44092  0.05185  0.21876  1.0000
  S   S62       1.0  0.50932  0.05248  0.18356  1.0000
  S   S63       1.0  0.56855  0.47652  0.27089  1.0000
  C   C194      1.0  0.57027  0.46433  0.11729  1.0000
  S   S64       1.0  0.49661  0.01812  0.27101  1.0000
  H   H320      1.0  0.60904  0.43952  0.14388  1.0000
  Fe  Fe30      1.0  0.45591  0.03814  0.27551  1.0000
  S   S65       1.0  0.45267  0.07440  0.31845  1.0000
  Fe  Fe31      1.0  0.55891  0.46393  0.21387  1.0000
  H   H321      1.0  0.46806  0.05355  0.05209  1.0000
  S   S66       1.0  0.53880  0.41607  0.18722  1.0000
  H   H322      1.0  0.63166  0.00044  0.02177  1.0000
  H   H323      1.0  0.56269  0.40008  0.08958  1.0000
  S   S67       1.0  0.58740  0.25990  0.02943  1.0000
  Fe  Fe32      1.0  0.53473  0.20480  0.05932  1.0000
  S   S68       1.0  0.58035  0.20636  0.08766  1.0000
  S   S69       1.0  0.50242  0.17765  0.08139  1.0000
  Fe  Fe33      1.0  0.57571  0.26217  0.07967  1.0000
  S   S70       1.0  0.59602  0.29949  0.12243  1.0000
  Fe  Fe34      1.0  0.58794  0.20413  0.03462  1.0000
  H   H324      1.0  0.49757  0.24766  0.10145  1.0000
  S   S71       1.0  0.52999  0.26099  0.05342  1.0000
  C   C195      1.0  0.54243  0.40964  0.07354  1.0000
  H   H325      1.0  0.56058  0.44462  0.12948  1.0000
  H   H326      1.0  0.62436  0.43514  0.32217  1.0000
  C   C196      1.0  0.55520  0.38506  0.16796  1.0000
  C   C197      1.0  0.58418  0.38189  0.17623  1.0000
  C   C198      1.0  0.59631  0.35589  0.16162  1.0000
  C   C199      1.0  0.57970  0.33323  0.13799  1.0000
  C   C200      1.0  0.55073  0.33714  0.12876  1.0000
  C   C201      1.0  0.53857  0.36250  0.14420  1.0000
  H   H327      1.0  0.59724  0.39898  0.19451  1.0000
  H   H328      1.0  0.61872  0.35316  0.16885  1.0000
  H   H329      1.0  0.53770  0.32031  0.11017  1.0000
  H   H330      1.0  0.51613  0.36485  0.13748  1.0000
  C   C202      1.0  0.47589  0.07864  0.36066  1.0000
  C   C203      1.0  0.50008  0.05948  0.37164  1.0000
  C   C204      1.0  0.51720  0.06245  0.40588  1.0000
  C   C205      1.0  0.51081  0.08524  0.42933  1.0000
  C   C206      1.0  0.48708  0.10515  0.41807  1.0000
  C   C207      1.0  0.46964  0.10166  0.38399  1.0000
  H   H331      1.0  0.50541  0.04207  0.35386  1.0000
  H   H332      1.0  0.53554  0.04697  0.41426  1.0000
  H   H333      1.0  0.48181  0.12269  0.43579  1.0000
  H   H334      1.0  0.45100  0.11668  0.37573  1.0000
  H   H335      1.0  0.64149  0.39295  0.36840  1.0000
  Fe  Fe35      1.0  0.54148  0.25553  0.00286  1.0000
  H   H336      1.0  0.51775  0.45826  0.12683  1.0000
  C   C208      1.0  0.50517  0.14316  0.11041  1.0000
  C   C209      1.0  0.48245  0.13550  0.12367  1.0000
  C   C210      1.0  0.48355  0.10851  0.14669  1.0000
  C   C211      1.0  0.50722  0.08823  0.15627  1.0000
  C   C212      1.0  0.52997  0.09601  0.14314  1.0000
  C   C213      1.0  0.52908  0.12336  0.12063  1.0000
  H   H337      1.0  0.46384  0.15061  0.11611  1.0000
  H   H338      1.0  0.46604  0.10328  0.15684  1.0000
  H   H339      1.0  0.54844  0.08061  0.15031  1.0000
  H   H340      1.0  0.54676  0.12879  0.11077  1.0000
  H   H341      1.0  0.51686  0.19431  0.40681  1.0000
  N   N15       1.0  0.56712  0.15400  0.40579  1.0000
  C   C214      1.0  0.54183  0.14491  0.37657  1.0000
  C   C215      1.0  0.55658  0.17049  0.43360  1.0000
  C   C216      1.0  0.58184  0.12206  0.41983  1.0000
  C   C217      1.0  0.58576  0.17641  0.39164  1.0000
  C   C218      1.0  0.54710  0.12313  0.34725  1.0000
  C   C219      1.0  0.53818  0.20153  0.42204  1.0000
  C   C220      1.0  0.60782  0.12506  0.45094  1.0000
  C   C221      1.0  0.60601  0.19947  0.41790  1.0000
  H   H342      1.0  0.52616  0.13158  0.38670  1.0000
  H   H343      1.0  0.53100  0.16764  0.36375  1.0000
  H   H344      1.0  0.57367  0.17814  0.45623  1.0000
  H   H345      1.0  0.54415  0.15244  0.44443  1.0000
  H   H346      1.0  0.56717  0.10473  0.42754  1.0000
  H   H347      1.0  0.58915  0.10874  0.39963  1.0000
  H   H348      1.0  0.59836  0.16139  0.37808  1.0000
  H   H349      1.0  0.57284  0.19337  0.37165  1.0000
  H   H350      1.0  0.52596  0.44849  0.03661  1.0000
  H   H351      1.0  0.56397  0.13318  0.33700  1.0000
  H   H352      1.0  0.53469  0.39113  0.05247  1.0000
  C   C222      1.0  0.45703  0.05538  0.07265  1.0000
  H   H353      1.0  0.53595  0.21502  0.44535  1.0000
  H   H354      1.0  0.54728  0.21914  0.40689  1.0000
  C   C223      1.0  0.64497  0.43757  0.33985  1.0000
  H   H355      1.0  0.43313  0.01507  0.04266  1.0000
  H   H356      1.0  0.43368  0.02419  0.37737  1.0000
  H   H357      1.0  0.62532  0.20283  0.40955  1.0000
  H   H358      1.0  0.61270  0.19029  0.44482  1.0000
  H   H359      1.0  0.59709  0.22485  0.41768  1.0000
  N   N16       1.0  0.52318  0.24623  0.17291  1.0000
  C   C224      1.0  0.50096  0.26979  0.15293  1.0000
  C   C225      1.0  0.53443  0.26047  0.20887  1.0000
  C   C226      1.0  0.50925  0.21328  0.17546  1.0000
  C   C227      1.0  0.54530  0.24236  0.15379  1.0000
  H   H360      1.0  0.47244  0.04873  0.09717  1.0000
  C   C228      1.0  0.54500  0.29682  0.21047  1.0000
  C   C229      1.0  0.52804  0.18510  0.19482  1.0000
  C   C230      1.0  0.57525  0.23459  0.17580  1.0000
  H   H361      1.0  0.48571  0.27560  0.16793  1.0000
  H   H362      1.0  0.51026  0.29410  0.14869  1.0000
  H   H363      1.0  0.55174  0.24522  0.22478  1.0000
  H   H364      1.0  0.51812  0.25982  0.22313  1.0000
  H   H365      1.0  0.49197  0.21668  0.18787  1.0000
  H   H366      1.0  0.49941  0.20288  0.14932  1.0000
  H   H367      1.0  0.63331  0.46916  0.43395  1.0000
  H   H368      1.0  0.54192  0.17572  0.17948  1.0000
  H   H369      1.0  0.63659  0.05690  0.03514  1.0000
  C   C231      1.0  0.48405  0.25792  0.11668  1.0000
  H   H370      1.0  0.34353  0.49653  0.45961  1.0000
  H   H371      1.0  0.55794  0.30256  0.23709  1.0000
  H   H372      1.0  0.55790  0.30140  0.19242  1.0000
  H   H373      1.0  0.52738  0.31474  0.20455  1.0000
  H   H374      1.0  0.54015  0.19216  0.22132  1.0000
  C   C232      1.0  0.39139  0.00793  0.07940  1.0000
  C   C233      1.0  0.52617  0.48999  0.08552  1.0000
  H   H375      1.0  0.33666  0.47206  0.49328  1.0000
  H   H376      1.0  0.58849  0.22934  0.15822  1.0000
  H   H377      1.0  0.57656  0.21262  0.19271  1.0000
  H   H378      1.0  0.47257  0.27935  0.10195  1.0000
  H   H379      1.0  0.46823  0.23900  0.11837  1.0000
  C   C234      1.0  0.60007  0.45263  0.11894  1.0000
  H   H380      1.0  0.49603  0.44945  0.08315  1.0000
  H   H381      1.0  0.47681  0.00110  0.13673  1.0000
  H   H382      1.0  0.55164  0.09693  0.35578  1.0000
  H   H383      1.0  0.54712  0.26529  0.13899  1.0000
  H   H384      1.0  0.41187  0.08423  0.09756  1.0000
  S   S72       1.0  0.54220  0.19928  0.00620  1.0000
  N   N17       1.0  0.55232  0.47340  0.08174  1.0000
  H   H385      1.0  0.48412  0.01122  0.42207  1.0000
  H   H386      1.0  0.53930  0.22252  0.13367  1.0000
  H   H387      1.0  0.51468  0.16362  0.19749  1.0000
  H   H388      1.0  0.41342  0.05034  0.04850  1.0000
  H   H389      1.0  0.58500  0.25627  0.19164  1.0000
  H   H390      1.0  0.61460  0.09962  0.46052  1.0000
  C   C235      1.0  0.63560  0.06355  0.00790  1.0000
  H   H391      1.0  0.57419  0.47384  0.35721  1.0000
  H   H392      1.0  0.41775  0.08447  0.14368  1.0000
  H   H393      1.0  0.60061  0.43528  0.09762  1.0000
  H   H394      1.0  0.52750  0.40986  0.08940  1.0000
  H   H395      1.0  0.37904  0.03082  0.07017  1.0000
  C   C236      1.0  0.42059  0.00632  0.35898  1.0000
  C   C237      1.0  0.42690  0.03657  0.12380  1.0000
  H   H396      1.0  0.38767  0.06403  0.11775  1.0000
  S   S73       1.0  0.53311  0.08720  0.47222  1.0000
  C   C238      1.0  0.43048  0.03338  0.06241  1.0000
  C   C239      1.0  0.50691  0.46903  0.10136  1.0000
  H   H397      1.0  0.52775  0.12227  0.32544  1.0000
  C   C240      1.0  0.40995  0.06916  0.11992  1.0000
  H   H398      1.0  0.49041  0.48552  0.10603  1.0000
  H   H399      1.0  0.44903  0.04341  0.13483  1.0000
  H   H400      1.0  0.60385  0.13863  0.47314  1.0000
  S   S74       1.0  0.61793  0.17445  0.01126  1.0000
  H   H401      1.0  0.54182  0.49611  0.01255  1.0000
  H   H402      1.0  0.45145  0.08210  0.07342  1.0000
  C   C241      1.0  0.54553  0.44389  0.05740  1.0000
  H   H403      1.0  0.57235  0.48612  0.13504  1.0000
  H   H404      1.0  0.56185  0.44026  0.04349  1.0000
  S   S75       1.0  0.59952  0.48359  0.20820  1.0000
  H   H405      1.0  0.42164  0.02189  0.14473  1.0000
  H   H406      1.0  0.62549  0.13646  0.44323  1.0000
  H   H407      1.0  0.58719  0.48773  0.06207  1.0000
  H   H408      1.0  0.59900  0.09325  0.00678  1.0000
  H   H409      1.0  0.45055  0.01063  0.43137  1.0000
  N   N18       1.0  0.42221  0.01572  0.09137  1.0000
  H   H410      1.0  0.39852  0.01363  0.35542  1.0000
  C   C242      1.0  0.35221  0.48917  0.48719  1.0000
  H   H411      1.0  0.42488  0.00951  0.33344  1.0000
  Fe  Fe36      1.0  0.42317  0.99964  0.20976  1.0000
  H   H412      1.0  0.37114  0.47426  0.48935  1.0000
  H   H413      1.0  0.62221  0.47180  0.38775  1.0000
  H   H414      1.0  0.63703  0.26271  0.47883  1.0000
  H   H415      1.0  0.61378  0.47433  0.11835  1.0000
  C   C243      1.0  0.63280  0.48566  0.41156  1.0000
  H   H416      1.0  0.47201  0.99988  0.36491  1.0000
  H   H417      1.0  0.38382  0.99871  0.10133  1.0000
  C   C244      1.0  0.63244  0.00390  0.99450  1.0000
  C   C245      1.0  0.46790  0.47098  0.88205  1.0000
  S   S76       1.0  0.59011  0.12400  0.53912  1.0000
  Fe  Fe37      1.0  0.53861  0.17912  0.57116  1.0000
  S   S77       1.0  0.58465  0.17940  0.59686  1.0000
  S   S78       1.0  0.50770  0.21488  0.58592  1.0000
  Fe  Fe38      1.0  0.58958  0.17971  0.54249  1.0000
  S   S79       1.0  0.61155  0.21565  0.51419  1.0000
  Fe  Fe39      1.0  0.58080  0.12313  0.59092  1.0000
  S   S80       1.0  0.60388  0.08424  0.62976  1.0000
  H   H418      1.0  0.51839  0.46716  0.86697  1.0000
  S   S81       1.0  0.53443  0.12271  0.56824  1.0000
  Fe  Fe40      1.0  0.43012  0.39722  0.69582  1.0000
  S   S82       1.0  0.47302  0.41525  0.69599  1.0000
  S   S83       1.0  0.39425  0.40275  0.64604  1.0000
  Fe  Fe41      1.0  0.45306  0.36288  0.76765  1.0000
  S   S84       1.0  0.49646  0.37933  0.77099  1.0000
  S   S85       1.0  0.44449  0.33083  0.81107  1.0000
  Fe  Fe42      1.0  0.47702  0.42883  0.75192  1.0000
  S   S86       1.0  0.49813  0.47536  0.78043  1.0000
  Fe  Fe43      1.0  0.48771  0.36358  0.71486  1.0000
  S   S87       1.0  0.52057  0.33099  0.69961  1.0000
  S   S88       1.0  0.43353  0.41320  0.75092  1.0000
  S   S89       1.0  0.44491  0.34484  0.71238  1.0000
  S   S90       1.0  0.53096  0.29111  0.95572  1.0000
  C   C246      1.0  0.60355  0.29175  0.60347  1.0000
  H   H419      1.0  0.61588  0.24130  0.59065  1.0000
  C   C247      1.0  0.46930  0.31834  0.85021  1.0000
  C   C248      1.0  0.46137  0.29553  0.87246  1.0000
  C   C249      1.0  0.48007  0.28609  0.90437  1.0000
  C   C250      1.0  0.50694  0.29969  0.91466  1.0000
  C   C251      1.0  0.51490  0.32229  0.89220  1.0000
  C   C252      1.0  0.49634  0.33139  0.86017  1.0000
  H   H420      1.0  0.44051  0.28529  0.86516  1.0000
  H   H421      1.0  0.47353  0.26882  0.92132  1.0000
  H   H422      1.0  0.53561  0.33297  0.89981  1.0000
  H   H423      1.0  0.50283  0.34903  0.84355  1.0000
  C   C253      1.0  0.37124  0.43607  0.62799  1.0000
  C   C254      1.0  0.37020  0.46569  0.64604  1.0000
  C   C255      1.0  0.53770  0.27482  0.52786  1.0000
  H   H424      1.0  0.60251  0.08478  0.96469  1.0000
  H   H425      1.0  0.42527  0.25751  0.72273  1.0000
  C   C256      1.0  0.35320  0.43241  0.59438  1.0000
  H   H426      1.0  0.62874  0.33337  0.52651  1.0000
  C   C257      1.0  0.35099  0.49089  0.63091  1.0000
  H   H427      1.0  0.50530  0.19445  0.72123  1.0000
  C   C258      1.0  0.51171  0.24614  0.61871  1.0000
  C   C259      1.0  0.53727  0.25269  0.64294  1.0000
  C   C260      1.0  0.53949  0.27854  0.66756  1.0000
  C   C261      1.0  0.51625  0.29810  0.66852  1.0000
  C   C262      1.0  0.49062  0.29113  0.64475  1.0000
  C   C263      1.0  0.48843  0.26543  0.62001  1.0000
  H   H428      1.0  0.55533  0.23794  0.64263  1.0000
  H   H429      1.0  0.55941  0.28352  0.68593  1.0000
  H   H430      1.0  0.47252  0.30584  0.64506  1.0000
  H   H431      1.0  0.46853  0.26062  0.60152  1.0000
  H   H432      1.0  0.44042  0.24191  0.76533  1.0000
  C   C264      1.0  0.48931  0.19244  0.78299  1.0000
  H   H433      1.0  0.40911  0.46206  0.58439  1.0000
  N   N19       1.0  0.58242  0.29951  0.56955  1.0000
  C   C265      1.0  0.60245  0.02271  0.65957  1.0000
  C   C266      1.0  0.58673  0.05030  0.64363  1.0000
  C   C267      1.0  0.55813  0.05085  0.64055  1.0000
  C   C268      1.0  0.54556  0.02452  0.65402  1.0000
  H   H434      1.0  0.55503  0.26204  0.58163  1.0000
  H   H435      1.0  0.56972  0.02552  0.77916  1.0000
  H   H436      1.0  0.54578  0.07194  0.62852  1.0000
  C   C269      1.0  0.49674  0.22915  0.79197  1.0000
  C   C270      1.0  0.54857  0.32762  0.59950  1.0000
  H   H437      1.0  0.59049  0.05253  0.98881  1.0000
  H   H438      1.0  0.62458  0.02203  0.66202  1.0000
  H   H439      1.0  0.60623  0.28239  0.53498  1.0000
  H   H440      1.0  0.46864  0.18947  0.76404  1.0000
  H   H441      1.0  0.52951  0.26517  0.73709  1.0000
  H   H442      1.0  0.38385  0.46889  0.67191  1.0000
  H   H443      1.0  0.64512  0.09786  0.95311  1.0000
  H   H444      1.0  0.50655  0.48842  0.91952  1.0000
  H   H445      1.0  0.59299  0.28277  0.62293  1.0000
  C   C271      1.0  0.59630  0.30552  0.54107  1.0000
  H   H446      1.0  0.62117  0.00253  0.84616  1.0000
  H   H447      1.0  0.41567  0.42676  0.85599  1.0000
  C   C272      1.0  0.40096  0.47326  0.55821  1.0000
  H   H448      1.0  0.47104  0.26898  0.71298  1.0000
  H   H449      1.0  0.55322  0.33926  0.54874  1.0000
  H   H450      1.0  0.48597  0.29421  0.78868  1.0000
  C   C273      1.0  0.59227  0.06272  0.73778  1.0000
  C   C274      1.0  0.57775  0.99980  0.78154  1.0000
  N   N20       1.0  0.62627  0.02500  0.78253  1.0000
  H   H451      1.0  0.38141  0.45971  0.54598  1.0000
  H   H452      1.0  0.56112  0.32128  0.62603  1.0000
  H   H453      1.0  0.53505  0.21128  0.71049  1.0000
  C   C275      1.0  0.56676  0.33054  0.57408  1.0000
  H   H454      1.0  0.50558  0.17988  0.77353  1.0000
  H   H455      1.0  0.53151  0.30920  0.59079  1.0000
  H   H456      1.0  0.63691  0.06756  0.75545  1.0000
  H   H457      1.0  0.53217  0.32058  0.80848  1.0000
  H   H458      1.0  0.58146  0.35145  0.58392  1.0000
  H   H459      1.0  0.44088  0.37255  0.88519  1.0000
  C   C276      1.0  0.56307  0.27004  0.55962  1.0000
  H   H460      1.0  0.50026  0.30469  0.75418  1.0000
  H   H461      1.0  0.50178  0.22959  0.69244  1.0000
  C   C277      1.0  0.62547  0.26505  0.60199  1.0000
  H   H462      1.0  0.52349  0.02551  0.65200  1.0000
  H   H463      1.0  0.54847  0.28672  0.79317  1.0000
  H   H464      1.0  0.63820  0.25952  0.62875  1.0000
  H   H465      1.0  0.51343  0.43192  0.91895  1.0000
  H   H466      1.0  0.58064  0.31221  0.51647  1.0000
  C   C278      1.0  0.33435  0.45787  0.57898  1.0000
  H   H467      1.0  0.64010  0.27373  0.58739  1.0000
  C   C279      1.0  0.50211  0.28675  0.77583  1.0000
  C   C280      1.0  0.60514  0.07364  0.99066  1.0000
  H   H468      1.0  0.58685  0.07899  0.75727  1.0000
  H   H469      1.0  0.53920  0.23248  0.76757  1.0000
  H   H470      1.0  0.60884  0.35840  0.54778  1.0000
  H   H471      1.0  0.47610  0.36770  0.91266  1.0000
  H   H472      1.0  0.46592  0.22646  0.72127  1.0000
  H   H473      1.0  0.44394  0.28533  0.75513  1.0000
  H   H474      1.0  0.54149  0.43265  0.87848  1.0000
  H   H475      1.0  0.48830  0.17920  0.80695  1.0000
  H   H476      1.0  0.47754  0.48180  0.93811  1.0000
  C   C281      1.0  0.44377  0.25949  0.74555  1.0000
  H   H477      1.0  0.41689  0.46852  0.54422  1.0000
  Fe  Fe44      1.0  0.54370  0.12588  0.51618  1.0000
  H   H478      1.0  0.56322  0.00522  0.56061  1.0000
  C   C282      1.0  0.48365  0.49015  0.91488  1.0000
  H   H479      1.0  0.61996  0.04149  0.93836  1.0000
  H   H480      1.0  0.42086  0.44812  0.81893  1.0000
  H   H481      1.0  0.48184  0.23889  0.80588  1.0000
  C   C283      1.0  0.61842  0.33348  0.54783  1.0000
  H   H482      1.0  0.62439  0.03271  0.72855  1.0000
  H   H483      1.0  0.61503  0.31459  0.61516  1.0000
  S   S91       1.0  0.54348  0.18188  0.51683  1.0000
  H   H484      1.0  0.47385  0.48212  0.85984  1.0000
  H   H485      1.0  0.43954  0.49049  0.77397  1.0000
  H   H486      1.0  0.53854  0.35203  0.60125  1.0000
  C   C284      1.0  0.51516  0.21789  0.71628  1.0000
  C   C285      1.0  0.53034  0.29347  0.80274  1.0000
  N   N21       1.0  0.49738  0.25159  0.76205  1.0000
  H   H487      1.0  0.44780  0.37324  0.93119  1.0000
  H   H488      1.0  0.57598  0.04354  0.72819  1.0000
  H   H489      1.0  0.63797  0.06786  0.81619  1.0000
  N   N22       1.0  0.47206  0.43379  0.88297  1.0000
  C   C286      1.0  0.50254  0.42479  0.89181  1.0000
  C   C287      1.0  0.46006  0.41920  0.91050  1.0000
  C   C288      1.0  0.45787  0.42018  0.84754  1.0000
  C   C289      1.0  0.51923  0.43960  0.86810  1.0000
  C   C290      1.0  0.45613  0.38103  0.90937  1.0000
  C   C291      1.0  0.42596  0.42517  0.83491  1.0000
  H   H490      1.0  0.53171  0.28075  0.82770  1.0000
  H   H491      1.0  0.50515  0.39733  0.89089  1.0000
  H   H492      1.0  0.43967  0.43068  0.90999  1.0000
  H   H493      1.0  0.47362  0.42514  0.93683  1.0000
  H   H494      1.0  0.46630  0.43223  0.82751  1.0000
  H   H495      1.0  0.46273  0.39340  0.84530  1.0000
  H   H496      1.0  0.61026  0.00478  0.97897  1.0000
  H   H497      1.0  0.41635  0.40337  0.81893  1.0000
  H   H498      1.0  0.60283  0.05671  0.80874  1.0000
  C   C292      1.0  0.47010  0.25118  0.73402  1.0000
  H   H499      1.0  0.54404  0.27785  0.50360  1.0000
  H   H500      1.0  0.44542  0.47722  0.87727  1.0000
  H   H501      1.0  0.35374  0.40958  0.58020  1.0000
  C   C293      1.0  0.52125  0.24256  0.74709  1.0000
  H   H502      1.0  0.57442  0.24798  0.55366  1.0000
  H   H503      1.0  0.51734  0.22893  0.81167  1.0000
  H   H504      1.0  0.51238  0.42914  0.84151  1.0000
  H   H505      1.0  0.32051  0.45445  0.55327  1.0000
  H   H506      1.0  0.52415  0.29572  0.53108  1.0000
  C   C294      1.0  0.64252  0.04266  0.95235  1.0000
  C   C295      1.0  0.62134  0.04692  0.75092  1.0000
  H   H507      1.0  0.62236  0.04231  0.86661  1.0000
  H   H508      1.0  0.63506  0.32999  0.57227  1.0000
  C   C296      1.0  0.63062  0.02768  0.84811  1.0000
  C   C297      1.0  0.33292  0.48715  0.59734  1.0000
  H   H509      1.0  0.59205  0.07877  0.71512  1.0000
  H   H510      1.0  0.52452  0.25208  0.52464  1.0000
  C   C298      1.0  0.62383  0.04583  0.81291  1.0000
  C   C299      1.0  0.64607  0.23174  0.52446  1.0000
  S   S92       1.0  0.49559  0.92386  0.29104  1.0000
  H   H511      1.0  0.55263  0.56068  0.37918  1.0000
  H   H512      1.0  0.48751  0.76922  0.01185  1.0000
  H   H513      1.0  0.40570  0.93354  0.15208  1.0000
  Fe  Fe45      1.0  0.57652  0.53234  0.19440  1.0000
  H   H514      1.0  0.35898  0.98252  0.04016  1.0000
  S   S93       1.0  0.58195  0.56060  0.14699  1.0000
  Fe  Fe46      1.0  0.54948  0.52709  0.25445  1.0000
  S   S94       1.0  0.51995  0.55094  0.28280  1.0000
  H   H515      1.0  0.47897  0.99290  0.09288  1.0000
  S   S95       1.0  0.58928  0.55034  0.24996  1.0000
  C   C300      1.0  0.63727  0.54955  0.37573  1.0000
  Fe  Fe47      1.0  0.44661  0.70675  0.43369  1.0000
  S   S96       1.0  0.49255  0.70228  0.46078  1.0000
  S   S97       1.0  0.41643  0.68481  0.46233  1.0000
  Fe  Fe48      1.0  0.45837  0.76180  0.38433  1.0000
  S   S98       1.0  0.50423  0.76070  0.40956  1.0000
  S   S99       1.0  0.43830  0.79725  0.33998  1.0000
  Fe  Fe49      1.0  0.49871  0.70454  0.40674  1.0000
  S   S100      1.0  0.53068  0.67621  0.38538  1.0000
  Fe  Fe50      1.0  0.49359  0.75848  0.46073  1.0000
  S   S101      1.0  0.45273  0.70586  0.37972  1.0000
  S   S102      1.0  0.44772  0.76271  0.43500  1.0000
  H   H516      1.0  0.41133  0.54238  0.45804  1.0000
  C   C301      1.0  0.38856  0.65544  0.45099  1.0000
  H   H517      1.0  0.41224  0.95512  0.34799  1.0000
  C   C302      1.0  0.34922  0.62829  0.46598  1.0000
  C   C303      1.0  0.34472  0.60764  0.43684  1.0000
  C   C304      1.0  0.36218  0.61120  0.41475  1.0000
  C   C305      1.0  0.38390  0.63501  0.42166  1.0000
  H   H518      1.0  0.57109  0.55313  0.42450  1.0000
  C   C306      1.0  0.38209  0.98222  0.04981  1.0000
  H   H519      1.0  0.39715  0.63735  0.40446  1.0000
  C   C307      1.0  0.52285  0.58702  0.30970  1.0000
  C   C308      1.0  0.54597  0.60831  0.31656  1.0000
  C   C309      1.0  0.54778  0.63568  0.33934  1.0000
  C   C310      1.0  0.52645  0.64242  0.35531  1.0000
  C   C311      1.0  0.50310  0.62152  0.34788  1.0000
  C   C312      1.0  0.50137  0.59405  0.32531  1.0000
  H   H520      1.0  0.56256  0.60350  0.30458  1.0000
  H   H521      1.0  0.56595  0.65164  0.34480  1.0000
  H   H522      1.0  0.48655  0.62615  0.35999  1.0000
  H   H523      1.0  0.48334  0.57786  0.32020  1.0000
  C   C313      1.0  0.51505  0.60520  0.05434  1.0000
  C   C314      1.0  0.50749  0.59223  0.08313  1.0000
  C   C315      1.0  0.52767  0.57915  0.11193  1.0000
  C   C316      1.0  0.55578  0.57868  0.11227  1.0000
  C   C317      1.0  0.56340  0.59191  0.08360  1.0000
  C   C318      1.0  0.54319  0.60506  0.05478  1.0000
  H   H524      1.0  0.48580  0.59222  0.08314  1.0000
  H   H525      1.0  0.52145  0.56920  0.13376  1.0000
  H   H526      1.0  0.58508  0.59183  0.08360  1.0000
  H   H527      1.0  0.54940  0.61507  0.03296  1.0000
  C   C319      1.0  0.33811  0.95829  0.12558  1.0000
  C   C320      1.0  0.47902  0.88916  0.30455  1.0000
  C   C321      1.0  0.49465  0.86850  0.33111  1.0000
  C   C322      1.0  0.48234  0.84083  0.34288  1.0000
  C   C323      1.0  0.45430  0.83312  0.32774  1.0000
  C   C324      1.0  0.43870  0.85367  0.30105  1.0000
  C   C325      1.0  0.45091  0.88163  0.28960  1.0000
  H   H528      1.0  0.51643  0.87402  0.34276  1.0000
  H   H529      1.0  0.49464  0.82528  0.36338  1.0000
  H   H530      1.0  0.41702  0.84786  0.28902  1.0000
  H   H531      1.0  0.43862  0.89717  0.26903  1.0000
  H   H532      1.0  0.63154  0.60044  0.35389  1.0000
  S   S103      1.0  0.46232  0.97714  0.20199  1.0000
  H   H533      1.0  0.56341  0.59431  0.40846  1.0000
  C   C326      1.0  0.38396  0.93385  0.13768  1.0000
  H   H534      1.0  0.59915  0.51135  0.42395  1.0000
  C   C327      1.0  0.41567  0.66371  0.01106  1.0000
  N   N23       1.0  0.43952  0.71896  0.03902  1.0000
  C   C328      1.0  0.46613  0.73800  0.04105  1.0000
  C   C329      1.0  0.44253  0.70389  0.07431  1.0000
  C   C330      1.0  0.41586  0.74372  0.03091  1.0000
  C   C331      1.0  0.43575  0.69311  0.01074  1.0000
  C   C332      1.0  0.46588  0.76108  0.01018  1.0000
  C   C333      1.0  0.46660  0.67872  0.08643  1.0000
  C   C334      1.0  0.37109  0.65185  0.47307  1.0000
  H   H535      1.0  0.43373  0.87229  0.38166  1.0000
  H   H536      1.0  0.47199  0.75393  0.06473  1.0000
  H   H537      1.0  0.48394  0.72062  0.04328  1.0000
  H   H538      1.0  0.42344  0.69093  0.07611  1.0000
  H   H539      1.0  0.44564  0.72389  0.09432  1.0000
  H   H540      1.0  0.42069  0.76497  0.04953  1.0000
  H   H541      1.0  0.41313  0.75471  0.00472  1.0000
  Fe  Fe51      1.0  0.60792  0.49920  0.26412  1.0000
  H   H542      1.0  0.45616  0.68173  0.01107  1.0000
  C   C335      1.0  0.46951  0.98500  0.11362  1.0000
  H   H543      1.0  0.43352  0.96646  0.07731  1.0000
  C   C336      1.0  0.45322  0.91950  0.37555  1.0000
  H   H544      1.0  0.46546  0.66721  0.11120  1.0000
  H   H545      1.0  0.46525  0.65817  0.06759  1.0000
  H   H546      1.0  0.48731  0.69084  0.09156  1.0000
  H   H547      1.0  0.56696  0.52918  0.02143  1.0000
  H   H548      1.0  0.48583  0.94759  0.43114  1.0000
  H   H549      1.0  0.61889  0.56769  0.32223  1.0000
  H   H550      1.0  0.44169  0.89692  0.42003  1.0000
  C   C337      1.0  0.56815  0.49890  0.06681  1.0000
  H   H551      1.0  0.38728  0.89093  0.10649  1.0000
  Fe  Fe52      1.0  0.47406  0.96876  0.25993  1.0000
  C   C338      1.0  0.38676  0.73075  0.03071  1.0000
  C   C339      1.0  0.55208  0.51493  0.03213  1.0000
  S   S104      1.0  0.31854  0.57609  0.42786  1.0000
  C   C340      1.0  0.47228  0.97238  0.36316  1.0000
  H   H552      1.0  0.45160  0.94982  0.43595  1.0000
  N   N24       1.0  0.45407  0.95641  0.38321  1.0000
  C   C341      1.0  0.36642  0.95859  0.14444  1.0000
  N   N25       1.0  0.48620  0.74262  0.28163  1.0000
  C   C342      1.0  0.50165  0.74930  0.31904  1.0000
  C   C343      1.0  0.46119  0.72155  0.28207  1.0000
  C   C344      1.0  0.47649  0.77581  0.26508  1.0000
  C   C345      1.0  0.50586  0.72568  0.26431  1.0000
  C   C346      1.0  0.52737  0.77239  0.32557  1.0000
  C   C347      1.0  0.46767  0.68616  0.29711  1.0000
  C   C348      1.0  0.45949  0.77557  0.22676  1.0000
  C   C349      1.0  0.49277  0.70675  0.23000  1.0000
  H   H553      1.0  0.48739  0.76030  0.33315  1.0000
  H   H554      1.0  0.50947  0.72576  0.33276  1.0000
  H   H555      1.0  0.44661  0.71845  0.25605  1.0000
  H   H556      1.0  0.44842  0.73429  0.29724  1.0000
  H   H557      1.0  0.46357  0.78874  0.27978  1.0000
  H   H558      1.0  0.49443  0.79255  0.26600  1.0000
  H   H559      1.0  0.52081  0.74414  0.25888  1.0000
  H   H560      1.0  0.51906  0.70726  0.28237  1.0000
  H   H561      1.0  0.54276  0.76375  0.31212  1.0000
  H   H562      1.0  0.52151  0.79866  0.31873  1.0000
  H   H563      1.0  0.53812  0.77231  0.35377  1.0000
  H   H564      1.0  0.47790  0.68669  0.32527  1.0000
  H   H565      1.0  0.44782  0.67230  0.29375  1.0000
  H   H566      1.0  0.48068  0.67155  0.28402  1.0000
  H   H567      1.0  0.43996  0.76100  0.22204  1.0000
  H   H568      1.0  0.47220  0.76726  0.20957  1.0000
  H   H569      1.0  0.45307  0.80159  0.21902  1.0000
  H   H570      1.0  0.50241  0.71551  0.20965  1.0000
  H   H571      1.0  0.47003  0.70948  0.21945  1.0000
  H   H572      1.0  0.49757  0.67971  0.23339  1.0000
  H   H573      1.0  0.53652  0.53327  0.03591  1.0000
  H   H574      1.0  0.39055  0.98784  0.02759  1.0000
  C   C350      1.0  0.56827  0.50040  0.35830  1.0000
  H   H575      1.0  0.45351  0.78397  0.01061  1.0000
  H   H576      1.0  0.51401  0.97601  0.35691  1.0000
  C   C351      1.0  0.32744  0.93367  0.10018  1.0000
  S   S105      1.0  0.53554  0.51204  0.19788  1.0000
  H   H577      1.0  0.41205  0.90704  0.38370  1.0000
  C   C352      1.0  0.50336  0.96258  0.37393  1.0000
  H   H578      1.0  0.57578  0.51953  0.08561  1.0000
  C   C353      1.0  0.39721  0.54909  0.47415  1.0000
  C   C354      1.0  0.43755  0.98315  0.10028  1.0000
  H   H579      1.0  0.56197  0.50505  0.38220  1.0000
  C   C355      1.0  0.56965  0.56916  0.40164  1.0000
  H   H580      1.0  0.33589  0.62607  0.48309  1.0000
  C   C356      1.0  0.46568  0.96104  0.42178  1.0000
  C   C357      1.0  0.42454  0.96957  0.37089  1.0000
  H   H581      1.0  0.61234  0.58561  0.41383  1.0000
  H   H582      1.0  0.42749  0.63993  0.01608  1.0000
  C   C358      1.0  0.59136  0.52356  0.35220  1.0000
  H   H583      1.0  0.44640  0.91523  0.34705  1.0000
  H   H584      1.0  0.53169  0.51277  0.10180  1.0000
  H   H585      1.0  0.46408  0.96659  0.33506  1.0000
  N   N26       1.0  0.61023  0.54042  0.38365  1.0000
  H   H586      1.0  0.42989  0.96958  0.12014  1.0000
  H   H587      1.0  0.38589  0.72048  0.05599  1.0000
  H   H588      1.0  0.37875  0.71262  0.00952  1.0000
  H   H589      1.0  0.59298  0.58963  0.36976  1.0000
  H   H590      1.0  0.58101  0.54242  0.33252  1.0000
  C   C359      1.0  0.59743  0.57227  0.39212  1.0000
  S   S106      1.0  0.33366  0.87924  0.05929  1.0000
  H   H591      1.0  0.51391  0.97010  0.40092  1.0000
  H   H592      1.0  0.37195  0.75203  0.02514  1.0000
  C   C360      1.0  0.34512  0.90932  0.09293  1.0000
  H   H593      1.0  0.35893  0.59537  0.39214  1.0000
  H   H594      1.0  0.50665  0.93573  0.37012  1.0000
  S   S107      1.0  0.48832  0.62091  0.01880  1.0000
  H   H595      1.0  0.41337  0.96615  0.39121  1.0000
  H   H596      1.0  0.47420  0.90804  0.38480  1.0000
  C   C361      1.0  0.37342  0.90964  0.11185  1.0000
  S   S108      1.0  0.37929  0.99202  0.17378  1.0000
  C   C362      1.0  0.47049  0.99723  0.43474  1.0000
  H   H597      1.0  0.40300  0.66575  0.02957  1.0000
  H   H598      1.0  0.32436  0.97738  0.13044  1.0000
  C   C363      1.0  0.43393  0.89828  0.39139  1.0000
  S   S109      1.0  0.43390  0.98848  0.26697  1.0000
  H   H599      1.0  0.54915  0.50355  0.33655  1.0000
  H   H600      1.0  0.38772  0.95646  0.05923  1.0000
  H   H601      1.0  0.39993  0.57622  0.47936  1.0000
  C   C364      1.0  0.61762  0.51838  0.41531  1.0000
  H   H602      1.0  0.47766  0.95966  0.12169  1.0000
  H   H603      1.0  0.60396  0.50782  0.33922  1.0000
  H   H604      1.0  0.37565  0.54404  0.45834  1.0000
  C   C365      1.0  0.63516  0.57470  0.34600  1.0000
  H   H605      1.0  0.63119  0.53215  0.43782  1.0000
  H   H606      1.0  0.48107  0.99720  0.46297  1.0000
  H   H607      1.0  0.51274  0.49843  0.06006  1.0000
  H   H608      1.0  0.34468  0.54102  0.49410  1.0000
  Fe  Fe53      1.0  0.45797  0.62822  0.88792  1.0000
  S   S110      1.0  0.50224  0.62913  0.92086  1.0000
  S   S111      1.0  0.43901  0.58698  0.84924  1.0000
  Fe  Fe54      1.0  0.44288  0.69360  0.91987  1.0000
  S   S112      1.0  0.48667  0.69855  0.95455  1.0000
  S   S113      1.0  0.41424  0.73767  0.92226  1.0000
  Fe  Fe55      1.0  0.50038  0.68425  0.90734  1.0000
  S   S114      1.0  0.53607  0.70891  0.89047  1.0000
  Fe  Fe56      1.0  0.48444  0.64356  0.96501  1.0000
  S   S115      1.0  0.45695  0.68230  0.87216  1.0000
  S   S116      1.0  0.43981  0.63952  0.93245  1.0000
  H   H609      1.0  0.54614  0.95021  0.54337  1.0000
  H   H610      1.0  0.51337  0.73883  0.59621  1.0000
  Fe  Fe57      1.0  0.56501  0.91787  0.71403  1.0000
  S   S117      1.0  0.60537  0.90050  0.70633  1.0000
  S   S118      1.0  0.54451  0.96532  0.68789  1.0000
  Fe  Fe58      1.0  0.56035  0.85617  0.75894  1.0000
  S   S119      1.0  0.60115  0.83568  0.75405  1.0000
  S   S120      1.0  0.52932  0.83004  0.78364  1.0000
  Fe  Fe59      1.0  0.61695  0.88883  0.76351  1.0000
  Fe  Fe60      1.0  0.58538  0.84973  0.69744  1.0000
  S   S121      1.0  0.58967  0.81501  0.65380  1.0000
  S   S122      1.0  0.57707  0.90868  0.77168  1.0000
  S   S123      1.0  0.54408  0.86783  0.70175  1.0000
  C   C366      1.0  0.52663  0.79924  0.54702  1.0000
  C   C367      1.0  0.55088  0.78007  0.55704  1.0000
  C   C368      1.0  0.56973  0.78472  0.59008  1.0000
  C   C369      1.0  0.56427  0.80799  0.61371  1.0000
  C   C370      1.0  0.53943  0.82608  0.60419  1.0000
  C   C371      1.0  0.52103  0.82218  0.57083  1.0000
  H   H611      1.0  0.55558  0.76246  0.53898  1.0000
  H   H612      1.0  0.58888  0.77054  0.59723  1.0000
  H   H613      1.0  0.53472  0.84355  0.62233  1.0000
  H   H614      1.0  0.50234  0.83715  0.56338  1.0000
  H   H615      1.0  0.56052  0.60803  0.85041  1.0000
  H   H616      1.0  0.56445  0.89370  0.62334  1.0000
  H   H617      1.0  0.52015  0.52781  0.82897  1.0000
  C   C372      1.0  0.53376  0.74265  0.86071  1.0000
  C   C373      1.0  0.50856  0.75869  0.84519  1.0000
  C   C374      1.0  0.50769  0.78516  0.82168  1.0000
  C   C375      1.0  0.53189  0.79599  0.81313  1.0000
  C   C376      1.0  0.55703  0.77963  0.82830  1.0000
  C   C377      1.0  0.55793  0.75323  0.85196  1.0000
  H   H618      1.0  0.48977  0.75102  0.85158  1.0000
  H   H619      1.0  0.48812  0.79760  0.81024  1.0000
  H   H620      1.0  0.57585  0.78760  0.82215  1.0000
  H   H621      1.0  0.57758  0.74111  0.86376  1.0000
  C   C378      1.0  0.38192  0.74064  0.93283  1.0000
  H   H622      1.0  0.54510  0.90513  0.50883  1.0000
  C   C379      1.0  0.34717  0.77607  0.94856  1.0000
  C   C380      1.0  0.32999  0.74847  0.94828  1.0000
  C   C381      1.0  0.33913  0.71685  0.94075  1.0000
  C   C382      1.0  0.36506  0.71287  0.93336  1.0000
  C   C383      1.0  0.45154  0.77392  0.55858  1.0000
  H   H623      1.0  0.44313  0.78497  0.57919  1.0000
  H   H624      1.0  0.37164  0.68852  0.92714  1.0000
  H   H625      1.0  0.54375  0.86199  0.51830  1.0000
  H   H626      1.0  0.47821  0.51702  0.91113  1.0000
  C   C384      1.0  0.43984  0.53279  0.80763  1.0000
  C   C385      1.0  0.45609  0.55591  0.83100  1.0000
  C   C386      1.0  0.48514  0.55377  0.83887  1.0000
  C   C387      1.0  0.49768  0.52919  0.82290  1.0000
  H   H627      1.0  0.60220  0.97523  0.68509  1.0000
  H   H628      1.0  0.41736  0.53420  0.80141  1.0000
  H   H629      1.0  0.49790  0.57113  0.85710  1.0000
  N   N27       1.0  0.51771  0.64590  0.79661  1.0000
  C   C388      1.0  0.54565  0.65435  0.82136  1.0000
  C   C389      1.0  0.51473  0.66725  0.76483  1.0000
  C   C390      1.0  0.51859  0.60965  0.78695  1.0000
  C   C391      1.0  0.49520  0.65216  0.81452  1.0000
  C   C392      1.0  0.55437  0.63377  0.85513  1.0000
  C   C393      1.0  0.51490  0.70528  0.77097  1.0000
  C   C394      1.0  0.49233  0.59516  0.76139  1.0000
  C   C395      1.0  0.46514  0.65731  0.79118  1.0000
  H   H630      1.0  0.56266  0.65194  0.80835  1.0000
  H   H631      1.0  0.54623  0.68077  0.82978  1.0000
  H   H632      1.0  0.49551  0.66158  0.74425  1.0000
  H   H633      1.0  0.53186  0.66176  0.75267  1.0000
  H   H634      1.0  0.49444  0.63149  0.83277  1.0000
  H   H635      1.0  0.50029  0.67491  0.83099  1.0000
  H   H636      1.0  0.57296  0.64567  0.87295  1.0000
  H   H637      1.0  0.50045  0.71291  0.78621  1.0000
  H   H638      1.0  0.53613  0.71461  0.78400  1.0000
  H   H639      1.0  0.50825  0.71832  0.74564  1.0000
  H   H640      1.0  0.49657  0.56886  0.75569  1.0000
  H   H641      1.0  0.48647  0.60835  0.73623  1.0000
  H   H642      1.0  0.45042  0.64317  0.80228  1.0000
  H   H643      1.0  0.46115  0.64897  0.76408  1.0000
  H   H644      1.0  0.45896  0.68388  0.79155  1.0000
  H   H645      1.0  0.34589  0.56515  0.55794  1.0000
  H   H646      1.0  0.61861  0.93114  0.58277  1.0000
  H   H647      1.0  0.42620  0.53680  0.52313  1.0000
  H   H648      1.0  0.40217  0.67698  0.55698  1.0000
  H   H649      1.0  0.47457  0.59418  0.77305  1.0000
  C   C396      1.0  0.42643  0.72134  0.55521  1.0000
  H   H650      1.0  0.61005  0.94366  0.62114  1.0000
  H   H651      1.0  0.48858  0.74106  0.53864  1.0000
  H   H652      1.0  0.47367  0.67262  0.52174  1.0000
  H   H653      1.0  0.53802  0.63330  0.86907  1.0000
  H   H654      1.0  0.51809  0.89590  0.59152  1.0000
  C   C397      1.0  0.35562  0.52031  0.51088  1.0000
  H   H655      1.0  0.32595  0.69535  0.94028  1.0000
  C   C398      1.0  0.37282  0.77218  0.94053  1.0000
  H   H656      1.0  0.52216  0.59357  0.81026  1.0000
  N   N28       1.0  0.45514  0.73664  0.56327  1.0000
  H   H657      1.0  0.41566  0.52141  0.57870  1.0000
  H   H658      1.0  0.48063  0.67533  0.56757  1.0000
  H   H659      1.0  0.35009  0.51339  0.64543  1.0000
  C   C399      1.0  0.47047  0.73096  0.60084  1.0000
  C   C400      1.0  0.54493  0.88731  0.52991  1.0000
  H   H660      1.0  0.43466  0.67644  0.58898  1.0000
  H   H661      1.0  0.41368  0.73429  0.57019  1.0000
  H   H662      1.0  0.43236  0.66870  0.54335  1.0000
  H   H663      1.0  0.50603  0.68939  0.54699  1.0000
  H   H664      1.0  0.58920  0.88754  0.54743  1.0000
  H   H665      1.0  0.47194  0.78625  0.56127  1.0000
  H   H666      1.0  0.53646  0.60500  0.77586  1.0000
  H   H667      1.0  0.47288  0.70430  0.60768  1.0000
  H   H668      1.0  0.45761  0.72502  0.51151  1.0000
  H   H669      1.0  0.63344  0.92773  0.84535  1.0000
  H   H670      1.0  0.51035  0.73770  0.63956  1.0000
  C   C401      1.0  0.42451  0.68373  0.56189  1.0000
  C   C402      1.0  0.47097  0.72408  0.53866  1.0000
  C   C403      1.0  0.36747  0.57473  0.56668  1.0000
  H   H671      1.0  0.34042  0.80055  0.95417  1.0000
  C   C404      1.0  0.55998  0.91793  0.60953  1.0000
  H   H672      1.0  0.49917  0.77393  0.61422  1.0000
  N   N29       1.0  0.38489  0.53076  0.52991  1.0000
  C   C405      1.0  0.48331  0.68849  0.54462  1.0000
  H   H673      1.0  0.34307  0.51585  0.52954  1.0000
  H   H674      1.0  0.41525  0.72469  0.52730  1.0000
  H   H675      1.0  0.60918  0.88160  0.63767  1.0000
  N   N30       1.0  0.57572  0.92073  0.58236  1.0000
  H   H676      1.0  0.36600  0.60220  0.56918  1.0000
  H   H677      1.0  0.40578  0.57656  0.55183  1.0000
  C   C406      1.0  0.57185  0.88987  0.55991  1.0000
  H   H678      1.0  0.41025  0.78065  0.52113  1.0000
  C   C407      1.0  0.49994  0.74636  0.61286  1.0000
  H   H679      1.0  0.45818  0.74112  0.61797  1.0000
  H   H680      1.0  0.37779  0.56500  0.59293  1.0000
  H   H681      1.0  0.40820  0.50270  0.50034  1.0000
  C   C408      1.0  0.40504  0.52855  0.50793  1.0000
  C   C409      1.0  0.43254  0.78598  0.52358  1.0000
  H   H682      1.0  0.62242  0.87224  0.60115  1.0000
  C   C410      1.0  0.60637  0.92369  0.60105  1.0000
  C   C411      1.0  0.62038  0.89196  0.61973  1.0000
  C   C412      1.0  0.38426  0.56687  0.54050  1.0000
  S   S124      1.0  0.50332  0.79717  0.50472  1.0000
  H   H683      1.0  0.38092  0.51149  0.57887  1.0000
  H   H684      1.0  0.58077  0.95295  0.54125  1.0000
  H   H685      1.0  0.57298  0.86703  0.57595  1.0000
  H   H686      1.0  0.56757  0.93640  0.63075  1.0000
  H   H687      1.0  0.64179  0.89818  0.63551  1.0000
  H   H688      1.0  0.43858  0.77520  0.50133  1.0000
  H   H689      1.0  0.59264  0.99059  0.59319  1.0000
  H   H690      1.0  0.52584  0.89063  0.53837  1.0000
  H   H691      1.0  0.40087  0.66106  0.98489  1.0000
  C   C413      1.0  0.52793  0.92076  0.59749  1.0000
  C   C414      1.0  0.39573  0.51061  0.56257  1.0000
  C   C415      1.0  0.56787  0.95130  0.55995  1.0000
  H   H692      1.0  0.51988  0.93758  0.57530  1.0000
  C   C416      1.0  0.58981  0.99616  0.67272  1.0000
  H   H693      1.0  0.43459  0.81345  0.52185  1.0000
  C   C417      1.0  0.45236  0.50797  0.79201  1.0000
  H   H694      1.0  0.42865  0.70503  0.98493  1.0000
  H   H695      1.0  0.63169  0.95018  0.98679  1.0000
  H   H696      1.0  0.60392  0.98585  0.74881  1.0000
  H   H697      1.0  0.52050  0.93182  0.61880  1.0000
  H   H698      1.0  0.61676  0.97404  0.79284  1.0000
  H   H699      1.0  0.64438  0.97217  0.95564  1.0000
  C   C418      1.0  0.48138  0.50615  0.79939  1.0000
  C   C419      1.0  0.57068  0.98474  0.57949  1.0000
  H   H700      1.0  0.55766  0.98532  0.59787  1.0000
  H   H701      1.0  0.37505  0.58276  0.51754  1.0000
  H   H702      1.0  0.57708  0.98905  0.80681  1.0000
  H   H703      1.0  0.38562  0.79386  0.94006  1.0000
  C   C420      1.0  0.56131  0.99718  0.67040  1.0000
  H   H704      1.0  0.37426  0.66768  0.49561  1.0000
  H   H705      1.0  0.56242  0.98501  0.76175  1.0000
  C   C421      1.0  0.64466  0.97175  0.98334  1.0000
  C   C422      1.0  0.60699  0.99516  0.77577  1.0000
  H   H706      1.0  0.45783  0.74839  0.98495  1.0000
  S   S125      1.0  0.94183  0.12911  0.44549  1.0000
  S   S126      1.0  0.95355  0.18157  0.38857  1.0000
  Fe  Fe61      1.0  0.94561  0.18455  0.44132  1.0000
  S   S127      1.0  0.92151  0.22317  0.46390  1.0000
  Fe  Fe62      1.0  0.95408  0.12550  0.39562  1.0000
  S   S128      1.0  0.93212  0.08958  0.35258  1.0000
  S   S129      1.0  0.77878  0.37252  0.45517  1.0000
  S   S130      1.0  0.73610  0.31131  0.45718  1.0000
  Fe  Fe63      1.0  0.78139  0.31668  0.45950  1.0000
  S   S131      1.0  0.79818  0.28285  0.42401  1.0000
  Fe  Fe64      1.0  0.73428  0.36739  0.45758  1.0000
  S   S132      1.0  0.69276  0.38459  0.42098  1.0000
  Fe  Fe65      1.0  0.79921  0.02106  0.01547  1.0000
  H   H707      1.0  0.83379  0.08746  0.15312  1.0000
  S   S133      1.0  0.73304  0.09475  0.05792  1.0000
  C   C423      1.0  0.66183  0.46454  0.33660  1.0000
  S   S134      1.0  0.79899  0.07686  0.02198  1.0000
  C   C424      1.0  0.97723  0.04987  0.35049  1.0000
  C   C425      1.0  0.70228  0.11953  0.04558  1.0000
  C   C426      1.0  0.96701  0.35627  0.46884  1.0000
  N   N31       1.0  0.72269  0.36242  0.32754  1.0000
  H   H708      1.0  0.75715  0.33318  0.31926  1.0000
  H   H709      1.0  0.66060  0.36784  0.30423  1.0000
  C   C427      1.0  0.88707  0.23934  0.45164  1.0000
  C   C428      1.0  0.82708  0.02102  0.16379  1.0000
  C   C429      1.0  0.85247  0.27633  0.46541  1.0000
  C   C430      1.0  0.83279  0.26725  0.43468  1.0000
  C   C431      1.0  0.84046  0.24426  0.41237  1.0000
  C   C432      1.0  0.86746  0.23032  0.42080  1.0000
  H   H710      1.0  0.82078  0.13276  0.48280  1.0000
  C   C433      1.0  0.66672  0.14947  0.00230  1.0000
  H   H711      1.0  0.82538  0.23701  0.38855  1.0000
  H   H712      1.0  0.87307  0.21263  0.40346  1.0000
  S   S135      1.0  0.75451  0.01586  0.01634  1.0000
  C   C434      1.0  0.65475  0.41369  0.36612  1.0000
  C   C435      1.0  0.93239  0.03264  0.31412  1.0000
  C   C436      1.0  0.94847  0.05492  0.33868  1.0000
  H   H713      1.0  0.64853  0.08629  0.00997  1.0000
  C   C437      1.0  0.68746  0.12667  0.07003  1.0000
  H   H714      1.0  0.69693  0.34733  0.36040  1.0000
  H   H715      1.0  0.91010  0.03621  0.30489  1.0000
  H   H716      1.0  0.83603  0.05325  0.08567  1.0000
  H   H717      1.0  0.91783  0.19799  0.10711  1.0000
  H   H718      1.0  0.78052  0.22109  0.45321  1.0000
  C   C438      1.0  0.68156  0.41621  0.38923  1.0000
  C   C439      1.0  0.69844  0.44324  0.38606  1.0000
  C   C440      1.0  0.68856  0.46728  0.35990  1.0000
  H   H719      1.0  0.94495  0.14955  0.27517  1.0000
  H   H720      1.0  0.71903  0.44566  0.40374  1.0000
  H   H721      1.0  0.84694  0.29405  0.48279  1.0000
  C   C441      1.0  0.95265  0.29119  0.43136  1.0000
  H   H722      1.0  0.94618  0.22151  0.13300  1.0000
  C   C442      1.0  0.75729  0.41119  0.34958  1.0000
  H   H723      1.0  0.83812  0.15021  0.45368  1.0000
  C   C443      1.0  0.66219  0.14475  0.06055  1.0000
  H   H724      1.0  0.95219  0.33633  0.39932  1.0000
  H   H725      1.0  0.76983  0.40661  0.33110  1.0000
  H   H726      1.0  0.95396  0.14503  0.32208  1.0000
  H   H727      1.0  0.77128  0.07623  0.13829  1.0000
  C   C444      1.0  0.78585  0.05947  0.15701  1.0000
  C   C445      1.0  0.87938  0.26239  0.47383  1.0000
  H   H728      1.0  0.73719  0.30920  0.26598  1.0000
  C   C446      1.0  0.95447  0.16180  0.30042  1.0000
  H   H729      1.0  0.92593  0.30614  0.38125  1.0000
  H   H730      1.0  0.73292  0.21784  0.46438  1.0000
  H   H731      1.0  0.94704  0.34484  0.46950  1.0000
  H   H732      1.0  0.71285  0.28949  0.37127  1.0000
  C   C447      1.0  0.72272  0.32713  0.27313  1.0000
  C   C448      1.0  0.79837  0.07986  0.19027  1.0000
  H   H733      1.0  0.93004  0.20955  0.05401  1.0000
  H   H734      1.0  0.70174  0.48811  0.35764  1.0000
  C   C449      1.0  0.70232  0.38849  0.30854  1.0000
  H   H735      1.0  0.95967  0.16893  0.05025  1.0000
  C   C450      1.0  0.65148  0.15593  0.02643  1.0000
  H   H736      1.0  0.77744  0.04489  0.08924  1.0000
  C   C451      1.0  0.68659  0.02401  0.04606  1.0000
  C   C452      1.0  0.70776  0.33589  0.34230  1.0000
  N   N32       1.0  0.96861  0.23675  0.07447  1.0000
  H   H737      1.0  0.95223  0.18269  0.11258  1.0000
  H   H738      1.0  0.80554  0.01682  0.09329  1.0000
  H   H739      1.0  0.82327  0.00650  0.21520  1.0000
  H   H740      1.0  0.77187  0.42052  0.37395  1.0000
  H   H741      1.0  0.74212  0.43152  0.33984  1.0000
  C   C453      1.0  0.77671  0.20437  0.47367  1.0000
  C   C454      1.0  0.79099  0.02684  0.10734  1.0000
  H   H742      1.0  0.96378  0.27865  0.10692  1.0000
  H   H743      1.0  0.65482  0.49023  0.41187  1.0000
  H   H744      1.0  0.95362  0.23451  0.01817  1.0000
  H   H745      1.0  0.75563  0.00421  0.12299  1.0000
  C   C455      1.0  0.67805  0.03331  0.00725  1.0000
  H   H746      1.0  0.69785  0.40673  0.32714  1.0000
  H   H747      1.0  0.95718  0.30478  0.05123  1.0000
  C   C456      1.0  0.81584  0.99793  0.18788  1.0000
  H   H748      1.0  0.94846  0.26423  0.42541  1.0000
  H   H749      1.0  0.69087  0.32381  0.32214  1.0000
  C   C457      1.0  0.67332  0.37654  0.28710  1.0000
  H   H750      1.0  0.65066  0.14933  0.07937  1.0000
  C   C458      1.0  0.84518  0.06320  0.11199  1.0000
  H   H751      1.0  0.96605  0.09895  0.28870  1.0000
  C   C459      1.0  0.73901  0.34809  0.30434  1.0000
  H   H752      1.0  0.78196  0.08434  0.20373  1.0000
  C   C460      1.0  0.74313  0.37915  0.35785  1.0000
  C   C461      1.0  0.94036  0.22534  0.07680  1.0000
  H   H753      1.0  0.68101  0.04395  0.06214  1.0000
  Fe  Fe66      1.0  0.75330  0.07187  0.01842  1.0000
  H   H754      1.0  0.96077  0.29826  0.38033  1.0000
  H   H755      1.0  0.73281  0.38588  0.37831  1.0000
  C   C462      1.0  0.69191  0.13142  0.01174  1.0000
  H   H756      1.0  0.69530  0.11775  0.09632  1.0000
  H   H757      1.0  0.92621  0.24697  0.07558  1.0000
  N   N33       1.0  0.80662  0.04428  0.14023  1.0000
  C   C463      1.0  0.96469  0.25198  0.03902  1.0000
  H   H758      1.0  0.77203  0.04059  0.16370  1.0000
  H   H759      1.0  0.85687  0.08596  0.10865  1.0000
  H   H760      1.0  0.66194  0.39804  0.27230  1.0000
  H   H761      1.0  0.81580  0.06682  0.20868  1.0000
  H   H762      1.0  0.80804  0.09052  0.11257  1.0000
  H   H763      1.0  0.68449  0.28721  0.49140  1.0000
  H   H764      1.0  0.76040  0.36198  0.37056  1.0000
  C   C464      1.0  0.75250  0.21965  0.48567  1.0000
  C   C465      1.0  0.72616  0.30734  0.36181  1.0000
  H   H765      1.0  0.96563  0.09412  0.24466  1.0000
  H   H766      1.0  0.94839  0.29484  0.00659  1.0000
  H   H767      1.0  0.92583  0.28109  0.03139  1.0000
  H   H768      1.0  0.73626  0.29320  0.34479  1.0000
  H   H769      1.0  0.70961  0.02158  0.05491  1.0000
  H   H770      1.0  0.70627  0.31139  0.27866  1.0000
  H   H771      1.0  0.71353  0.34325  0.25037  1.0000
  H   H772      1.0  0.74893  0.36839  0.29302  1.0000
  H   H773      1.0  0.71147  0.40340  0.29092  1.0000
  H   H774      1.0  0.83003  0.20656  0.46806  1.0000
  H   H775      1.0  0.80543  0.10477  0.18410  1.0000
  H   H776      1.0  0.84438  0.03561  0.18116  1.0000
  C   C466      1.0  0.94802  0.28495  0.03229  1.0000
  C   C467      1.0  0.94807  0.30923  0.39629  1.0000
  C   C468      1.0  0.82258  0.07277  0.13001  1.0000
  H   H777      1.0  0.74216  0.31627  0.38502  1.0000
  H   H778      1.0  0.86059  0.04523  0.12718  1.0000
  C   C469      1.0  0.94494  0.00581  0.30128  1.0000
  C   C470      1.0  0.82587  0.18723  0.48590  1.0000
  H   H779      1.0  0.96992  0.47841  0.04904  1.0000
  H   H780      1.0  0.83727  0.00480  0.14825  1.0000
  H   H781      1.0  0.93546  0.29882  0.44221  1.0000
  H   H782      1.0  0.90252  0.12283  0.00214  1.0000
  C   C471      1.0  0.82062  0.15430  0.46547  1.0000
  C   C472      1.0  0.93966  0.20579  0.10949  1.0000
  S   S136      1.0  0.65048  0.49544  0.30412  1.0000
  H   H783      1.0  0.94089  0.18329  0.30216  1.0000
  H   H784      1.0  0.76864  0.18113  0.45970  1.0000
  C   C473      1.0  0.97386  0.00162  0.31214  1.0000
  H   H785      1.0  0.80140  0.15472  0.44371  1.0000
  H   H786      1.0  0.96249  0.37563  0.44827  1.0000
  H   H787      1.0  0.68857  0.05740  0.00550  1.0000
  H   H788      1.0  0.67775  0.99988  0.05125  1.0000
  H   H789      1.0  0.97700  0.25102  0.48482  1.0000
  H   H790      1.0  0.67422  0.35695  0.26808  1.0000
  C   C474      1.0  0.97968  0.09730  0.27121  1.0000
  H   H791      1.0  0.75608  0.24654  0.49157  1.0000
  H   H792      1.0  0.77801  0.13681  0.49090  1.0000
  H   H793      1.0  0.97516  0.36970  0.49382  1.0000
  Fe  Fe67      1.0  0.79036  0.37206  0.51408  1.0000
  S   S137      1.0  0.83016  0.40000  0.54333  1.0000
  H   H794      1.0  0.65239  0.02305  0.94017  1.0000
  C   C475      1.0  0.96869  0.38295  0.80051  1.0000
  S   S138      1.0  0.79480  0.31625  0.51748  1.0000
  S   S139      1.0  0.74540  0.37075  0.51625  1.0000
  H   H795      1.0  0.79985  0.42964  0.58971  1.0000
  S   S140      1.0  0.95199  0.20624  0.88397  1.0000
  S   S141      1.0  0.94917  0.26170  0.94301  1.0000
  Fe  Fe68      1.0  0.95127  0.20606  0.94011  1.0000
  S   S142      1.0  0.92914  0.17120  0.96927  1.0000
  Fe  Fe69      1.0  0.95427  0.26247  0.88903  1.0000
  S   S143      1.0  0.92892  0.30192  0.85298  1.0000
  S   S144      1.0  0.78786  0.02274  0.95683  1.0000
  S   S145      1.0  0.74010  0.07802  0.96070  1.0000
  Fe  Fe70      1.0  0.74276  0.02201  0.95816  1.0000
  Fe  Fe71      1.0  0.78616  0.07842  0.96389  1.0000
  S   S146      1.0  0.80424  0.11554  0.93239  1.0000
  C   C476      1.0  0.89396  0.15730  0.95930  1.0000
  H   H796      1.0  0.86349  0.15675  0.82513  1.0000
  C   C477      1.0  0.85936  0.11982  0.97262  1.0000
  C   C478      1.0  0.83879  0.13174  0.94403  1.0000
  C   C479      1.0  0.84595  0.15676  0.92337  1.0000
  C   C480      1.0  0.87334  0.16956  0.93098  1.0000
  H   H797      1.0  0.78995  0.12309  0.53449  1.0000
  C   C481      1.0  0.67971  0.26915  0.50896  1.0000
  H   H798      1.0  0.87845  0.18884  0.91490  1.0000
  H   H799      1.0  0.83494  0.33651  0.67277  1.0000
  H   H800      1.0  0.88739  0.42762  0.76020  1.0000
  C   C482      1.0  0.89663  0.06789  0.87408  1.0000
  C   C483      1.0  0.94478  0.33285  0.83315  1.0000
  H   H801      1.0  0.91059  0.04781  0.88817  1.0000
  H   H802      1.0  0.95076  0.39668  0.70334  1.0000
  H   H803      1.0  0.94253  0.13447  0.88266  1.0000
  C   C484      1.0  0.94397  0.38923  0.80954  1.0000
  C   C485      1.0  0.93205  0.36423  0.82570  1.0000
  H   H804      1.0  0.93426  0.41345  0.80453  1.0000
  H   H805      1.0  0.91297  0.36927  0.83268  1.0000
  C   C486      1.0  0.84080  0.42249  0.58306  1.0000
  C   C487      1.0  0.86935  0.42939  0.59714  1.0000
  C   C488      1.0  0.87890  0.44800  0.62800  1.0000
  C   C489      1.0  0.82187  0.43455  0.60026  1.0000
  H   H806      1.0  0.88419  0.42006  0.58414  1.0000
  H   H807      1.0  0.90092  0.45256  0.63876  1.0000
  H   H808      1.0  0.87587  0.05754  0.91433  1.0000
  H   H809      1.0  0.79725  0.24190  0.53203  1.0000
  C   C490      1.0  0.69362  0.23636  0.56133  1.0000
  C   C491      1.0  0.70032  0.25983  0.53876  1.0000
  H   H810      1.0  0.65350  0.02567  0.85952  1.0000
  C   C492      1.0  0.88676  0.13255  0.98018  1.0000
  C   C493      1.0  0.78092  0.14476  0.51800  1.0000
  S   S147      1.0  0.73459  0.27672  0.54870  1.0000
  H   H811      1.0  0.87808  0.48475  0.53135  1.0000
  Fe  Fe72      1.0  0.74911  0.31474  0.51492  1.0000
  H   H812      1.0  0.87562  0.38871  0.77475  1.0000
  H   H813      1.0  0.84377  0.21494  0.56518  1.0000
  H   H814      1.0  0.96692  0.48677  0.59799  1.0000
  H   H815      1.0  0.94769  0.09791  0.83975  1.0000
  H   H816      1.0  0.91614  0.13151  0.90384  1.0000
  H   H817      1.0  0.97765  0.42099  0.90972  1.0000
  H   H818      1.0  0.67094  0.03413  0.79749  1.0000
  N   N34       1.0  0.91297  0.09508  0.86247  1.0000
  H   H819      1.0  0.94040  0.29144  0.49648  1.0000
  C   C494      1.0  0.80007  0.17541  0.52979  1.0000
  H   H820      1.0  0.67711  0.07701  0.95216  1.0000
  H   H821      1.0  0.84594  0.18347  0.50605  1.0000
  H   H822      1.0  0.93854  0.04837  0.80334  1.0000
  C   C495      1.0  0.93360  0.07880  0.84611  1.0000
  C   C496      1.0  0.89412  0.11691  0.83524  1.0000
  H   H823      1.0  0.88299  0.05474  0.85127  1.0000
  H   H824      1.0  0.94732  0.06109  0.86433  1.0000
  C   C497      1.0  0.92960  0.11609  0.89219  1.0000
  C   C498      1.0  0.83138  0.45386  0.63069  1.0000
  C   C499      1.0  0.96912  0.35881  0.93370  1.0000
  H   H825      1.0  0.94257  0.35712  0.71757  1.0000
  H   H826      1.0  0.93775  0.07876  0.93425  1.0000
  H   H827      1.0  0.81647  0.46359  0.64338  1.0000
  H   H828      1.0  0.95731  0.33499  0.93000  1.0000
  H   H829      1.0  0.85421  0.10054  0.98870  1.0000
  C   C500      1.0  0.87722  0.07820  0.89641  1.0000
  H   H830      1.0  0.87812  0.10157  0.81675  1.0000
  H   H831      1.0  0.89267  0.16520  0.86101  1.0000
  C   C501      1.0  0.66665  0.22236  0.55426  1.0000
  H   H832      1.0  0.85830  0.23253  0.53207  1.0000
  H   H833      1.0  0.64855  0.07864  0.91448  1.0000
  H   H834      1.0  0.90631  0.12961  0.81935  1.0000
  C   C502      1.0  0.87025  0.40913  0.75550  1.0000
  H   H835      1.0  0.74900  0.20689  0.50861  1.0000
  H   H836      1.0  0.85205  0.42244  0.76008  1.0000
  H   H837      1.0  0.76024  0.14902  0.52269  1.0000
  H   H838      1.0  0.65873  0.15812  0.97590  1.0000
  H   H839      1.0  0.70938  0.22900  0.58448  1.0000
  H   H840      1.0  0.82079  0.16610  0.54514  1.0000
  C   C503      1.0  0.84119  0.23425  0.54482  1.0000
  Fe  Fe73      1.0  0.96643  0.46373  0.76014  1.0000
  C   C504      1.0  0.96957  0.32669  0.82431  1.0000
  C   C505      1.0  0.92114  0.05885  0.81247  1.0000
  N   N35       1.0  0.64716  0.03587  0.99049  1.0000
  N   N36       1.0  0.80341  0.19899  0.50185  1.0000
  H   H841      1.0  0.96646  0.08453  0.91482  1.0000
  H   H842      1.0  0.90884  0.07477  0.79120  1.0000
  H   H843      1.0  0.79122  0.18897  0.54864  1.0000
  H   H844      1.0  0.92725  0.37045  0.67305  1.0000
  H   H845      1.0  0.85582  0.08352  0.88006  1.0000
  H   H846      1.0  0.95421  0.37800  0.92008  1.0000
  H   H847      1.0  0.83016  0.16628  0.90131  1.0000
  C   C506      1.0  0.81231  0.23260  0.51816  1.0000
  H   H848      1.0  0.87462  0.30887  0.76138  1.0000
  H   H849      1.0  0.84870  0.33503  0.73653  1.0000
  C   C507      1.0  0.85990  0.46085  0.64465  1.0000
  H   H850      1.0  0.86279  0.30235  0.71514  1.0000
  N   N37       1.0  0.88371  0.37422  0.70823  1.0000
  C   C508      1.0  0.90957  0.39513  0.71190  1.0000
  C   C509      1.0  0.86238  0.39609  0.71789  1.0000
  C   C510      1.0  0.87341  0.36337  0.67074  1.0000
  C   C511      1.0  0.89160  0.34443  0.73174  1.0000
  C   C512      1.0  0.93356  0.37839  0.70057  1.0000
  C   C513      1.0  0.84216  0.35499  0.65672  1.0000
  C   C514      1.0  0.86783  0.32160  0.73582  1.0000
  H   H851      1.0  0.90433  0.41873  0.69694  1.0000
  H   H852      1.0  0.91877  0.40289  0.73921  1.0000
  H   H853      1.0  0.84200  0.38346  0.71383  1.0000
  H   H854      1.0  0.85773  0.41814  0.70047  1.0000
  H   H855      1.0  0.87726  0.38320  0.65320  1.0000
  H   H856      1.0  0.88520  0.34127  0.66567  1.0000
  H   H857      1.0  0.90593  0.32781  0.72253  1.0000
  H   H858      1.0  0.90430  0.35173  0.75803  1.0000
  H   H859      1.0  0.88482  0.09963  0.91356  1.0000
  H   H860      1.0  0.66183  0.20439  0.57188  1.0000
  H   H861      1.0  0.90842  0.03743  0.81670  1.0000
  H   H862      1.0  0.83830  0.34435  0.63022  1.0000
  H   H863      1.0  0.82921  0.37786  0.65402  1.0000
  S   S148      1.0  0.95172  0.47261  0.70252  1.0000
  C   C515      1.0  0.94921  0.09695  0.92248  1.0000
  H   H864      1.0  0.86590  0.13610  0.86500  1.0000
  S   S149      1.0  0.87071  0.48588  0.68266  1.0000
  H   H865      1.0  0.96396  0.27366  0.53330  1.0000
  S   S150      1.0  0.92900  0.48614  0.77231  1.0000
  C   C516      1.0  0.87833  0.14508  0.84791  1.0000
  C   C517      1.0  0.96262  0.29094  0.51125  1.0000
  H   H866      1.0  0.84351  0.25892  0.55795  1.0000
  H   H867      1.0  0.70318  0.12658  0.99272  1.0000
  C   C518      1.0  0.65278  0.25518  0.50191  1.0000
  C   C519      1.0  0.65602  0.01288  0.79070  1.0000
  H   H868      1.0  0.97953  0.30260  0.82977  1.0000
  H   H869      1.0  0.81233  0.25143  0.49778  1.0000
  C   C520      1.0  0.65407  0.07606  0.94309  1.0000
  H   H870      1.0  0.97587  0.36321  0.96206  1.0000
  H   H871      1.0  0.89429  0.26943  0.49785  1.0000
  H   H872      1.0  0.96941  0.31569  0.52276  1.0000
  H   H873      1.0  0.95911  0.11507  0.94318  1.0000
  H   H874      1.0  0.91534  0.48090  0.59307  1.0000
  H   H875      1.0  0.94929  0.49283  0.98724  1.0000
  H   H876      1.0  0.66572  0.00854  0.74019  1.0000
  H   H877      1.0  0.68795  0.01528  0.99319  1.0000
  Fe  Fe74      1.0  0.91523  0.49702  0.71479  1.0000
  H   H878      1.0  0.65253  0.55991  0.39915  1.0000
  H   H879      1.0  0.96728  0.91833  0.11518  1.0000
  S   S151      1.0  0.93464  0.84027  0.22640  1.0000
  H   H880      1.0  0.93813  0.79205  0.39059  1.0000
  H   H881      1.0  0.94157  0.95079  0.36541  1.0000
  S   S152      1.0  0.92847  0.90543  0.27291  1.0000
  H   H882      1.0  0.94620  0.77536  0.07465  1.0000
  Fe  Fe75      1.0  0.94906  0.85502  0.28293  1.0000
  S   S153      1.0  0.94189  0.82482  0.32824  1.0000
  Fe  Fe76      1.0  0.91812  0.89282  0.21604  1.0000
  S   S154      1.0  0.87456  0.90253  0.18017  1.0000
  H   H883      1.0  0.86663  0.87039  0.10331  1.0000
  S   S155      1.0  0.95794  0.91392  0.20905  1.0000
  H   H884      1.0  0.91288  0.79745  0.15645  1.0000
  C   C521      1.0  0.86513  0.92994  0.14410  1.0000
  C   C522      1.0  0.83709  0.93138  0.12442  1.0000
  C   C523      1.0  0.82883  0.95167  0.09466  1.0000
  C   C524      1.0  0.84853  0.97092  0.08434  1.0000
  H   H885      1.0  0.87462  0.90054  0.07366  1.0000
  C   C525      1.0  0.88482  0.94938  0.13394  1.0000
  H   H886      1.0  0.82175  0.91616  0.13184  1.0000
  H   H887      1.0  0.93417  0.94021  0.40501  1.0000
  H   H888      1.0  0.95953  0.82567  0.10712  1.0000
  H   H889      1.0  0.90644  0.94856  0.14880  1.0000
  H   H890      1.0  0.91094  0.78751  0.05783  1.0000
  H   H891      1.0  0.82482  0.97259  0.18753  1.0000
  C   C526      1.0  0.87655  0.96960  0.10413  1.0000
  H   H892      1.0  0.93962  0.84119  0.15069  1.0000
  H   H893      1.0  0.91118  0.86847  0.14384  1.0000
  C   C527      1.0  0.93931  0.82675  0.08670  1.0000
  H   H894      1.0  0.88725  0.80366  0.11629  1.0000
  C   C528      1.0  0.95990  0.79236  0.39098  1.0000
  H   H895      1.0  0.84924  0.86903  0.05811  1.0000
  H   H896      1.0  0.88232  0.82517  0.06721  1.0000
  H   H897      1.0  0.89393  0.85615  0.04384  1.0000
  H   H898      1.0  0.91296  0.88718  0.38123  1.0000
  C   C529      1.0  0.89175  0.85030  0.07016  1.0000
  Fe  Fe77      1.0  0.96930  0.92339  0.26673  1.0000
  H   H899      1.0  0.96540  0.88499  0.14371  1.0000
  H   H900      1.0  0.93231  0.98887  0.28239  1.0000
  C   C530      1.0  0.91838  0.84553  0.13319  1.0000
  H   H901      1.0  0.92543  0.77898  0.10389  1.0000
  C   C531      1.0  0.86962  0.87407  0.07716  1.0000
  C   C532      1.0  0.89981  0.81659  0.13956  1.0000
  H   H902      1.0  0.93042  0.89270  0.06743  1.0000
  H   H903      1.0  0.92490  0.89186  0.34281  1.0000
  H   H904      1.0  0.95599  0.88905  0.43575  1.0000
  H   H905      1.0  0.95668  0.86431  0.39914  1.0000
  C   C533      1.0  0.96829  0.88399  0.41688  1.0000
  C   C534      1.0  0.91875  0.90541  0.36357  1.0000
  C   C535      1.0  0.92931  0.79035  0.08055  1.0000
  H   H906      1.0  0.88502  0.82612  0.15366  1.0000
  C   C536      1.0  0.96207  0.89149  0.11608  1.0000
  C   C537      1.0  0.93160  0.88585  0.09474  1.0000
  H   H907      1.0  0.94438  0.83499  0.06256  1.0000
  H   H908      1.0  0.80737  0.95170  0.07917  1.0000
  C   C538      1.0  0.94164  0.92963  0.38342  1.0000
  N   N38       1.0  0.91986  0.85132  0.09653  1.0000
  H   H909      1.0  0.95679  0.52987  0.01271  1.0000
  H   H910      1.0  0.66616  0.96667  0.99935  1.0000
  H   H911      1.0  0.89964  0.91976  0.35101  1.0000
  H   H912      1.0  0.91911  0.90496  0.10396  1.0000
  H   H913      1.0  0.76207  0.98710  0.08516  1.0000
  H   H914      1.0  0.96458  0.52317  0.07801  1.0000
  N   N39       1.0  0.97061  0.91520  0.39689  1.0000
  H   H915      1.0  0.79303  0.99471  0.18100  1.0000
  H   H916      1.0  0.97060  0.56661  0.07837  1.0000
  H   H917      1.0  0.89200  0.98420  0.09622  1.0000
  H   H918      1.0  0.97580  0.92760  0.34639  1.0000
  C   C539      1.0  0.96781  0.80671  0.36303  1.0000
  C   C540      1.0  0.96653  0.50825  0.00330  1.0000
  H   H919      1.0  0.96396  0.78400  0.17416  1.0000
  H   H920      1.0  0.65527  0.57504  0.33906  1.0000
  H   H921      1.0  0.97103  0.88503  0.35226  1.0000
  H   H922      1.0  0.78502  0.97628  0.12560  1.0000
  Fe  Fe78      1.0  0.97521  0.86192  0.22218  1.0000
  H   H923      1.0  0.97347  0.76717  0.44057  1.0000
  S   S156      1.0  0.83967  0.99568  0.04617  1.0000
  H   H924      1.0  0.97236  0.98806  0.39423  1.0000
  H   H925      1.0  0.97702  0.87753  0.10534  1.0000
  H   H926      1.0  0.96324  0.73317  0.13829  1.0000
  H   H927      1.0  0.64738  0.52709  0.36836  1.0000
  H   H928      1.0  0.97825  0.94666  0.44240  1.0000
  C   C541      1.0  0.77250  0.99712  0.11128  1.0000
  Fe  Fe79      1.0  0.95312  0.53456  0.77835  1.0000
  C   C542      1.0  0.66384  0.99253  0.76198  1.0000
  C   C543      1.0  0.87606  0.52444  0.56839  1.0000
  H   H929      1.0  0.90226  0.51595  0.63675  1.0000
  H   H930      1.0  0.95413  0.64882  0.62560  1.0000
  C   C544      1.0  0.87151  0.51122  0.53111  1.0000
  C   C545      1.0  0.89485  0.59105  0.55574  1.0000
  H   H931      1.0  0.92579  0.55630  0.55075  1.0000
  H   H932      1.0  0.96432  0.53092  0.60233  1.0000
  S   S157      1.0  0.95856  0.57781  0.81699  1.0000
  S   S158      1.0  0.93504  0.54809  0.72189  1.0000
  C   C546      1.0  0.66429  0.95673  0.88267  1.0000
  H   H933      1.0  0.88983  0.56545  0.66119  1.0000
  C   C547      1.0  0.67221  0.92987  0.83172  1.0000
  C   C548      1.0  0.88946  0.56727  0.63344  1.0000
  C   C549      1.0  0.65454  0.93725  0.85246  1.0000
  H   H934      1.0  0.95614  0.59691  0.66016  1.0000
  C   C550      1.0  0.70932  0.96214  0.87163  1.0000
  C   C551      1.0  0.69968  0.94227  0.84163  1.0000
  H   H935      1.0  0.86724  0.56536  0.61882  1.0000
  H   H936      1.0  0.88011  0.58257  0.53120  1.0000
  H   H937      1.0  0.71356  0.93665  0.82583  1.0000
  C   C552      1.0  0.96094  0.63667  0.75054  1.0000
  H   H938      1.0  0.92933  0.54546  0.63990  1.0000
  H   H939      1.0  0.95695  0.50285  0.63414  1.0000
  H   H940      1.0  0.73042  0.97166  0.87871  1.0000
  H   H941      1.0  0.93349  0.57609  0.59150  1.0000
  H   H942      1.0  0.96308  0.64908  0.77585  1.0000
  H   H943      1.0  0.88291  0.60005  0.57344  1.0000
  C   C553      1.0  0.90764  0.53926  0.62496  1.0000
  N   N40       1.0  0.90570  0.53367  0.58713  1.0000
  S   S159      1.0  0.70207  0.99524  0.92996  1.0000
  H   H944      1.0  0.89808  0.59213  0.63008  1.0000
  S   S160      1.0  0.66082  0.90640  0.79270  1.0000
  H   H945      1.0  0.84892  0.51190  0.51740  1.0000
  H   H946      1.0  0.86162  0.54570  0.56689  1.0000
  H   H947      1.0  0.94357  0.61858  0.74743  1.0000
  H   H948      1.0  0.90615  0.61292  0.54919  1.0000
  C   C554      1.0  0.69165  0.96950  0.89238  1.0000
  C   C555      1.0  0.91625  0.56373  0.57175  1.0000
  H   H949      1.0  0.68462  0.98098  0.77295  1.0000
  H   H950      1.0  0.95438  0.65489  0.72912  1.0000
  H   H951      1.0  0.97565  0.63251  0.86437  1.0000
  H   H952      1.0  0.97873  0.95487  0.62612  1.0000
  C   C556      1.0  0.92392  0.50417  0.58488  1.0000
  C   C557      1.0  0.97339  0.60350  0.64998  1.0000
  H   H953      1.0  0.65043  0.96208  0.89849  1.0000
  H   H954      1.0  0.86809  0.50492  0.58304  1.0000
  C   C558      1.0  0.95470  0.50679  0.60614  1.0000
  H   H955      1.0  0.92440  0.49979  0.55763  1.0000
  C   C559      1.0  0.97233  0.63301  0.63045  1.0000
  H   H956      1.0  0.88277  0.52625  0.51604  1.0000
  C   C560      1.0  0.97454  0.57881  0.86258  1.0000
  Fe  Fe80      1.0  0.97248  0.52302  0.71301  1.0000
  H   H957      1.0  0.97892  0.51730  0.98605  1.0000
  H   H958      1.0  0.97614  0.52576  0.87000  1.0000
  H   H959      1.0  0.66095  0.99656  0.81391  1.0000
  H   H960      1.0  0.64908  0.97182  0.75209  1.0000
