data_image0
_chemical_formula_structural       HCH2CH4C2FeS2FeS2FeSFeS3FeS2FeSHFeSFeS4CHSCSCHSHFeSFeSCH5CH2FeHSH4SH3CH4CH3CH3C6H4FeNH5C8H4C4H3C6H4C4HCH4C6H10SH7C4H2FeHCH3NH4CH4CHNH10NH3CH4CSC4H6CH2CHC2H4NC4FeCHCH4SH5CHC3H4SHC4HNC8H8CSCH9NC8HCHSH6FeHSHCSH3SH2CH2SHC2H3C2H5CH2CH3SHSH2CH3FeSHFeSHFeSFeS3FeHSH4SHCH3C2SHCHCFeSH5CH2SHFeS2FeSHFeHFeS3HCH6C6H4CH2C2H2CHCH2CH5CH2C6H4C6H4C2HCHC5HC2H2CHC3H3SH6CSHFeC2HSHCH2SN2H3CH2NC5HC2H12C4H2CHNC4H2C2H2CH5CH3C2H2CH3NHC2HCSC2HCH4CH23CH4CSHCHCHSH2CH3CNC4HCH12CH3CHCHSCNC5FeCH4CH2CHCHCNC3H11FeSHC3HSH2CH2CSH2FeS2FeS2FeSFeCS2H2SH2SHFeS2FeS2FeSFeS3FeS2FeS2FeHFeS3FeS2FeS2FeSFeS3HS2HC3H7C6H5C6H4C6H4C6H4C3H2C7H3C7H3C7H4C2HNC4FeC3H10CH6CH3C2FeHCH6CHCH3CSH2CH6CH4CH6CH2CFeH3SH2CHNC8H26NC8H20NC3HCHCH10NH2SH4CH6C2HCH2C2H3NH3C3HSCH5CHC3HNH2CH4CH6C2HC3FeCHNC2HCHC4HCH2CH8NHCH4S2HCH3CHCH8C3FeS2FeSHFeSFeS3HFeSHFeS2FeSFeS3FeS2FeS2FeSFeS3FeS2FeSFeSFeS3HSHSHSH2C6H6FeC6H4C6H4C2HC3H4C6H4C6H4CNHFeC5NCH3CH2C6H4CHC2H6CH2C3H7SHFeH2CH2C3HCHNCH3CH7SH3NHC7H7C2H3CH7CH5CH2C3HCH3CHC2HCH8CNHC6H9S2H10NCHC2H3SHCH12CH6CH9SHC2SH2CH3CH2CHC2H2CH2CH2C2FeH2NC4H2CHCH4C2H3C2HS2CHC3NC4H2CH4CHCH2SH2CH7NC8H8CH4FeH3C2HCH3SCH2CH6C2H8CHSH2CFeS2FeS2FeCFeS4FeC2SFeSHFeS2FeSHSHSHFeS2FeS2FeSFeS4HSH2C6H3SHC4H4C5SH4C3FeCH2CHC2HC2HCH3CH2CH7C6H4C6H11FeC6H7C2H3CH7C2HNC2H2SCH2CH5SH6CHSHCSHCNC8H14SH5NC3H2C2H2CHSH2CHCFeH2CH7NC2SCHCHCH6CHC2HCFeCNC2H7CH2NC8H8CH5FeH5C2NC8H21CH2NC6H3CH4CHS2CFeCH4FeCH3C2H4C3FeS2FeS2FeSFeHS2C2S2C2HNHCSFeSFeSFeCSFeSFeS2FeSFeS4HCH2CH3CH3FeS2C6H2CH3C2HC2H2C6H4C6H4SH4CH2CH7CH2S2C3HSC6H5C10H4CHSHSH2SC2HFeHFeH5CHCH3FeH4SH2N2CHSHNHCH2CH2SCH6SHCHCHC2H3CH3CH3CH4CHCH4N2C6H16NC4HCH9C3H2Fe2H4CSH3C2H6CHCH3C2H2CH2SH4CH3SH2CH2FeH3C3H2CH2NC8H6CH4SH6CH5C2H8CH2SHFeH2CH3C2HCH6FeCHCNCHSFeS2FeS2FeSFeS3HSFeS2FeS2FeSFeS3HS2H2CH2CFeS3CH3CHFeS2C2FeSHCSHFeS2HSCH6CHC2NCHCHCHCH6C2HC3H3C6H4CSCH4C4H4CHC6H4C6H4C6H4C6H5FeH2C2HCH5CH4CH2CFeNH5CNC4FeCHCH14FeCH3NH2C4HCHNC4HC3HCH7CSHC3H7S2H2C2HNC8H20C3H5CSC2HFeC4HCHCFeH7C2HCH2CHCH5SCHFeNH5CH2CH2CH2CH4CH2NHFeCH4C2H2CH2SHCNCH13CHFeNH2C2HCH3C3H3CH8C2H2C2H2C2SH4CH2SC2H2CNH3C2HCNCH2CH4C2HCHSHFeS2FeS2FeSFeS3H2FeS2FeS2FeSFeS3HFeS2FeSFeS3FeHSFeH4S2HFeSHC2H4FeHNCHNSC2H8C3HC2H2FeCH2CHC6H5CHCHC3H5C5H2C6H4C6H4C6H3FeH4CH2C2H2CH5C2FeCH2CH4NC8H20CH4CH4SH3CHCH2FeHCHC4H3C2SCH9CFeCH2C2H3CNC2HSC2H3NH2C3HCHCH4CHSHC3NHCHCHCHCH3SHSHC3HCH5CH2SCNC8H20NC8H11CH5C2H6C3HSCH2FeCSH2CHNC6HCSHC2SCNH9CH2CHSH3NCHCSH2CHCH2CHCH2FeS2FeS2FeSFeS3FeS3FeHFeS4FeS2HFeSFeS2FeS2FeSFeS3H6FeSHS2FeCH2FeHFeHSCHNC2SC4H3C6H4C3FeCH2SC6H2C6H4C6H4C2NHCH2CSHC3H2CH4C4HFeH4C4H3CH2C2H2CHNHC3H5CH3S2HCHNC8H7CH2C2H10C3H2C2H7CH6CH2CH16CHNCH3CHCH4CFeH6CHCH3CH2NC3HCH2C2HCH7CH6SCH2C3H5CHCHNH2SH3CHSNC6HC2H2S2H5CH3C2H4NC8H15CHCH2NC8H15C4HCHCH2SHC2HSH2CH4SH6CHC2H2CHFeS2FeS2FeSFeS3H5C2H7SFeS2FeS2FeSFeS3FeS2FeSHFeS3FeH2CFeSHC2H2C3H2C2H2C2H2CH2C6H4C6H4CH3CHCH7CHNCH2C7H4C6H4C2H5CHCHC2HCHC2H7NC8H28C2H3CHC2HC3NHC3HCNCHCH8C3H3CH2CHCH4C3H2CSH2FeHNC8H20CHC2HCSCHNC2H2NHC3SHC3H2FeH6CH2CHCH3CHCH2C3H3CNC6H9CH8NHSFeH12CHNH3CHC2HCHCHSH2CH3CH2CH3CH2C3HCH4C2HCSC3HCH3CHCHSNH8SH2FeSHFeS2FeSFeS5HSCFeCFeSHCFeH4CSFeSHSFeS2FeS2FeSFeS3C6H3C6H3CH2CFeH5CH2CH4C2HCHNH3C7H5CH3C6H4SCHCHCHSHC2HSHNH2SH5C4H6NC4H3CH3CHNHCH2CHCHCSH7C6NC2HCHC2H2CH2CFeH4C2HCH5SHC2H7SH3C3HCH4NFeCH3C2HNH3CHC2H3SCH3CNC8H22CHCHC2H2SH2SH3FeCHCHCH6C2NC8H22CH2SHCS2H4CHCHNHC2H2FeHC2H5C2H2CHCHNHCH4CSHC2HCHCH2CH4SFeCH2SH2CH2CHC5H4CH3CH3CH3CFeS2FeS2FeSFeS3CHNHCSH3N2HCHSHCFeH5CFeSHFeS2FeSFeS3HC2FeS2HCSNS3CHC3SHSC6H4C6H6FeC3NCHFeCH4CSHFeCH4CHCH3C4H4CH2C6H5C2H5CHCH2CHC3HCHC3H5CH6CHCH4FeH4CHCH5SHC2H3CH2CH4C2HCHCH5SCNHCSHCH2C2HCHC2H6CH4CH4CH2C4H4CH4CH2NCHCHCH14CH6SC2H2CHCH2SH2CH2CH2CHC2S2H3CHCH2CHCHFeH2C2NC2HC2FeC2FeH5C3H4CH3SH3FeH3CH2CHCHCHC2SC3HCHCH3CH7CH2CH3CHC3FeSHFeS2FeCFeSHSFeS2FeS2FeHFeS3FeS2H2FeSCH2FeS2H3SHFeS2FeS2FeSFeS3C6H4C6H5CHC6H4C6HNH5CH2SFeHCHCH2SC6H5C6H6C2HC4SH2C2H5C2HCH5CHCHCH4CH6CHCHCSFeHCH2C2H2C2H2CSCH2CH3NHC3H2CH5CH4C2FeH5CH2C2H2CHFeH3C2HCHCNH2CHCH2CH3CHCH3CH4CH4SCH5CHCNHC2H4CHCHCH3NH2C2H2N2C8H10CH12S2H3SHC3NHNHCHCH2SCH3CHCHCH4CSCNH2CH3CH2CHSCH2C2HS2HCH10CH7CHFeSHFeS2Fe2S3FeSHFeS2FeSHSHSCSFeSFeS2FeSFeS3FeS2FeS2FeSFeS3C6H4CH3C2HCHC6H4C6HCH2C6H2CH3CH3C2HC2H3C7H4C5H3C3NCHSC2HFeH11CH4NCSC3H2C2H9C2H3CH4CH2SH3CH6CH2C2HCHC2H2CHCNC4H6C2H10NC2H3SHNHCH4CSH5C2HCH9SH2CHNHCHCHCHCHC4H3CH2FeCH10NC8H21CSCHC2H4CH6NC4HC3H8CH5C3H2SH4C2H5C3HCH2FeNFeH5C2H4CH3SH2SCH4CH7C2H4CH4SHCH2SFeS2FeSCHFeS3FeS2FeS2FeSFeS3H2FeS2H3CHSHCH2SH4CH2C3HC6H4C6H4CHC7H4C6H4FeCSCHNSC7H6CH4NH6SC5SCH3C2HNH2CFeC2HNCH3C2SH2CH2CH2CHS2HSHFeNHCH2CHNC8H20NH2CHC3HCHCH3CH3CH4C2HCH3CH5SC2HCHC2HC3H3NCHSHFeHCH2CH5C2H2FeSC2SH2CHSCH4SH17C3SCH2CH3SH3CHCFeHCH7CNC8H18CHCHC2H4C2HCH5CFeS2FeSCFeSFeS3CSH2SH2SHFeH4SH2CH3CFeNSFeHFeS2FeS2FeS2FeSFeS4H2CSFeS2H2SCFeSFeCSHS2H2FeH4CH3C6H4C6H4C2HC3H7FeHSH2CHC2H6CHC2H2CHC6H2NH3C6H4CFeH2C6H4CH6C2H3C3H2CHNCHC2HFeHC2H2CHCNC8H20C3HCH2CH3CH3CHCHCSH7NC8H7SHCH4CH3CH2C2H4CNCH2SHCNCSHCFeCNC4HC4H19C2H3SCH5CH8CH4CFeCH5C2HCH6C2H2CH3C2H4CH3FeSHCH2CHC5H2FeS2FeS2FeSFeS3FeS2FeSHFeSFeS5H3CHCFeSHSCHFeSHFeSCHSHFeS2FeS2Fe3S3HC2HC2HC3H2C3H2CH4CH2C2HCH2C2H2CH2SFeC8H5CHC7HFeHC6H4C6H4C6H5CH5FeH3CH4CFe2SH7SCNC8H21NC4H6CH2CH4CH2CHCH5C2H4NSH2CH2C2H2NH2CNH2CH2C2H2NC5SH13C2HCHC2H3CH2CHC3H4NSHCHCHCSCHCH3CHCH2NH2CHC2HC2H3SCHCSH3CH2CHCSCH6NCH4CH3NC6SCH4NH3CH3CHCHSH3CH7CH5CH4C3H4CH3SH4FeSH3CH2SC2H3C2FeS2FeS2FeSFeS3FeS2FeS2FeSFeHS2CSHFeH2FeS2FeSHSHCHSH2SFeSHFeS2Fe2CFeS3H5CHCH5C6H3CHCSH3CNHC2H6SCHCH2CH2C6H4CH2C2H2C7HC6H4C6H4C6H6NC4SCHCH7FeH3CH6CHCHCH3CH2CH3CH2CHCH2CH2CHCH2C3H3CHCH4NH4CNC8H3CH7SH4NH2C2H2CHCH3CHNH10C2H3C2H7CH2C2H6C3H4CSHCH4CH2C2HSHCHCSHC2H2CH2C2HC2HCHC3H3FeC2H7NC8H20NCH8C2SH2NHNH4CHCH3C2S2CH2CHNC2H3C2H12CH3C2HC2HC2H2CSCHSCFeS2FeSC2SH2SHNSHSFeSFeS2FeS2FeSFeS3H2SHC3HSCHFeH4SCHCSH2CHCH5C3HCH3SC2H2C6H4C5HC2H2SHC2HCHFeCH2SHC2SFeH3CH3SFeC6H4C6H3NH2NH5NC8H8CH5C2H7CH4CH2CH2FeCH2CHCSC3H4CH4NC8H20C2H2FeNC8H18CH2CH4CH2CHC5HFeCH2NCNH3CH5C2H6CH7SH2CSH4CH3CHC2HC4H2C4S2CH2S3H3C2H5CH3FeS2FeS2H2FeS3H2S2FeS2FeS2FeSFeCS2FeS2FeSFeS2FeS2FeSCSFeSFeS2H2FeHCH6SC4H2C3H2C6H4C2S2HC6H5NH3SCHC3HC2HSH4C6H4C6H3NC7H17CH6FeH2CHCH4CH4FeH2CH2SCNC2H2CH3SC2HCHSHSH5CHCSHCNC8H21CH2C2H2SH2C2H3SC2HCH3FeC2H2C2FeHCHCHCH3CH2SCSHSH2NHCHFeH2CH2CHFeNC8H19CHNSHCHC2H2FeHCH5CNC8H2NH4FeHC2HC2H5C2H2CH3CH2C2HC2FeHCHC2NH5Fe2S2HSHSFeSHSFeS2FeS2FeSFeS3FeS2FeCSH3S2FeS2FeS2FeSFeS3CSNS2HSHC7H4C6H5FeHC2HCH2SHCHC7H4C6H4C6H4CH2C6H4CNCHC2H4NC8H11CH4CH3NC6H13C2HCH4NC6H5CH7CH2CH5NC8H20C2H3CH2CH4C2H4CHCH10SFeCH5CH6FeH5CH4CH3CHCH4C2H5C3H5CH2NHFeSCHC2H2FeCHCH2SC2H2CH2FeH2NC4HCH3NH2C3SCH3C2HFeHFeH2CHCH3SHFeC2HCHCHC2HCH4FeC2FeH3NFeH4CHCH2CH2C2HC2H7C2HCHCH3CH3NSFeCHCH2FeS2FeS2Fe2S4FeS2FeS2FeSFeS3FeS2FeS2FeSFeS3FeHSH2CS2HSH4SHCH2CHC2NH3CH3C6H4C6H4C4H2C6H4C6H4C4H2C2HCSCH5CH3C6H4C2HNH2C2H2C2HS2HCH3CH3CH2CHC2H4FeH4CH2CH5C2H3CH4CHNC8H20SNHC2HSHCH2CH4CH3C2HCH4FeSNC8H24C2H3C2H2NC5HC2H12SH5FeHNC3H8SHCH3FeH9C4HSCHCH2CNC4HCH2CH3FeH5CH5C2H4C2FeHC3H2CH2NC3H3CH3CFeHCHC2H2SHCHC2HSH3SCSHCHCH3C2FeH3CH2CNCHSHCH5NHSHSH2CH2FeSCH3CH4CHFeSH2CH3SFeC2NH5CHCFeS2CHFeSHSFeS2FeS2FeSFeS3HC6H4C6H7CHC2FeCSC3H2CHC3H4CS2HCH2CH3C6H7C3H5CHCH7CH2N2H7CH2CH6NCH6CHCH2CH2CHCHCFeHCH5CHC3H3N2C8H11CH5SH2CH4FeHC3H3SCHCH4C3H6C2HCHCH7C3H7CHSH5NH3CH4CSH2C2S2HSH5SH6FeSCHSFeSFeS2FeS2FeS2FeSFeS2FeS2H3FeHSCH2S2H3FeSCFeS2FeSFeS3CHFeS2FeSFeSFeS2HC6H4CHNH4C9H3CHFeH2CH3CH5C2HC6H3CHC6H4C3H2C6H6CHNHCSH2C4HCH2CH10CH5CHSFeH3CHCHC2HCHFeHCH2C2H3SC2H6FeNCNC4H4CH5C3H3CHCNC8H20NC8H16CH3CHC2NC3HNH2CH2C2H2C2FeH3C2SNCH3CH2CHS2H2CH3C2HSH3NH3C2H3SC4H3SCH8CHC3H2SCH2C2FeCH
_chemical_formula_sum              "H5472 C3192 Fe456 S912 N228"
_cell_length_a       91.7192
_cell_length_b       91.2258
_cell_length_c       50.0196
_cell_angle_alpha    77.7833
_cell_angle_beta     78.1707
_cell_angle_gamma    101.564

_space_group_name_H-M_alt    "P 1"
_space_group_IT_number       1

loop_
  _space_group_symop_operation_xyz
  'x, y, z'

loop_
  _atom_site_type_symbol
  _atom_site_label
  _atom_site_symmetry_multiplicity
  _atom_site_fract_x
  _atom_site_fract_y
  _atom_site_fract_z
  _atom_site_occupancy
  H   H1        1.0  0.10802  0.08608  0.02201  1.0000
  C   C1        1.0  0.01627  0.14505  0.04519  1.0000
  H   H2        1.0  0.18962  0.06549  0.33228  1.0000
  H   H3        1.0  0.16344  0.08819  0.30006  1.0000
  C   C2        1.0  0.18158  0.10900  0.29293  1.0000
  H   H4        1.0  0.19103  0.10653  0.30227  1.0000
  H   H5        1.0  0.20465  0.29256  0.12739  1.0000
  H   H6        1.0  0.07190  0.18012  0.27702  1.0000
  H   H7        1.0  0.02192  0.13812  0.05904  1.0000
  C   C3        1.0  0.09178  0.26862  0.45032  1.0000
  C   C4        1.0  0.16440  0.07738  0.24073  1.0000
  Fe  Fe1       1.0  0.19416  0.21657  0.11050  1.0000
  S   S1        1.0  0.17028  0.21279  0.10438  1.0000
  S   S2        1.0  0.21167  0.23919  0.08495  1.0000
  Fe  Fe2       1.0  0.18723  0.18379  0.14891  1.0000
  S   S3        1.0  0.16254  0.17753  0.14598  1.0000
  S   S4        1.0  0.20150  0.16731  0.16337  1.0000
  Fe  Fe3       1.0  0.17180  0.18919  0.09931  1.0000
  S   S5        1.0  0.16742  0.18149  0.06012  1.0000
  Fe  Fe4       1.0  0.16247  0.20163  0.15129  1.0000
  S   S6        1.0  0.14114  0.20854  0.17177  1.0000
  S   S7        1.0  0.19644  0.19398  0.10183  1.0000
  S   S8        1.0  0.18647  0.20700  0.15781  1.0000
  Fe  Fe5       1.0  0.08000  0.25806  0.27508  1.0000
  S   S9        1.0  0.08866  0.24325  0.30764  1.0000
  S   S10       1.0  0.05727  0.24886  0.26273  1.0000
  Fe  Fe6       1.0  0.10595  0.28735  0.27092  1.0000
  S   S11       1.0  0.11636  0.27411  0.30178  1.0000
  H   H8        1.0  0.09412  0.18327  0.20660  1.0000
  Fe  Fe7       1.0  0.11230  0.25547  0.27867  1.0000
  S   S12       1.0  0.13106  0.24281  0.26971  1.0000
  Fe  Fe8       1.0  0.09208  0.26313  0.32825  1.0000
  S   S13       1.0  0.08353  0.26239  0.37552  1.0000
  S   S14       1.0  0.10369  0.26953  0.24546  1.0000
  S   S15       1.0  0.08162  0.27712  0.29796  1.0000
  S   S16       1.0  0.98398  0.17800  0.18613  1.0000
  C   C5        1.0  0.19442  0.09586  0.24206  1.0000
  H   H9        1.0  0.15686  0.12727  0.00448  1.0000
  S   S17       1.0  0.11174  0.13579  0.03551  1.0000
  C   C6        1.0  0.14922  0.99506  0.08420  1.0000
  S   S18       1.0  0.19445  0.01198  0.14105  1.0000
  C   C7        1.0  0.21966  0.14579  0.22316  1.0000
  H   H10       1.0  0.01643  0.16198  0.06998  1.0000
  S   S19       1.0  0.16055  0.00425  0.18322  1.0000
  H   H11       1.0  0.10724  0.20146  0.20063  1.0000
  Fe  Fe9       1.0  0.17028  0.99990  0.14114  1.0000
  S   S20       1.0  0.15852  0.00584  0.10495  1.0000
  Fe  Fe10      1.0  0.18496  0.01435  0.18500  1.0000
  S   S21       1.0  0.19467  0.03814  0.19357  1.0000
  C   C8        1.0  0.10699  0.26764  0.44811  1.0000
  H   H12       1.0  0.13518  0.31019  0.28892  1.0000
  H   H13       1.0  0.12611  0.29970  0.41735  1.0000
  H   H14       1.0  0.22352  0.00670  0.10960  1.0000
  H   H15       1.0  0.05760  0.19311  0.23816  1.0000
  H   H16       1.0  0.17559  0.07642  0.33102  1.0000
  C   C9        1.0  0.17287  0.07290  0.26374  1.0000
  H   H17       1.0  0.10052  0.31435  0.32692  1.0000
  H   H18       1.0  0.02535  0.12461  0.99685  1.0000
  Fe  Fe11      1.0  0.00128  0.20158  0.17539  1.0000
  H   H19       1.0  0.18606  0.11988  0.27555  1.0000
  S   S22       1.0  0.02424  0.20919  0.18812  1.0000
  H   H20       1.0  0.03739  0.27711  0.15558  1.0000
  H   H21       1.0  0.02592  0.28754  0.08208  1.0000
  H   H22       1.0  0.04754  0.24694  0.10996  1.0000
  H   H23       1.0  0.00961  0.10186  0.03770  1.0000
  S   S23       1.0  0.00465  0.20348  0.12853  1.0000
  H   H24       1.0  0.07783  0.17081  0.25125  1.0000
  H   H25       1.0  0.13420  0.29514  0.38471  1.0000
  H   H26       1.0  0.99790  0.16303  0.01644  1.0000
  C   C10       1.0  0.14425  0.09040  0.08815  1.0000
  H   H27       1.0  0.06019  0.17637  0.22556  1.0000
  H   H28       1.0  0.15629  0.08434  0.24681  1.0000
  H   H29       1.0  0.01798  0.23970  0.16156  1.0000
  H   H30       1.0  0.08778  0.21295  0.28200  1.0000
  C   C11       1.0  0.02870  0.25825  0.10640  1.0000
  H   H31       1.0  0.01815  0.25560  0.09868  1.0000
  H   H32       1.0  0.05226  0.14089  0.99754  1.0000
  H   H33       1.0  0.00379  0.14060  0.05580  1.0000
  C   C12       1.0  0.14163  0.00242  0.06559  1.0000
  H   H34       1.0  0.03426  0.16582  0.99487  1.0000
  H   H35       1.0  0.15743  0.06659  0.23802  1.0000
  H   H36       1.0  0.14188  0.01451  0.06363  1.0000
  C   C13       1.0  0.20497  0.04717  0.21544  1.0000
  C   C14       1.0  0.21110  0.06341  0.20713  1.0000
  C   C15       1.0  0.21934  0.07115  0.22340  1.0000
  C   C16       1.0  0.22144  0.06286  0.24872  1.0000
  C   C17       1.0  0.21545  0.04659  0.25687  1.0000
  C   C18       1.0  0.20731  0.03882  0.24047  1.0000
  H   H37       1.0  0.20956  0.07008  0.18775  1.0000
  H   H38       1.0  0.20864  0.11339  0.25730  1.0000
  H   H39       1.0  0.00333  0.24567  0.14793  1.0000
  H   H40       1.0  0.20271  0.02636  0.24740  1.0000
  Fe  Fe12      1.0  0.98443  0.32080  0.07328  1.0000
  N   N1        1.0  0.11533  0.31687  0.37336  1.0000
  H   H41       1.0  0.07465  0.19876  0.19170  1.0000
  H   H42       1.0  0.11746  0.18058  0.26341  1.0000
  H   H43       1.0  0.04365  0.22267  0.46920  1.0000
  H   H44       1.0  0.12440  0.30800  0.33825  1.0000
  H   H45       1.0  0.14643  0.10291  0.08740  1.0000
  C   C19       1.0  0.22700  0.24508  0.12537  1.0000
  C   C20       1.0  0.22561  0.24999  0.09781  1.0000
  C   C21       1.0  0.04836  0.23809  0.24127  1.0000
  C   C22       1.0  0.05681  0.23280  0.22030  1.0000
  C   C23       1.0  0.04925  0.22389  0.20469  1.0000
  C   C24       1.0  0.03308  0.22044  0.20900  1.0000
  C   C25       1.0  0.02465  0.22614  0.22936  1.0000
  C   C26       1.0  0.03221  0.23478  0.24538  1.0000
  H   H46       1.0  0.06923  0.23577  0.21592  1.0000
  H   H47       1.0  0.05601  0.21984  0.18877  1.0000
  H   H48       1.0  0.01226  0.22369  0.23315  1.0000
  H   H49       1.0  0.02545  0.23884  0.26130  1.0000
  C   C27       1.0  0.09295  0.26426  0.40307  1.0000
  C   C28       1.0  0.10821  0.26341  0.40078  1.0000
  C   C29       1.0  0.11513  0.26506  0.42315  1.0000
  C   C30       1.0  0.08478  0.26679  0.42810  1.0000
  H   H50       1.0  0.11467  0.26141  0.38181  1.0000
  H   H51       1.0  0.12692  0.26430  0.42108  1.0000
  H   H52       1.0  0.05890  0.16131  0.99188  1.0000
  C   C31       1.0  0.15168  0.16871  0.05405  1.0000
  C   C32       1.0  0.15247  0.16714  0.02639  1.0000
  C   C33       1.0  0.14035  0.15723  0.02034  1.0000
  C   C34       1.0  0.12725  0.14865  0.04196  1.0000
  C   C35       1.0  0.12650  0.15010  0.06967  1.0000
  C   C36       1.0  0.13860  0.16008  0.07570  1.0000
  H   H53       1.0  0.16252  0.17373  0.00947  1.0000
  H   H54       1.0  0.14115  0.15626  0.99893  1.0000
  H   H55       1.0  0.11644  0.14353  0.08658  1.0000
  H   H56       1.0  0.13780  0.16112  0.09707  1.0000
  C   C37       1.0  0.20483  0.15989  0.19663  1.0000
  C   C38       1.0  0.19721  0.16263  0.22161  1.0000
  C   C39       1.0  0.20074  0.15682  0.24732  1.0000
  C   C40       1.0  0.21202  0.14841  0.24818  1.0000
  H   H57       1.0  0.15482  0.13199  0.03793  1.0000
  C   C41       1.0  0.21594  0.15132  0.19763  1.0000
  H   H58       1.0  0.18861  0.16918  0.22113  1.0000
  H   H59       1.0  0.19476  0.15889  0.26663  1.0000
  H   H60       1.0  0.21778  0.01855  0.19362  1.0000
  H   H61       1.0  0.22566  0.23948  0.02075  1.0000
  C   C42       1.0  0.13950  0.21903  0.19771  1.0000
  C   C43       1.0  0.14766  0.21757  0.21843  1.0000
  C   C44       1.0  0.14502  0.22504  0.24022  1.0000
  C   C45       1.0  0.13427  0.23407  0.24144  1.0000
  C   C46       1.0  0.12642  0.23589  0.22026  1.0000
  C   C47       1.0  0.12901  0.22836  0.19853  1.0000
  H   H62       1.0  0.15566  0.21031  0.21817  1.0000
  H   H63       1.0  0.15116  0.22362  0.25652  1.0000
  H   H64       1.0  0.11831  0.24302  0.22076  1.0000
  H   H65       1.0  0.12274  0.22966  0.18241  1.0000
  H   H66       1.0  0.16788  0.10123  0.26674  1.0000
  H   H67       1.0  0.20076  0.08797  0.29355  1.0000
  H   H68       1.0  0.08883  0.29989  0.35917  1.0000
  H   H69       1.0  0.10056  0.16908  0.25840  1.0000
  H   H70       1.0  0.21907  0.99185  0.20884  1.0000
  H   H71       1.0  0.16373  0.06595  0.28309  1.0000
  S   S24       1.0  0.98585  0.16128  0.11787  1.0000
  H   H72       1.0  0.13284  0.08401  0.10271  1.0000
  H   H73       1.0  0.06579  0.23648  0.47639  1.0000
  H   H74       1.0  0.17376  0.05887  0.31876  1.0000
  H   H75       1.0  0.17323  0.11109  0.31031  1.0000
  H   H76       1.0  0.21738  0.09812  0.25016  1.0000
  H   H77       1.0  0.99527  0.13625  0.01618  1.0000
  H   H78       1.0  0.11762  0.07325  0.06241  1.0000
  C   C48       1.0  0.19178  0.07913  0.28987  1.0000
  C   C49       1.0  0.20994  0.10559  0.24335  1.0000
  C   C50       1.0  0.03942  0.26902  0.14217  1.0000
  C   C51       1.0  0.22765  0.20343  0.16856  1.0000
  H   H79       1.0  0.07302  0.26760  0.43006  1.0000
  H   H80       1.0  0.19988  0.31894  0.20352  1.0000
  Fe  Fe13      1.0  0.11036  0.13158  0.99241  1.0000
  H   H81       1.0  0.09042  0.21594  0.18251  1.0000
  C   C52       1.0  0.10257  0.31043  0.40029  1.0000
  H   H82       1.0  0.21695  0.03993  0.27630  1.0000
  H   H83       1.0  0.09666  0.19217  0.27720  1.0000
  H   H84       1.0  0.99869  0.26081  0.18198  1.0000
  N   N2        1.0  0.02498  0.26318  0.13344  1.0000
  H   H85       1.0  0.21626  0.11293  0.22175  1.0000
  H   H86       1.0  0.00584  0.27200  0.12415  1.0000
  H   H87       1.0  0.21687  0.27919  0.12965  1.0000
  H   H88       1.0  0.16052  0.08428  0.00670  1.0000
  C   C53       1.0  0.02609  0.29035  0.10257  1.0000
  H   H89       1.0  0.17954  0.06472  0.25700  1.0000
  H   H90       1.0  0.11311  0.29342  0.36867  1.0000
  H   H91       1.0  0.00056  0.11462  0.05402  1.0000
  H   H92       1.0  0.10204  0.29818  0.41043  1.0000
  C   C54       1.0  0.13430  0.30434  0.39606  1.0000
  H   H93       1.0  0.00071  0.24264  0.20038  1.0000
  N   N3        1.0  0.18328  0.08619  0.26982  1.0000
  H   H94       1.0  0.13270  0.07893  0.01438  1.0000
  H   H95       1.0  0.01489  0.28100  0.14664  1.0000
  H   H96       1.0  0.03396  0.16587  0.04335  1.0000
  H   H97       1.0  0.09192  0.20078  0.16562  1.0000
  H   H98       1.0  0.09532  0.22044  0.22911  1.0000
  H   H99       1.0  0.06825  0.20351  0.28216  1.0000
  H   H100      1.0  0.18899  0.10402  0.23012  1.0000
  H   H101      1.0  0.19753  0.08837  0.22803  1.0000
  H   H102      1.0  0.15298  0.08592  0.09757  1.0000
  H   H103      1.0  0.03809  0.29495  0.10331  1.0000
  N   N4        1.0  0.01951  0.14260  0.01581  1.0000
  H   H104      1.0  0.01635  0.25949  0.19232  1.0000
  H   H105      1.0  0.21935  0.23442  0.13942  1.0000
  H   H106      1.0  0.11396  0.99032  0.15538  1.0000
  C   C55       1.0  0.00707  0.25366  0.18415  1.0000
  H   H107      1.0  0.11540  0.18231  0.22840  1.0000
  H   H108      1.0  0.08551  0.27100  0.46901  1.0000
  H   H109      1.0  0.02012  0.29981  0.10314  1.0000
  H   H110      1.0  0.09685  0.31113  0.44429  1.0000
  C   C56       1.0  0.01725  0.27628  0.12787  1.0000
  S   S25       1.0  0.22476  0.10246  0.31575  1.0000
  C   C57       1.0  0.98527  0.25386  0.09968  1.0000
  C   C58       1.0  0.00633  0.14426  0.00252  1.0000
  C   C59       1.0  0.03564  0.24417  0.10747  1.0000
  C   C60       1.0  0.04571  0.25673  0.15949  1.0000
  H   H111      1.0  0.04889  0.27595  0.12324  1.0000
  H   H112      1.0  0.22502  0.18390  0.21860  1.0000
  H   H113      1.0  0.03646  0.24115  0.08692  1.0000
  H   H114      1.0  0.02840  0.23364  0.12390  1.0000
  H   H115      1.0  0.05850  0.26045  0.15343  1.0000
  H   H116      1.0  0.04255  0.24497  0.15652  1.0000
  C   C61       1.0  0.01340  0.24994  0.15601  1.0000
  H   H117      1.0  0.99653  0.26646  0.05630  1.0000
  H   H118      1.0  0.10682  0.10208  0.03793  1.0000
  C   C62       1.0  0.02113  0.12625  0.01815  1.0000
  H   H119      1.0  0.21529  0.28913  0.09621  1.0000
  C   C63       1.0  0.17343  0.09565  0.28250  1.0000
  C   C64       1.0  0.99038  0.26714  0.07674  1.0000
  H   H120      1.0  0.04838  0.14954  0.02677  1.0000
  H   H121      1.0  0.14356  0.07490  0.06092  1.0000
  H   H122      1.0  0.04224  0.25612  0.18241  1.0000
  H   H123      1.0  0.04999  0.17460  0.26142  1.0000
  N   N5        1.0  0.13574  0.09439  0.04158  1.0000
  C   C65       1.0  0.11923  0.08608  0.05735  1.0000
  C   C66       1.0  0.14586  0.08767  0.05840  1.0000
  C   C67       1.0  0.13863  0.09115  0.01281  1.0000
  C   C68       1.0  0.13763  0.11151  0.03882  1.0000
  Fe  Fe14      1.0  0.98562  0.21562  0.13139  1.0000
  C   C69       1.0  0.02126  0.16180  0.04779  1.0000
  H   H124      1.0  0.22851  0.13956  0.22344  1.0000
  C   C70       1.0  0.15410  0.12224  0.02774  1.0000
  H   H125      1.0  0.09529  0.08301  0.05586  1.0000
  H   H126      1.0  0.11605  0.08891  0.07800  1.0000
  H   H127      1.0  0.15824  0.09217  0.04726  1.0000
  H   H128      1.0  0.99196  0.29161  0.06241  1.0000
  S   S26       1.0  0.21620  0.14140  0.28082  1.0000
  H   H129      1.0  0.13358  0.09851  0.99850  1.0000
  H   H130      1.0  0.13113  0.11621  0.02407  1.0000
  H   H131      1.0  0.13212  0.11376  0.05908  1.0000
  H   H132      1.0  0.07582  0.22390  0.26779  1.0000
  H   H133      1.0  0.03714  0.26780  0.08924  1.0000
  C   C71       1.0  0.10684  0.08967  0.04204  1.0000
  H   H134      1.0  0.19819  0.07153  0.28042  1.0000
  C   C72       1.0  0.11391  0.30524  0.35593  1.0000
  C   C73       1.0  0.23000  0.00102  0.20323  1.0000
  C   C74       1.0  0.04920  0.15108  0.00388  1.0000
  H   H135      1.0  0.12760  0.00010  0.03588  1.0000
  H   H136      1.0  0.22418  0.08355  0.21615  1.0000
  H   H137      1.0  0.09115  0.30959  0.39556  1.0000
  H   H138      1.0  0.16321  0.11677  0.03292  1.0000
  S   S27       1.0  0.09241  0.11154  0.98887  1.0000
  H   H139      1.0  0.07629  0.21295  0.22846  1.0000
  C   C75       1.0  0.13351  0.99427  0.04971  1.0000
  C   C76       1.0  0.03422  0.15352  0.99625  1.0000
  C   C77       1.0  0.18186  0.06946  0.31953  1.0000
  C   C78       1.0  0.00643  0.11311  0.03346  1.0000
  H   H140      1.0  0.17247  0.08357  0.21976  1.0000
  N   N6        1.0  0.18428  0.26154  0.14756  1.0000
  C   C79       1.0  0.19513  0.27016  0.11890  1.0000
  C   C80       1.0  0.17422  0.24729  0.14369  1.0000
  C   C81       1.0  0.19386  0.25691  0.16757  1.0000
  C   C82       1.0  0.17523  0.27240  0.15736  1.0000
  C   C83       1.0  0.20863  0.28348  0.11852  1.0000
  C   C84       1.0  0.16347  0.25030  0.12430  1.0000
  C   C85       1.0  0.18583  0.24361  0.19458  1.0000
  C   C86       1.0  0.16185  0.26558  0.18437  1.0000
  H   H141      1.0  0.20034  0.26206  0.10872  1.0000
  H   H142      1.0  0.18884  0.27532  0.10410  1.0000
  H   H143      1.0  0.16673  0.23952  0.16399  1.0000
  H   H144      1.0  0.18147  0.24005  0.13504  1.0000
  H   H145      1.0  0.20361  0.25304  0.15649  1.0000
  H   H146      1.0  0.19921  0.26704  0.17453  1.0000
  H   H147      1.0  0.18295  0.28222  0.16160  1.0000
  H   H148      1.0  0.17056  0.27821  0.14032  1.0000
  C   C87       1.0  0.22842  0.01569  0.18313  1.0000
  S   S28       1.0  0.23110  0.07209  0.27119  1.0000
  C   C88       1.0  0.98781  0.28138  0.08014  1.0000
  H   H149      1.0  0.16998  0.25609  0.10203  1.0000
  H   H150      1.0  0.15624  0.23896  0.12424  1.0000
  H   H151      1.0  0.15543  0.25696  0.13213  1.0000
  H   H152      1.0  0.19401  0.24247  0.20802  1.0000
  H   H153      1.0  0.18272  0.23229  0.18957  1.0000
  H   H154      1.0  0.17557  0.24566  0.20764  1.0000
  H   H155      1.0  0.16570  0.26712  0.20349  1.0000
  H   H156      1.0  0.15627  0.25325  0.18766  1.0000
  H   H157      1.0  0.15253  0.27159  0.18271  1.0000
  N   N7        1.0  0.08862  0.19542  0.23884  1.0000
  C   C89       1.0  0.10113  0.19391  0.25401  1.0000
  C   C90       1.0  0.08495  0.21068  0.24009  1.0000
  C   C91       1.0  0.09478  0.19534  0.20840  1.0000
  C   C92       1.0  0.07492  0.18180  0.25365  1.0000
  C   C93       1.0  0.10889  0.18062  0.25061  1.0000
  C   C94       1.0  0.07888  0.21259  0.26994  1.0000
  C   C95       1.0  0.08731  0.20314  0.18618  1.0000
  C   C96       1.0  0.06004  0.18163  0.24369  1.0000
  H   H158      1.0  0.11053  0.20479  0.24682  1.0000
  C   C97       1.0  0.09998  0.30363  0.34287  1.0000
  H   H159      1.0  0.02999  0.12392  0.02958  1.0000
  S   S29       1.0  0.11476  0.31367  0.25133  1.0000
  H   H160      1.0  0.01705  0.17026  0.03413  1.0000
  H   H161      1.0  0.22190  0.14916  0.17839  1.0000
  H   H162      1.0  0.10014  0.29446  0.33144  1.0000
  H   H163      1.0  0.13056  0.99699  0.16683  1.0000
  H   H164      1.0  0.01317  0.16975  0.98346  1.0000
  H   H165      1.0  0.99829  0.11209  0.01987  1.0000
  Fe  Fe15      1.0  0.98583  0.18148  0.13907  1.0000
  H   H166      1.0  0.16284  0.10503  0.99436  1.0000
  S   S30       1.0  0.18709  0.99100  0.20733  1.0000
  H   H167      1.0  0.22354  0.20116  0.25060  1.0000
  C   C98       1.0  0.23097  0.20634  0.13603  1.0000
  S   S31       1.0  0.11654  0.27002  0.47533  1.0000
  H   H168      1.0  0.22677  0.26738  0.98088  1.0000
  H   H169      1.0  0.22589  0.01204  0.16440  1.0000
  H   H170      1.0  0.00823  0.14091  0.98213  1.0000
  S   S32       1.0  0.98970  0.23656  0.09469  1.0000
  H   H171      1.0  0.22070  0.20879  0.12931  1.0000
  H   H172      1.0  0.22397  0.21366  0.17353  1.0000
  C   C99       1.0  0.00301  0.16035  0.99654  1.0000
  H   H173      1.0  0.21726  0.19350  0.17789  1.0000
  H   H174      1.0  0.23002  0.22371  0.04218  1.0000
  S   S33       1.0  0.98277  0.21458  0.17746  1.0000
  H   H175      1.0  0.22564  0.03114  0.13008  1.0000
  C   C100      1.0  0.15549  0.09343  0.99669  1.0000
  C   C101      1.0  0.22714  0.20627  0.22729  1.0000
  H   H176      1.0  0.21661  0.20805  0.22086  1.0000
  H   H177      1.0  0.14600  0.30743  0.39947  1.0000
  H   H178      1.0  0.22698  0.04481  0.16869  1.0000
  C   C102      1.0  0.13111  0.31895  0.37882  1.0000
  C   C103      1.0  0.10253  0.31941  0.42316  1.0000
  H   H179      1.0  0.03802  0.23939  0.47776  1.0000
  H   H180      1.0  0.99408  0.16015  0.98447  1.0000
  H   H181      1.0  0.23201  0.00304  0.22340  1.0000
  H   H182      1.0  0.09107  0.23489  0.48016  1.0000
  H   H183      1.0  0.10796  0.01981  0.84919  1.0000
  C   C104      1.0  0.10630  0.01222  0.87045  1.0000
  H   H184      1.0  0.22704  0.00769  0.64626  1.0000
  H   H185      1.0  0.13473  0.03314  0.90964  1.0000
  C   C105      1.0  0.04894  0.12504  0.94594  1.0000
  H   H186      1.0  0.20137  0.11555  0.61699  1.0000
  H   H187      1.0  0.08339  0.14446  0.87191  1.0000
  H   H188      1.0  0.12379  0.05234  0.89538  1.0000
  S   S34       1.0  0.20862  0.24630  0.75465  1.0000
  H   H189      1.0  0.15580  0.26033  0.67344  1.0000
  S   S35       1.0  0.21849  0.14752  0.60115  1.0000
  H   H190      1.0  0.11387  0.15944  0.87999  1.0000
  H   H191      1.0  0.06662  0.15811  0.88420  1.0000
  C   C106      1.0  0.10445  0.16541  0.88161  1.0000
  H   H192      1.0  0.08444  0.24561  0.50389  1.0000
  H   H193      1.0  0.02733  0.28798  0.65080  1.0000
  H   H194      1.0  0.08019  0.04569  0.94195  1.0000
  Fe  Fe16      1.0  0.20155  0.22781  0.73198  1.0000
  S   S36       1.0  0.17638  0.22251  0.73213  1.0000
  H   H195      1.0  0.10990  0.13964  0.86153  1.0000
  Fe  Fe17      1.0  0.20864  0.20705  0.69220  1.0000
  S   S37       1.0  0.18420  0.20048  0.68953  1.0000
  H   H196      1.0  0.09523  0.15762  0.90010  1.0000
  Fe  Fe18      1.0  0.18446  0.22553  0.68525  1.0000
  S   S38       1.0  0.17873  0.24157  0.64951  1.0000
  Fe  Fe19      1.0  0.17815  0.19792  0.73664  1.0000
  S   S39       1.0  0.15992  0.17635  0.76397  1.0000
  S   S40       1.0  0.20947  0.23242  0.68476  1.0000
  S   S41       1.0  0.20273  0.20284  0.73981  1.0000
  Fe  Fe20      1.0  0.12411  0.14273  0.92801  1.0000
  H   H197      1.0  0.98782  0.17183  0.70733  1.0000
  S   S42       1.0  0.14201  0.16384  0.89772  1.0000
  H   H198      1.0  0.15102  0.04379  0.88129  1.0000
  H   H199      1.0  0.22102  0.19865  0.57105  1.0000
  H   H200      1.0  0.12141  0.18778  0.87401  1.0000
  H   H201      1.0  0.11367  0.17738  0.91010  1.0000
  S   S43       1.0  0.10773  0.12350  0.91930  1.0000
  H   H202      1.0  0.15400  0.32049  0.67066  1.0000
  C   C107      1.0  0.03161  0.27820  0.64550  1.0000
  H   H203      1.0  0.11513  0.01530  0.90596  1.0000
  H   H204      1.0  0.16207  0.02168  0.88329  1.0000
  H   H205      1.0  0.17025  0.06103  0.66454  1.0000
  C   C108      1.0  0.20193  0.10561  0.63340  1.0000
  C   C109      1.0  0.14275  0.31172  0.67989  1.0000
  S   S44       1.0  0.19562  0.01468  0.63407  1.0000
  H   H206      1.0  0.14694  0.02016  0.80428  1.0000
  C   C110      1.0  0.08244  0.23395  0.50002  1.0000
  H   H207      1.0  0.01227  0.29113  0.85241  1.0000
  C   C111      1.0  0.00049  0.28323  0.85984  1.0000
  Fe  Fe21      1.0  0.18639  0.99426  0.67374  1.0000
  S   S45       1.0  0.09028  0.01764  0.94926  1.0000
  H   H208      1.0  0.22740  0.22369  0.57912  1.0000
  H   H209      1.0  0.00194  0.27125  0.86339  1.0000
  H   H210      1.0  0.22196  0.05700  0.66817  1.0000
  H   H211      1.0  0.10088  0.18500  0.79789  1.0000
  H   H212      1.0  0.12269  0.04212  0.84086  1.0000
  C   C112      1.0  0.10945  0.17817  0.80060  1.0000
  H   H213      1.0  0.11183  0.14680  0.82420  1.0000
  H   H214      1.0  0.17457  0.28107  0.62928  1.0000
  S   S46       1.0  0.00248  0.20305  0.66810  1.0000
  H   H215      1.0  0.18823  0.29519  0.63714  1.0000
  Fe  Fe22      1.0  0.08078  0.26470  0.57293  1.0000
  S   S47       1.0  0.09376  0.24881  0.55583  1.0000
  S   S48       1.0  0.05457  0.26065  0.58257  1.0000
  Fe  Fe23      1.0  0.11081  0.28949  0.56603  1.0000
  S   S49       1.0  0.12582  0.27536  0.54775  1.0000
  H   H216      1.0  0.00255  0.27971  0.66202  1.0000
  Fe  Fe24      1.0  0.10844  0.27019  0.52214  1.0000
  H   H217      1.0  0.12405  0.00394  0.88685  1.0000
  Fe  Fe25      1.0  0.10991  0.25517  0.58249  1.0000
  S   S50       1.0  0.11592  0.23602  0.61230  1.0000
  S   S51       1.0  0.09470  0.28589  0.53790  1.0000
  S   S52       1.0  0.09568  0.26948  0.60211  1.0000
  H   H218      1.0  0.10564  0.16691  0.79588  1.0000
  C   C113      1.0  0.07298  0.17010  0.88253  1.0000
  H   H219      1.0  0.12038  0.18458  0.78434  1.0000
  H   H220      1.0  0.07637  0.17048  0.90246  1.0000
  H   H221      1.0  0.02671  0.28733  0.69605  1.0000
  H   H222      1.0  0.98759  0.05423  0.97325  1.0000
  H   H223      1.0  0.21377  0.10418  0.62602  1.0000
  H   H224      1.0  0.17621  0.27947  0.66543  1.0000
  C   C114      1.0  0.01682  0.21917  0.64421  1.0000
  C   C115      1.0  0.01309  0.23070  0.62552  1.0000
  C   C116      1.0  0.02484  0.24318  0.60657  1.0000
  C   C117      1.0  0.04040  0.24440  0.60630  1.0000
  C   C118      1.0  0.04416  0.23281  0.62479  1.0000
  C   C119      1.0  0.03241  0.22022  0.64353  1.0000
  H   H225      1.0  0.00116  0.22990  0.62547  1.0000
  H   H226      1.0  0.02184  0.25200  0.59208  1.0000
  H   H227      1.0  0.05609  0.23356  0.62472  1.0000
  H   H228      1.0  0.03544  0.21130  0.65772  1.0000
  C   C120      1.0  0.02779  0.10174  0.96612  1.0000
  H   H229      1.0  0.08563  0.15239  0.83536  1.0000
  H   H230      1.0  0.03612  0.21981  0.57896  1.0000
  C   C121      1.0  0.20137  0.11086  0.66088  1.0000
  C   C122      1.0  0.09208  0.15156  0.85198  1.0000
  H   H231      1.0  0.10735  0.03881  0.89190  1.0000
  H   H232      1.0  0.04425  0.28134  0.64314  1.0000
  C   C123      1.0  0.09719  0.06317  0.94999  1.0000
  H   H233      1.0  0.06528  0.21704  0.49142  1.0000
  C   C124      1.0  0.09848  0.03622  0.95328  1.0000
  H   H234      1.0  0.22632  0.00690  0.88508  1.0000
  H   H235      1.0  0.11708  0.18819  0.83183  1.0000
  C   C125      1.0  0.01734  0.10968  0.95676  1.0000
  H   H236      1.0  0.00401  0.22012  0.71672  1.0000
  H   H237      1.0  0.08188  0.17659  0.83764  1.0000
  H   H238      1.0  0.09192  0.18878  0.85464  1.0000
  H   H239      1.0  0.17401  0.24148  0.83581  1.0000
  H   H240      1.0  0.20620  0.10351  0.67561  1.0000
  C   C126      1.0  0.19039  0.09774  0.58260  1.0000
  H   H241      1.0  0.99491  0.28581  0.84239  1.0000
  H   H242      1.0  0.18166  0.22682  0.87466  1.0000
  C   C127      1.0  0.15531  0.17286  0.80111  1.0000
  C   C128      1.0  0.14780  0.15780  0.81821  1.0000
  C   C129      1.0  0.14367  0.15480  0.84793  1.0000
  C   C130      1.0  0.14685  0.16692  0.86062  1.0000
  C   C131      1.0  0.15411  0.18199  0.84347  1.0000
  C   C132      1.0  0.15846  0.18496  0.81384  1.0000
  H   H243      1.0  0.14531  0.14841  0.80843  1.0000
  H   H244      1.0  0.13818  0.14312  0.86098  1.0000
  H   H245      1.0  0.15621  0.19145  0.85315  1.0000
  H   H246      1.0  0.16401  0.19663  0.80078  1.0000
  C   C133      1.0  0.13364  0.23741  0.62175  1.0000
  C   C134      1.0  0.13447  0.22642  0.64543  1.0000
  C   C135      1.0  0.14826  0.22733  0.65402  1.0000
  C   C136      1.0  0.16136  0.23922  0.63882  1.0000
  C   C137      1.0  0.16066  0.24994  0.61468  1.0000
  C   C138      1.0  0.14686  0.24909  0.60621  1.0000
  H   H247      1.0  0.12432  0.21728  0.65742  1.0000
  H   H248      1.0  0.14866  0.21899  0.67260  1.0000
  H   H249      1.0  0.17079  0.25910  0.60267  1.0000
  H   H250      1.0  0.14641  0.25748  0.58773  1.0000
  C   C139      1.0  0.11254  0.17625  0.83018  1.0000
  C   C140      1.0  0.08684  0.17638  0.85618  1.0000
  H   H251      1.0  0.05863  0.25651  0.48307  1.0000
  C   C141      1.0  0.09096  0.04813  0.94782  1.0000
  H   H252      1.0  0.18381  0.05388  0.68133  1.0000
  C   C142      1.0  0.21013  0.03841  0.65387  1.0000
  C   C143      1.0  0.20645  0.03375  0.63067  1.0000
  C   C144      1.0  0.21163  0.04448  0.60383  1.0000
  C   C145      1.0  0.18267  0.06165  0.66192  1.0000
  C   C146      1.0  0.03778  0.22092  0.51508  1.0000
  H   H253      1.0  0.20602  0.03037  0.67469  1.0000
  C   C147      1.0  0.04042  0.21030  0.57239  1.0000
  C   C148      1.0  0.98751  0.13492  0.74263  1.0000
  H   H254      1.0  0.01494  0.13154  0.93416  1.0000
  H   H255      1.0  0.19437  0.09400  0.56321  1.0000
  C   C149      1.0  0.10350  0.14167  0.84523  1.0000
  H   H256      1.0  0.18171  0.18350  0.86710  1.0000
  C   C150      1.0  0.21128  0.17458  0.65501  1.0000
  C   C151      1.0  0.20942  0.16281  0.64081  1.0000
  C   C152      1.0  0.11064  0.18048  0.88961  1.0000
  H   H257      1.0  0.12228  0.17072  0.83024  1.0000
  H   H258      1.0  0.20198  0.17477  0.67209  1.0000
  H   H259      1.0  0.19857  0.15412  0.64678  1.0000
  S   S53       1.0  0.10565  0.14853  0.95787  1.0000
  H   H260      1.0  0.11391  0.05809  0.86941  1.0000
  H   H261      1.0  0.13389  0.31833  0.68318  1.0000
  H   H262      1.0  0.04352  0.24153  0.54601  1.0000
  H   H263      1.0  0.09580  0.01340  0.88466  1.0000
  H   H264      1.0  0.14774  0.01450  0.85306  1.0000
  H   H265      1.0  0.17024  0.19237  0.88980  1.0000
  C   C153      1.0  0.14414  0.02523  0.84519  1.0000
  S   S54       1.0  0.11751  0.31300  0.57608  1.0000
  H   H266      1.0  0.20441  0.00014  0.84889  1.0000
  Fe  Fe26      1.0  0.11181  0.10780  0.95711  1.0000
  C   C154      1.0  0.13779  0.02250  0.81994  1.0000
  C   C155      1.0  0.11782  0.04820  0.88016  1.0000
  H   H267      1.0  0.15490  0.03479  0.83652  1.0000
  S   S55       1.0  0.99018  0.31762  0.82133  1.0000
  H   H268      1.0  0.15523  0.02278  0.91876  1.0000
  C   C156      1.0  0.22470  0.25064  0.76885  1.0000
  H   H269      1.0  0.22410  0.24585  0.86295  1.0000
  H   H270      1.0  0.15571  0.09223  0.97495  1.0000
  S   S56       1.0  0.11978  0.08532  0.96007  1.0000
  N   N8        1.0  0.09898  0.16741  0.85494  1.0000
  N   N9        1.0  0.13347  0.02869  0.86899  1.0000
  H   H271      1.0  0.20512  0.18821  0.60129  1.0000
  H   H272      1.0  0.14442  0.00845  0.90609  1.0000
  H   H273      1.0  0.09693  0.13010  0.84491  1.0000
  C   C157      1.0  0.03851  0.13291  0.93624  1.0000
  H   H274      1.0  0.99788  0.18143  0.72807  1.0000
  H   H275      1.0  0.14122  0.30997  0.63835  1.0000
  N   N10       1.0  0.00832  0.25962  0.68576  1.0000
  C   C158      1.0  0.00097  0.24237  0.69580  1.0000
  C   C159      1.0  0.99807  0.26698  0.67011  1.0000
  C   C160      1.0  0.00859  0.26540  0.71183  1.0000
  C   C161      1.0  0.02445  0.26230  0.66755  1.0000
  C   C162      1.0  0.00902  0.23262  0.71429  1.0000
  H   H276      1.0  0.22196  0.01007  0.68185  1.0000
  C   C163      1.0  0.01430  0.28303  0.70722  1.0000
  C   C164      1.0  0.21207  0.99435  0.83700  1.0000
  H   H277      1.0  0.22961  0.22526  0.61319  1.0000
  H   H278      1.0  0.00058  0.23725  0.67760  1.0000
  H   H279      1.0  0.22583  0.98978  0.93058  1.0000
  H   H280      1.0  0.22983  0.01394  0.83497  1.0000
  H   H281      1.0  0.99686  0.26169  0.72665  1.0000
  H   H282      1.0  0.01613  0.26023  0.72375  1.0000
  H   H283      1.0  0.03257  0.26050  0.68098  1.0000
  H   H284      1.0  0.02469  0.25351  0.65520  1.0000
  H   H285      1.0  0.02152  0.23493  0.70449  1.0000
  H   H286      1.0  0.00704  0.23432  0.73594  1.0000
  H   H287      1.0  0.11837  0.03056  0.96499  1.0000
  H   H288      1.0  0.00732  0.28966  0.69640  1.0000
  C   C165      1.0  0.22704  0.99481  0.88556  1.0000
  C   C166      1.0  0.99206  0.28613  0.88742  1.0000
  C   C167      1.0  0.21239  0.23791  0.86834  1.0000
  C   C168      1.0  0.22220  0.22688  0.59836  1.0000
  H   H289      1.0  0.10357  0.00014  0.86846  1.0000
  H   H290      1.0  0.04070  0.25695  0.50560  1.0000
  C   C169      1.0  0.22156  0.16213  0.61916  1.0000
  H   H291      1.0  0.99892  0.28304  0.90268  1.0000
  N   N11       1.0  0.19002  0.09099  0.63585  1.0000
  C   C170      1.0  0.19239  0.07825  0.65804  1.0000
  C   C171      1.0  0.15151  0.02053  0.89990  1.0000
  C   C172      1.0  0.19306  0.08673  0.60802  1.0000
  C   C173      1.0  0.17366  0.09229  0.64478  1.0000
  H   H292      1.0  0.20502  0.18555  0.56730  1.0000
  H   H293      1.0  0.18676  0.20239  0.82617  1.0000
  C   C174      1.0  0.05341  0.24274  0.52795  1.0000
  C   C175      1.0  0.17041  0.10807  0.63269  1.0000
  H   H294      1.0  0.20528  0.23825  0.56608  1.0000
  H   H295      1.0  0.18972  0.08052  0.67928  1.0000
  C   C176      1.0  0.12005  0.01478  0.88400  1.0000
  H   H296      1.0  0.01311  0.28551  0.72828  1.0000
  H   H297      1.0  0.20512  0.08564  0.60195  1.0000
  H   H298      1.0  0.18552  0.07525  0.60963  1.0000
  H   H299      1.0  0.16563  0.08313  0.63943  1.0000
  H   H300      1.0  0.16996  0.09007  0.66825  1.0000
  C   C177      1.0  0.06615  0.22853  0.49621  1.0000
  H   H301      1.0  0.06440  0.22148  0.55427  1.0000
  H   H302      1.0  0.98786  0.16027  0.76971  1.0000
  H   H303      1.0  0.22189  0.22284  0.84635  1.0000
  C   C178      1.0  0.04350  0.10939  0.96088  1.0000
  C   C179      1.0  0.99502  0.26086  0.64480  1.0000
  H   H304      1.0  0.04256  0.14500  0.92463  1.0000
  H   H305      1.0  0.99195  0.13898  0.71912  1.0000
  C   C180      1.0  0.14423  0.26078  0.68445  1.0000
  H   H306      1.0  0.15876  0.10588  0.62881  1.0000
  H   H307      1.0  0.17844  0.11529  0.61248  1.0000
  H   H308      1.0  0.16989  0.11496  0.64856  1.0000
  N   N12       1.0  0.19494  0.21513  0.59421  1.0000
  H   H309      1.0  0.05733  0.20567  0.54084  1.0000
  C   C181      1.0  0.20568  0.21683  0.61317  1.0000
  C   C182      1.0  0.17906  0.20610  0.61222  1.0000
  H   H310      1.0  0.18266  0.22521  0.54795  1.0000
  C   C183      1.0  0.18200  0.23239  0.56326  1.0000
  S   S57       1.0  0.99754  0.09979  0.96506  1.0000
  C   C184      1.0  0.17716  0.18899  0.62721  1.0000
  C   C185      1.0  0.17636  0.28749  0.64529  1.0000
  H   H311      1.0  0.20911  0.21664  0.55292  1.0000
  C   C186      1.0  0.20046  0.20774  0.57100  1.0000
  H   H312      1.0  0.20673  0.20552  0.62483  1.0000
  H   H313      1.0  0.20094  0.22206  0.63018  1.0000
  H   H314      1.0  0.17501  0.21196  0.62872  1.0000
  H   H315      1.0  0.17050  0.20568  0.59940  1.0000
  C   C187      1.0  0.20828  0.19442  0.57869  1.0000
  H   H316      1.0  0.03550  0.20807  0.51895  1.0000
  H   H317      1.0  0.05903  0.26745  0.50801  1.0000
  H   H318      1.0  0.19075  0.20324  0.56227  1.0000
  H   H319      1.0  0.19696  0.10991  0.57851  1.0000
  H   H320      1.0  0.19151  0.23770  0.59696  1.0000
  H   H321      1.0  0.14967  0.28095  0.70006  1.0000
  H   H322      1.0  0.10200  0.18730  0.89264  1.0000
  H   H323      1.0  0.18517  0.18742  0.64073  1.0000
  H   H324      1.0  0.17832  0.18189  0.61179  1.0000
  H   H325      1.0  0.16534  0.18423  0.64143  1.0000
  H   H326      1.0  0.21025  0.99563  0.81540  1.0000
  H   H327      1.0  0.22007  0.27210  0.77510  1.0000
  H   H328      1.0  0.21881  0.99702  0.74187  1.0000
  H   H329      1.0  0.22204  0.20729  0.81749  1.0000
  H   H330      1.0  0.17280  0.21426  0.85693  1.0000
  H   H331      1.0  0.17795  0.09708  0.58515  1.0000
  H   H332      1.0  0.22453  0.06772  0.57927  1.0000
  H   H333      1.0  0.05137  0.10317  0.96843  1.0000
  H   H334      1.0  0.04370  0.20384  0.59074  1.0000
  H   H335      1.0  0.18416  0.24463  0.55095  1.0000
  H   H336      1.0  0.20879  0.04099  0.58575  1.0000
  H   H337      1.0  0.18172  0.18066  0.90340  1.0000
  H   H338      1.0  0.14169  0.25348  0.70649  1.0000
  C   C188      1.0  0.11114  0.06653  0.95744  1.0000
  H   H339      1.0  0.20469  0.07795  0.65362  1.0000
  H   H340      1.0  0.13886  0.05308  0.84746  1.0000
  H   H341      1.0  0.19454  0.24664  0.82561  1.0000
  H   H342      1.0  0.00350  0.16524  0.71848  1.0000
  C   C189      1.0  0.99341  0.16983  0.72492  1.0000
  S   S58       1.0  0.12203  0.99343  0.95899  1.0000
  H   H343      1.0  0.20874  0.12288  0.65562  1.0000
  C   C190      1.0  0.11873  0.05464  0.96269  1.0000
  H   H344      1.0  0.18367  0.23326  0.81042  1.0000
  C   C191      1.0  0.03603  0.22668  0.48484  1.0000
  H   H345      1.0  0.98237  0.12224  0.74712  1.0000
  S   S59       1.0  0.12979  0.12692  0.96306  1.0000
  H   H346      1.0  0.14948  0.31033  0.56543  1.0000
  H   H347      1.0  0.13566  0.25514  0.67457  1.0000
  C   C192      1.0  0.19400  0.23128  0.58070  1.0000
  H   H348      1.0  0.18696  0.05677  0.64422  1.0000
  H   H349      1.0  0.12807  0.01201  0.82630  1.0000
  H   H350      1.0  0.13459  0.03270  0.80868  1.0000
  C   C193      1.0  0.18422  0.23689  0.83009  1.0000
  N   N13       1.0  0.14804  0.28962  0.65719  1.0000
  C   C194      1.0  0.13920  0.30181  0.65942  1.0000
  C   C195      1.0  0.14488  0.28322  0.63293  1.0000
  C   C196      1.0  0.16498  0.29758  0.65020  1.0000
  C   C197      1.0  0.14303  0.27737  0.68518  1.0000
  H   H351      1.0  0.20978  0.19639  0.80132  1.0000
  C   C198      1.0  0.12772  0.27748  0.63389  1.0000
  H   H352      1.0  0.03084  0.20213  0.56856  1.0000
  H   H353      1.0  0.12953  0.05709  0.96846  1.0000
  H   H354      1.0  0.99343  0.29887  0.88353  1.0000
  H   H355      1.0  0.12655  0.29648  0.66638  1.0000
  H   H356      1.0  0.15016  0.27349  0.63121  1.0000
  H   H357      1.0  0.15039  0.29208  0.61237  1.0000
  H   H358      1.0  0.16816  0.30754  0.63097  1.0000
  H   H359      1.0  0.16777  0.30267  0.66744  1.0000
  H   H360      1.0  0.17012  0.22928  0.57720  1.0000
  H   H361      1.0  0.13076  0.27606  0.69597  1.0000
  H   H362      1.0  0.08486  0.22560  0.51708  1.0000
  H   H363      1.0  0.00576  0.26053  0.63040  1.0000
  C   C199      1.0  0.02281  0.12531  0.94167  1.0000
  H   H364      1.0  0.12666  0.27029  0.61869  1.0000
  H   H365      1.0  0.12074  0.27029  0.65514  1.0000
  H   H366      1.0  0.12278  0.28739  0.62712  1.0000
  C   C200      1.0  0.11244  0.03957  0.96073  1.0000
  H   H367      1.0  0.20422  0.24535  0.86755  1.0000
  C   C201      1.0  0.22725  0.26416  0.77837  1.0000
  H   H368      1.0  0.21488  0.23655  0.82551  1.0000
  S   S60       1.0  0.06844  0.13552  0.93926  1.0000
  C   C202      1.0  0.14844  0.31898  0.57706  1.0000
  N   N14       1.0  0.19721  0.21614  0.85117  1.0000
  C   C203      1.0  0.19814  0.20972  0.82561  1.0000
  C   C204      1.0  0.18357  0.22309  0.85470  1.0000
  C   C205      1.0  0.19518  0.20363  0.87773  1.0000
  C   C206      1.0  0.21200  0.22822  0.84656  1.0000
  C   C207      1.0  0.21015  0.20024  0.82087  1.0000
  Fe  Fe27      1.0  0.08932  0.12837  0.95144  1.0000
  C   C208      1.0  0.18142  0.18937  0.88440  1.0000
  H   H369      1.0  0.18960  0.11093  0.67176  1.0000
  H   H370      1.0  0.20110  0.21926  0.80585  1.0000
  H   H371      1.0  0.22470  0.99209  0.67624  1.0000
  H   H372      1.0  0.98665  0.26532  0.68476  1.0000
  C   C209      1.0  0.22054  0.05965  0.60009  1.0000
  H   H373      1.0  0.20579  0.19941  0.87728  1.0000
  H   H374      1.0  0.19348  0.20830  0.89663  1.0000
  C   C210      1.0  0.22902  0.00486  0.66771  1.0000
  H   H375      1.0  0.00269  0.12526  0.76606  1.0000
  C   C211      1.0  0.05459  0.21618  0.54646  1.0000
  H   H376      1.0  0.02403  0.22161  0.48446  1.0000
  C   C212      1.0  0.14248  0.03228  0.89003  1.0000
  N   N15       1.0  0.05298  0.22741  0.52088  1.0000
  C   C213      1.0  0.12856  0.04313  0.85783  1.0000
  C   C214      1.0  0.21916  0.05352  0.65008  1.0000
  C   C215      1.0  0.05280  0.25648  0.50465  1.0000
  H   H377      1.0  0.06357  0.24654  0.53608  1.0000
  H   H378      1.0  0.02808  0.22306  0.52999  1.0000
  H   H379      1.0  0.06474  0.17744  0.88077  1.0000
  H   H380      1.0  0.03042  0.27735  0.62417  1.0000
  H   H381      1.0  0.22249  0.23940  0.59299  1.0000
  H   H382      1.0  0.03527  0.15246  0.97417  1.0000
  H   H383      1.0  0.98873  0.24000  0.70797  1.0000
  H   H384      1.0  0.01246  0.14205  0.73760  1.0000
  H   H385      1.0  0.98962  0.03892  0.95724  1.0000
  H   H386      1.0  0.00178  0.14401  0.77019  1.0000
  H   H387      1.0  0.20767  0.18961  0.83836  1.0000
  Fe  Fe28      1.0  0.09798  0.99507  0.95852  1.0000
  S   S61       1.0  0.18895  0.99512  0.71721  1.0000
  H   H388      1.0  0.98954  0.28932  0.94251  1.0000
  C   C216      1.0  0.22917  0.00167  0.83470  1.0000
  C   C217      1.0  0.22520  0.18596  0.64724  1.0000
  C   C218      1.0  0.22445  0.06420  0.62321  1.0000
  H   H389      1.0  0.09122  0.07216  0.94582  1.0000
  S   S62       1.0  0.23020  0.11826  0.56136  1.0000
  H   H390      1.0  0.98684  0.24920  0.65201  1.0000
  H   H391      1.0  0.21020  0.23064  0.89021  1.0000
  C   C219      1.0  0.00175  0.13682  0.75499  1.0000
  H   H392      1.0  0.98948  0.26865  0.63241  1.0000
  H   H393      1.0  0.14253  0.30452  0.70089  1.0000
  C   C220      1.0  0.22884  0.99328  0.74566  1.0000
  S   S63       1.0  0.22836  0.20062  0.66515  1.0000
  H   H394      1.0  0.02370  0.08964  0.97778  1.0000
  H   H395      1.0  0.98272  0.25727  0.91625  1.0000
  Fe  Fe29      1.0  0.16799  0.38825  0.27991  1.0000
  S   S64       1.0  0.17688  0.39922  0.23317  1.0000
  S   S65       1.0  0.15590  0.36232  0.29879  1.0000
  Fe  Fe30      1.0  0.18525  0.41776  0.29438  1.0000
  S   S66       1.0  0.19532  0.43039  0.24840  1.0000
  S   S67       1.0  0.19064  0.42615  0.33239  1.0000
  Fe  Fe31      1.0  0.17165  0.42074  0.24340  1.0000
  S   S68       1.0  0.16230  0.43699  0.21453  1.0000
  Fe  Fe32      1.0  0.19958  0.40778  0.24225  1.0000
  C   C221      1.0  0.22586  0.36679  0.18374  1.0000
  S   S69       1.0  0.16108  0.40936  0.28997  1.0000
  S   S70       1.0  0.19117  0.39567  0.28851  1.0000
  H   H396      1.0  0.18705  0.35538  0.29074  1.0000
  H   H397      1.0  0.17417  0.48211  0.41175  1.0000
  S   S71       1.0  0.20724  0.51926  0.44831  1.0000
  H   H398      1.0  0.10005  0.53027  0.47866  1.0000
  H   H399      1.0  0.02956  0.51965  0.18470  1.0000
  S   S72       1.0  0.22211  0.48505  0.42667  1.0000
  H   H400      1.0  0.00752  0.46212  0.23450  1.0000
  Fe  Fe33      1.0  0.02933  0.52351  0.27371  1.0000
  S   S73       1.0  0.04583  0.52399  0.23342  1.0000
  S   S74       1.0  0.00377  0.51898  0.27250  1.0000
  Fe  Fe34      1.0  0.05652  0.53243  0.30167  1.0000
  S   S75       1.0  0.07411  0.53259  0.26298  1.0000
  S   S76       1.0  0.06574  0.53542  0.34045  1.0000
  Fe  Fe35      1.0  0.06044  0.54555  0.23881  1.0000
  S   S77       1.0  0.07343  0.56559  0.20056  1.0000
  Fe  Fe36      1.0  0.05773  0.51110  0.26161  1.0000
  S   S78       1.0  0.06414  0.48904  0.25591  1.0000
  S   S79       1.0  0.04332  0.54636  0.27730  1.0000
  S   S80       1.0  0.04075  0.50964  0.30206  1.0000
  Fe  Fe37      1.0  0.15344  0.61081  0.41766  1.0000
  S   S81       1.0  0.15891  0.59014  0.44346  1.0000
  S   S82       1.0  0.16085  0.63564  0.42350  1.0000
  Fe  Fe38      1.0  0.13166  0.58919  0.39226  1.0000
  S   S83       1.0  0.13625  0.56760  0.41630  1.0000
  S   S84       1.0  0.11501  0.58924  0.36326  1.0000
  Fe  Fe39      1.0  0.13361  0.57837  0.45303  1.0000
  H   H401      1.0  0.20325  0.32375  0.23490  1.0000
  Fe  Fe40      1.0  0.16106  0.58126  0.40450  1.0000
  S   S85       1.0  0.18128  0.57254  0.38482  1.0000
  S   S86       1.0  0.12775  0.59933  0.42989  1.0000
  S   S87       1.0  0.15680  0.60254  0.37779  1.0000
  Fe  Fe41      1.0  0.09409  0.42873  0.14578  1.0000
  S   S88       1.0  0.07105  0.43410  0.15563  1.0000
  S   S89       1.0  0.10036  0.41377  0.18171  1.0000
  Fe  Fe42      1.0  0.10031  0.44386  0.08303  1.0000
  S   S90       1.0  0.07768  0.45023  0.08755  1.0000
  S   S91       1.0  0.11772  0.44807  0.04138  1.0000
  Fe  Fe43      1.0  0.08298  0.45739  0.12561  1.0000
  S   S92       1.0  0.07935  0.48034  0.13187  1.0000
  Fe  Fe44      1.0  0.06758  0.42634  0.11710  1.0000
  S   S93       1.0  0.04399  0.41051  0.12324  1.0000
  S   S94       1.0  0.10648  0.45279  0.11887  1.0000
  S   S95       1.0  0.08978  0.41927  0.10939  1.0000
  H   H402      1.0  0.04661  0.52181  0.45639  1.0000
  S   S96       1.0  0.07743  0.63532  0.20379  1.0000
  S   S97       1.0  0.02912  0.36974  0.03883  1.0000
  H   H403      1.0  0.03853  0.61091  0.21527  1.0000
  C   C222      1.0  0.12566  0.46745  0.02170  1.0000
  C   C223      1.0  0.12045  0.47953  0.03030  1.0000
  C   C224      1.0  0.12653  0.49485  0.01332  1.0000
  H   H404      1.0  0.02758  0.61073  0.09781  1.0000
  H   H405      1.0  0.15912  0.51684  0.39942  1.0000
  H   H406      1.0  0.22253  0.51675  0.34679  1.0000
  H   H407      1.0  0.11162  0.47705  0.04986  1.0000
  H   H408      1.0  0.12238  0.50415  0.01995  1.0000
  H   H409      1.0  0.01775  0.50613  0.21657  1.0000
  H   H410      1.0  0.00311  0.45137  0.19318  1.0000
  C   C225      1.0  0.03290  0.38116  0.06235  1.0000
  C   C226      1.0  0.02146  0.38104  0.08573  1.0000
  C   C227      1.0  0.02497  0.39031  0.10392  1.0000
  C   C228      1.0  0.03992  0.39972  0.09896  1.0000
  C   C229      1.0  0.05137  0.39982  0.07562  1.0000
  C   C230      1.0  0.04784  0.39059  0.05737  1.0000
  H   H411      1.0  0.00993  0.37383  0.08975  1.0000
  H   H412      1.0  0.01608  0.39014  0.12200  1.0000
  H   H413      1.0  0.06292  0.40697  0.07164  1.0000
  H   H414      1.0  0.05674  0.39074  0.03932  1.0000
  H   H415      1.0  0.19406  0.63701  0.40470  1.0000
  C   C231      1.0  0.08015  0.55053  0.34478  1.0000
  C   C232      1.0  0.09033  0.54666  0.36111  1.0000
  C   C233      1.0  0.10117  0.55825  0.36676  1.0000
  C   C234      1.0  0.10187  0.57397  0.35639  1.0000
  C   C235      1.0  0.09168  0.57783  0.34008  1.0000
  C   C236      1.0  0.08092  0.56625  0.33432  1.0000
  H   H416      1.0  0.08982  0.53456  0.36949  1.0000
  H   H417      1.0  0.10893  0.55502  0.37922  1.0000
  H   H418      1.0  0.09197  0.58990  0.33212  1.0000
  H   H419      1.0  0.07296  0.56946  0.32232  1.0000
  C   C237      1.0  0.06800  0.48673  0.22137  1.0000
  C   C238      1.0  0.07091  0.49931  0.19782  1.0000
  C   C239      1.0  0.07436  0.49722  0.17041  1.0000
  C   C240      1.0  0.07496  0.48257  0.16644  1.0000
  C   C241      1.0  0.07184  0.46994  0.19000  1.0000
  C   C242      1.0  0.06843  0.47204  0.21742  1.0000
  H   H420      1.0  0.07071  0.51071  0.20069  1.0000
  H   H421      1.0  0.07673  0.50701  0.15221  1.0000
  H   H422      1.0  0.07196  0.45857  0.18708  1.0000
  H   H423      1.0  0.06600  0.46224  0.23562  1.0000
  C   C243      1.0  0.07414  0.58487  0.20179  1.0000
  C   C244      1.0  0.06594  0.58834  0.22543  1.0000
  C   C245      1.0  0.06706  0.60387  0.22586  1.0000
  C   C246      1.0  0.07628  0.61600  0.20260  1.0000
  C   C247      1.0  0.08450  0.61253  0.17899  1.0000
  C   C248      1.0  0.08342  0.59700  0.17860  1.0000
  H   H424      1.0  0.05879  0.57908  0.24343  1.0000
  H   H425      1.0  0.06072  0.60651  0.24424  1.0000
  H   H426      1.0  0.09180  0.62180  0.16111  1.0000
  H   H427      1.0  0.08988  0.59439  0.16031  1.0000
  C   C249      1.0  0.99108  0.50249  0.26819  1.0000
  C   C250      1.0  0.99120  0.48727  0.28069  1.0000
  C   C251      1.0  0.19012  0.49399  0.34459  1.0000
  H   H428      1.0  0.99960  0.48532  0.29250  1.0000
  H   H429      1.0  0.17651  0.51553  0.40939  1.0000
  C   C252      1.0  0.20046  0.53435  0.43042  1.0000
  C   C253      1.0  0.18767  0.53831  0.44509  1.0000
  C   C254      1.0  0.18172  0.55006  0.43152  1.0000
  C   C255      1.0  0.18858  0.55800  0.40312  1.0000
  C   C256      1.0  0.20148  0.55413  0.38851  1.0000
  C   C257      1.0  0.20739  0.54234  0.40207  1.0000
  C   C258      1.0  0.99703  0.46056  0.18880  1.0000
  H   H430      1.0  0.17178  0.55291  0.44298  1.0000
  H   H431      1.0  0.20684  0.56024  0.36653  1.0000
  H   H432      1.0  0.21720  0.53937  0.39052  1.0000
  C   C259      1.0  0.22101  0.47105  0.34135  1.0000
  C   C260      1.0  0.21865  0.47006  0.31476  1.0000
  C   C261      1.0  0.20936  0.45650  0.31156  1.0000
  C   C262      1.0  0.20229  0.44372  0.33499  1.0000
  C   C263      1.0  0.20452  0.44481  0.36161  1.0000
  C   C264      1.0  0.21381  0.45835  0.36481  1.0000
  C   C265      1.0  0.02622  0.61920  0.11043  1.0000
  H   H433      1.0  0.20769  0.45593  0.29097  1.0000
  H   H434      1.0  0.19910  0.43503  0.37992  1.0000
  H   H435      1.0  0.21896  0.37042  0.22450  1.0000
  C   C266      1.0  0.12821  0.34313  0.25381  1.0000
  C   C267      1.0  0.14617  0.42921  0.20322  1.0000
  C   C268      1.0  0.13580  0.41506  0.21872  1.0000
  C   C269      1.0  0.12200  0.41014  0.21126  1.0000
  C   C270      1.0  0.11858  0.41928  0.18817  1.0000
  C   C271      1.0  0.12931  0.43305  0.17187  1.0000
  C   C272      1.0  0.14303  0.43803  0.17947  1.0000
  H   H436      1.0  0.13815  0.40818  0.23705  1.0000
  H   H437      1.0  0.11377  0.39942  0.22388  1.0000
  H   H438      1.0  0.12689  0.44005  0.15382  1.0000
  H   H439      1.0  0.15111  0.44890  0.16724  1.0000
  C   C273      1.0  0.14555  0.34926  0.28316  1.0000
  C   C274      1.0  0.13740  0.35413  0.26363  1.0000
  H   H440      1.0  0.13785  0.36631  0.25663  1.0000
  N   N16       1.0  0.06519  0.37442  0.16834  1.0000
  C   C275      1.0  0.06370  0.37345  0.13915  1.0000
  C   C276      1.0  0.08215  0.37965  0.16642  1.0000
  C   C277      1.0  0.05749  0.38676  0.17554  1.0000
  C   C278      1.0  0.05747  0.35881  0.18915  1.0000
  Fe  Fe45      1.0  0.08954  0.65413  0.16337  1.0000
  C   C279      1.0  0.09207  0.36876  0.15777  1.0000
  C   C280      1.0  0.05713  0.38975  0.20478  1.0000
  C   C281      1.0  0.06243  0.35536  0.21718  1.0000
  H   H441      1.0  0.06837  0.38509  0.12363  1.0000
  H   H442      1.0  0.07056  0.36585  0.13098  1.0000
  H   H443      1.0  0.08428  0.38161  0.18651  1.0000
  H   H444      1.0  0.08731  0.39120  0.15094  1.0000
  H   H445      1.0  0.06311  0.39807  0.15948  1.0000
  H   H446      1.0  0.04526  0.38404  0.17479  1.0000
  H   H447      1.0  0.04472  0.35709  0.19470  1.0000
  H   H448      1.0  0.05968  0.34943  0.17900  1.0000
  H   H449      1.0  0.05208  0.34900  0.23482  1.0000
  H   H450      1.0  0.21950  0.51641  0.99643  1.0000
  C   C282      1.0  0.19205  0.34867  0.25135  1.0000
  H   H451      1.0  0.08673  0.35643  0.16920  1.0000
  H   H452      1.0  0.09468  0.37008  0.13459  1.0000
  H   H453      1.0  0.10334  0.37210  0.16277  1.0000
  H   H454      1.0  0.16983  0.36239  0.23463  1.0000
  H   H455      1.0  0.05200  0.39970  0.20616  1.0000
  H   H456      1.0  0.06874  0.39309  0.20823  1.0000
  C   C283      1.0  0.08005  0.53913  0.47522  1.0000
  H   H457      1.0  0.06795  0.36560  0.22331  1.0000
  H   H458      1.0  0.09053  0.47197  0.00813  1.0000
  H   H459      1.0  0.15124  0.32947  0.30665  1.0000
  C   C284      1.0  0.04727  0.36680  0.13671  1.0000
  C   C285      1.0  0.09610  0.53734  0.46194  1.0000
  Fe  Fe46      1.0  0.99337  0.33216  0.00883  1.0000
  H   H460      1.0  0.20205  0.49310  0.33658  1.0000
  C   C286      1.0  0.19297  0.64659  0.41387  1.0000
  H   H461      1.0  0.13352  0.32798  0.39015  1.0000
  H   H462      1.0  0.20549  0.36593  0.26820  1.0000
  H   H463      1.0  0.19781  0.37102  0.18307  1.0000
  H   H464      1.0  0.10479  0.54868  0.45401  1.0000
  H   H465      1.0  0.16518  0.49578  0.38299  1.0000
  H   H466      1.0  0.07342  0.56970  0.40237  1.0000
  C   C287      1.0  0.13778  0.49812  0.98773  1.0000
  H   H467      1.0  0.19105  0.47772  0.41915  1.0000
  C   C288      1.0  0.05823  0.58980  0.13568  1.0000
  H   H468      1.0  0.05655  0.58291  0.15773  1.0000
  H   H469      1.0  0.18614  0.49833  0.32550  1.0000
  H   H470      1.0  0.04244  0.35452  0.14911  1.0000
  C   C289      1.0  0.22847  0.42568  0.27952  1.0000
  S   S98       1.0  0.22080  0.40277  0.21771  1.0000
  H   H471      1.0  0.21550  0.45889  0.38540  1.0000
  H   H472      1.0  0.04962  0.37970  0.22206  1.0000
  C   C290      1.0  0.05846  0.52191  0.44562  1.0000
  H   H473      1.0  0.18310  0.33499  0.21496  1.0000
  H   H474      1.0  0.18202  0.47601  0.99444  1.0000
  H   H475      1.0  0.04781  0.36704  0.11421  1.0000
  H   H476      1.0  0.09339  0.56165  0.42475  1.0000
  H   H477      1.0  0.16829  0.47597  0.36680  1.0000
  H   H478      1.0  0.00492  0.48089  0.23246  1.0000
  C   C291      1.0  0.02144  0.50795  0.19331  1.0000
  H   H479      1.0  0.99966  0.48442  0.18727  1.0000
  H   H480      1.0  0.02596  0.61741  0.19553  1.0000
  H   H481      1.0  0.19731  0.34532  0.18356  1.0000
  H   H482      1.0  0.01144  0.50837  0.18422  1.0000
  C   C292      1.0  0.19342  0.36096  0.26825  1.0000
  H   H483      1.0  0.06611  0.57689  0.43223  1.0000
  H   H484      1.0  0.22306  0.53409  0.32185  1.0000
  H   H485      1.0  0.09601  0.53129  0.44495  1.0000
  H   H486      1.0  0.06899  0.59919  0.12937  1.0000
  H   H487      1.0  0.04457  0.59861  0.10938  1.0000
  H   H488      1.0  0.05984  0.58180  0.12202  1.0000
  C   C293      1.0  0.07629  0.57412  0.42015  1.0000
  H   H489      1.0  0.04191  0.47248  0.19506  1.0000
  H   H490      1.0  0.21193  0.62679  0.99729  1.0000
  C   C294      1.0  0.17161  0.51807  0.39095  1.0000
  Fe  Fe47      1.0  0.00614  0.35288  0.04401  1.0000
  H   H491      1.0  0.20676  0.49578  0.38060  1.0000
  H   H492      1.0  0.04470  0.46216  0.15433  1.0000
  H   H493      1.0  0.18814  0.37038  0.26063  1.0000
  S   S99       1.0  0.00721  0.32885  0.04086  1.0000
  H   H494      1.0  0.01911  0.47330  0.26763  1.0000
  H   H495      1.0  0.21694  0.64570  0.00229  1.0000
  C   C295      1.0  0.19646  0.50007  0.38768  1.0000
  H   H496      1.0  0.20023  0.52947  0.35772  1.0000
  N   N17       1.0  0.11271  0.45908  0.22665  1.0000
  C   C296      1.0  0.10990  0.44220  0.24191  1.0000
  C   C297      1.0  0.12985  0.46615  0.21906  1.0000
  C   C298      1.0  0.10719  0.45978  0.20006  1.0000
  C   C299      1.0  0.10371  0.46652  0.24628  1.0000
  C   C300      1.0  0.09346  0.43191  0.24715  1.0000
  C   C301      1.0  0.13727  0.46547  0.24416  1.0000
  C   C302      1.0  0.11384  0.47484  0.17589  1.0000
  C   C303      1.0  0.10637  0.48429  0.23714  1.0000
  H   H497      1.0  0.11791  0.43673  0.23003  1.0000
  H   H498      1.0  0.11236  0.44091  0.26305  1.0000
  H   H499      1.0  0.13306  0.47846  0.20678  1.0000
  H   H500      1.0  0.13596  0.46030  0.20461  1.0000
  H   H501      1.0  0.10989  0.45040  0.19037  1.0000
  H   H502      1.0  0.09446  0.45751  0.20519  1.0000
  H   H503      1.0  0.09113  0.46178  0.24963  1.0000
  H   H504      1.0  0.10531  0.46333  0.26805  1.0000
  H   H505      1.0  0.09293  0.41996  0.25896  1.0000
  H   H506      1.0  0.08462  0.43600  0.26016  1.0000
  H   H507      1.0  0.09046  0.43092  0.22710  1.0000
  H   H508      1.0  0.13730  0.45342  0.25432  1.0000
  H   H509      1.0  0.14957  0.47207  0.23606  1.0000
  H   H510      1.0  0.13168  0.47079  0.26007  1.0000
  H   H511      1.0  0.12604  0.47594  0.16531  1.0000
  H   H512      1.0  0.11283  0.48540  0.18277  1.0000
  H   H513      1.0  0.10732  0.47436  0.15952  1.0000
  H   H514      1.0  0.09878  0.48763  0.22357  1.0000
  H   H515      1.0  0.11844  0.49067  0.22645  1.0000
  H   H516      1.0  0.10351  0.48853  0.25633  1.0000
  H   H517      1.0  0.18169  0.47046  0.34221  1.0000
  H   H518      1.0  0.20091  0.51019  0.39553  1.0000
  H   H519      1.0  0.04935  0.55137  0.45845  1.0000
  H   H520      1.0  0.01451  0.62100  0.11133  1.0000
  H   H521      1.0  0.18553  0.47128  0.37519  1.0000
  H   H522      1.0  0.11755  0.35684  0.35105  1.0000
  N   N18       1.0  0.11389  0.58340  0.24052  1.0000
  C   C304      1.0  0.11499  0.58865  0.20925  1.0000
  C   C305      1.0  0.09951  0.58672  0.25607  1.0000
  C   C306      1.0  0.11252  0.56613  0.24784  1.0000
  C   C307      1.0  0.12830  0.59213  0.24597  1.0000
  C   C308      1.0  0.12807  0.58493  0.18908  1.0000
  C   C309      1.0  0.09960  0.60401  0.25163  1.0000
  C   C310      1.0  0.10539  0.55693  0.27907  1.0000
  C   C311      1.0  0.12885  0.59027  0.27712  1.0000
  H   H523      1.0  0.10406  0.58331  0.20467  1.0000
  H   H524      1.0  0.11661  0.60141  0.20215  1.0000
  H   H525      1.0  0.09697  0.58192  0.27920  1.0000
  H   H526      1.0  0.08926  0.58071  0.25025  1.0000
  H   H527      1.0  0.10521  0.56038  0.23578  1.0000
  H   H528      1.0  0.12400  0.56376  0.24140  1.0000
  H   H529      1.0  0.13850  0.58855  0.23580  1.0000
  H   H530      1.0  0.13107  0.60477  0.23543  1.0000
  H   H531      1.0  0.13963  0.59095  0.19012  1.0000
  H   H532      1.0  0.12696  0.57228  0.19284  1.0000
  H   H533      1.0  0.12736  0.58920  0.16697  1.0000
  H   H534      1.0  0.10902  0.61050  0.25865  1.0000
  H   H535      1.0  0.10022  0.60974  0.22943  1.0000
  H   H536      1.0  0.08859  0.60486  0.26470  1.0000
  H   H537      1.0  0.10673  0.54491  0.28181  1.0000
  H   H538      1.0  0.09281  0.55587  0.28511  1.0000
  H   H539      1.0  0.11080  0.56188  0.29406  1.0000
  H   H540      1.0  0.13360  0.58034  0.28467  1.0000
  H   H541      1.0  0.11766  0.58899  0.29187  1.0000
  H   H542      1.0  0.13640  0.60098  0.27896  1.0000
  N   N19       1.0  0.18561  0.50456  0.00719  1.0000
  C   C312      1.0  0.12701  0.32716  0.26340  1.0000
  C   C313      1.0  0.19803  0.49788  0.01679  1.0000
  C   C314      1.0  0.17068  0.49836  0.03011  1.0000
  H   H543      1.0  0.22801  0.41723  0.29938  1.0000
  C   C315      1.0  0.13705  0.47076  0.99631  1.0000
  H   H544      1.0  0.04644  0.62699  0.18489  1.0000
  C   C316      1.0  0.16420  0.48063  0.04036  1.0000
  H   H545      1.0  0.17225  0.37387  0.19979  1.0000
  H   H546      1.0  0.19438  0.52459  0.02177  1.0000
  H   H547      1.0  0.03436  0.63067  0.09945  1.0000
  H   H548      1.0  0.19536  0.48513  0.02059  1.0000
  H   H549      1.0  0.19888  0.49991  0.03769  1.0000
  H   H550      1.0  0.17189  0.50250  0.04918  1.0000
  H   H551      1.0  0.16127  0.50283  0.02301  1.0000
  H   H552      1.0  0.19722  0.33959  0.26121  1.0000
  H   H553      1.0  0.06331  0.51428  0.45976  1.0000
  H   H554      1.0  0.05750  0.51676  0.42758  1.0000
  N   N20       1.0  0.19930  0.35448  0.21989  1.0000
  H   H555      1.0  0.22106  0.43346  0.28470  1.0000
  H   H556      1.0  0.05606  0.62218  0.08717  1.0000
  S   S100      1.0  0.99379  0.35669  0.00964  1.0000
  H   H557      1.0  0.21773  0.51603  0.31364  1.0000
  H   H558      1.0  0.17221  0.47456  0.04899  1.0000
  H   H559      1.0  0.16046  0.47582  0.02363  1.0000
  H   H560      1.0  0.15361  0.47793  0.05789  1.0000
  C   C317      1.0  0.11376  0.33199  0.35625  1.0000
  H   H561      1.0  0.08726  0.56913  0.45390  1.0000
  H   H562      1.0  0.03368  0.58599  0.14209  1.0000
  H   H563      1.0  0.12174  0.34700  0.23911  1.0000
  H   H564      1.0  0.09814  0.65451  0.27108  1.0000
  H   H565      1.0  0.07973  0.53783  0.42024  1.0000
  H   H566      1.0  0.15167  0.61272  0.47515  1.0000
  C   C318      1.0  0.05589  0.62341  0.13194  1.0000
  C   C319      1.0  0.19973  0.52084  0.34501  1.0000
  H   H567      1.0  0.17666  0.53038  0.37887  1.0000
  C   C320      1.0  0.03772  0.61567  0.19342  1.0000
  H   H568      1.0  0.04249  0.48130  0.14338  1.0000
  H   H569      1.0  0.16963  0.51123  0.35288  1.0000
  C   C321      1.0  0.18561  0.48742  0.41393  1.0000
  C   C322      1.0  0.19556  0.34116  0.20685  1.0000
  H   H570      1.0  0.08524  0.58526  0.41040  1.0000
  H   H571      1.0  0.22413  0.47981  0.29645  1.0000
  H   H572      1.0  0.06545  0.64035  0.09078  1.0000
  N   N21       1.0  0.18985  0.50512  0.36302  1.0000
  H   H573      1.0  0.19464  0.52542  0.32758  1.0000
  H   H574      1.0  0.22638  0.43627  0.20689  1.0000
  H   H575      1.0  0.01743  0.60335  0.15201  1.0000
  C   C323      1.0  0.18072  0.47708  0.35850  1.0000
  C   C324      1.0  0.17828  0.64831  0.42496  1.0000
  C   C325      1.0  0.17540  0.36388  0.21207  1.0000
  H   H576      1.0  0.03914  0.37370  0.14281  1.0000
  S   S101      1.0  0.09214  0.65172  0.11905  1.0000
  C   C326      1.0  0.06882  0.53851  0.43385  1.0000
  H   H577      1.0  0.02664  0.46450  0.14872  1.0000
  H   H578      1.0  0.22701  0.37945  0.17619  1.0000
  H   H579      1.0  0.07454  0.62491  0.09518  1.0000
  H   H580      1.0  0.20069  0.52740  0.98457  1.0000
  H   H581      1.0  0.08014  0.47605  0.98228  1.0000
  C   C327      1.0  0.19308  0.36747  0.20648  1.0000
  H   H582      1.0  0.04053  0.49748  0.19238  1.0000
  C   C328      1.0  0.04404  0.59595  0.13222  1.0000
  C   C329      1.0  0.22119  0.63777  0.99035  1.0000
  C   C330      1.0  0.04069  0.60400  0.17590  1.0000
  H   H583      1.0  0.05134  0.60096  0.17986  1.0000
  N   N22       1.0  0.07215  0.54730  0.45520  1.0000
  H   H584      1.0  0.09606  0.32841  0.41979  1.0000
  H   H585      1.0  0.06018  0.56102  0.47819  1.0000
  C   C331      1.0  0.08297  0.56293  0.43906  1.0000
  H   H586      1.0  0.02550  0.62291  0.15092  1.0000
  H   H587      1.0  0.98724  0.45866  0.20754  1.0000
  H   H588      1.0  0.11413  0.32472  0.42480  1.0000
  H   H589      1.0  0.16940  0.52898  0.01851  1.0000
  C   C332      1.0  0.05758  0.54997  0.47181  1.0000
  H   H590      1.0  0.18223  0.53217  0.46704  1.0000
  H   H591      1.0  0.19699  0.37811  0.21325  1.0000
  H   H592      1.0  0.18401  0.49219  0.43273  1.0000
  H   H593      1.0  0.17956  0.34289  0.25590  1.0000
  H   H594      1.0  0.02613  0.45673  0.20052  1.0000
  H   H595      1.0  0.99238  0.45885  0.17053  1.0000
  C   C333      1.0  0.02541  0.47714  0.24488  1.0000
  C   C334      1.0  0.17370  0.50694  0.37189  1.0000
  H   H596      1.0  0.11941  0.33396  0.33339  1.0000
  C   C335      1.0  0.02982  0.49586  0.18495  1.0000
  C   C336      1.0  0.03120  0.46906  0.18833  1.0000
  C   C337      1.0  0.00755  0.47717  0.18125  1.0000
  Fe  Fe48      1.0  0.22695  0.50981  0.42937  1.0000
  C   C338      1.0  0.21667  0.52173  0.33122  1.0000
  H   H597      1.0  0.01171  0.48168  0.15779  1.0000
  N   N23       1.0  0.02058  0.47915  0.19533  1.0000
  C   C339      1.0  0.01381  0.47462  0.22687  1.0000
  C   C340      1.0  0.02748  0.61349  0.14093  1.0000
  H   H598      1.0  0.21692  0.33321  0.20083  1.0000
  C   C341      1.0  0.09193  0.47713  0.98523  1.0000
  H   H599      1.0  0.06311  0.54471  0.41914  1.0000
  C   C342      1.0  0.14480  0.33335  0.29192  1.0000
  C   C343      1.0  0.21643  0.36054  0.21501  1.0000
  C   C344      1.0  0.12078  0.34699  0.36363  1.0000
  C   C345      1.0  0.06312  0.62759  0.09958  1.0000
  H   H600      1.0  0.03390  0.49939  0.16144  1.0000
  C   C346      1.0  0.03639  0.46945  0.15679  1.0000
  H   H601      1.0  0.22157  0.35188  0.22641  1.0000
  H   H602      1.0  0.11665  0.34657  0.38618  1.0000
  C   C347      1.0  0.17832  0.53091  0.99853  1.0000
  H   H603      1.0  0.05281  0.63388  0.13695  1.0000
  H   H604      1.0  0.13047  0.62491  0.47112  1.0000
  H   H605      1.0  0.13357  0.34983  0.35743  1.0000
  H   H606      1.0  0.03127  0.59316  0.18572  1.0000
  H   H607      1.0  0.03150  0.48952  0.24053  1.0000
  H   H608      1.0  0.22446  0.55636  0.45035  1.0000
  H   H609      1.0  0.06539  0.62185  0.14215  1.0000
  H   H610      1.0  0.07013  0.34740  0.21659  1.0000
  N   N24       1.0  0.04226  0.60945  0.14447  1.0000
  H   H611      1.0  0.03489  0.35890  0.98733  1.0000
  C   C348      1.0  0.19055  0.52191  0.00318  1.0000
  H   H612      1.0  0.17271  0.52781  0.98224  1.0000
  H   H613      1.0  0.10141  0.33158  0.35740  1.0000
  H   H614      1.0  0.03394  0.47017  0.24202  1.0000
  H   H615      1.0  0.17051  0.35355  0.20536  1.0000
  S   S102      1.0  0.99776  0.64665  0.12681  1.0000
  S   S103      1.0  0.98428  0.34462  0.07921  1.0000
  H   H616      1.0  0.12097  0.65028  0.28642  1.0000
  C   C349      1.0  0.02716  0.65411  0.13255  1.0000
  H   H617      1.0  0.02212  0.64817  0.15470  1.0000
  H   H618      1.0  0.18394  0.54355  0.99114  1.0000
  H   H619      1.0  0.23153  0.63510  0.99633  1.0000
  C   C350      1.0  0.20452  0.32867  0.21206  1.0000
  H   H620      1.0  0.22202  0.49722  0.00333  1.0000
  C   C351      1.0  0.21430  0.50434  0.99634  1.0000
  H   H621      1.0  0.14017  0.32329  0.35836  1.0000
  H   H622      1.0  0.13960  0.65396  0.22414  1.0000
  H   H623      1.0  0.22336  0.41913  0.26589  1.0000
  H   H624      1.0  0.14110  0.46143  0.98962  1.0000
  H   H625      1.0  0.22085  0.36092  0.16929  1.0000
  H   H626      1.0  0.11940  0.64744  0.24197  1.0000
  H   H627      1.0  0.10688  0.65192  0.31514  1.0000
  H   H628      1.0  0.09813  0.48951  0.98056  1.0000
  C   C352      1.0  0.13564  0.32238  0.28204  1.0000
  C   C353      1.0  0.01764  0.65536  0.11393  1.0000
  C   C354      1.0  0.18346  0.50159  0.97950  1.0000
  Fe  Fe49      1.0  0.18110  0.36931  0.62432  1.0000
  S   S104      1.0  0.16531  0.38508  0.62874  1.0000
  S   S105      1.0  0.17680  0.34725  0.60880  1.0000
  Fe  Fe50      1.0  0.20645  0.39054  0.64190  1.0000
  S   S106      1.0  0.19242  0.40769  0.64748  1.0000
  H   H629      1.0  0.10866  0.56156  0.70694  1.0000
  Fe  Fe51      1.0  0.17255  0.38683  0.66853  1.0000
  S   S107      1.0  0.15635  0.38515  0.71034  1.0000
  Fe  Fe52      1.0  0.18660  0.40461  0.60716  1.0000
  S   S108      1.0  0.18548  0.42523  0.57401  1.0000
  S   S109      1.0  0.18697  0.36961  0.66594  1.0000
  S   S110      1.0  0.20200  0.38889  0.59977  1.0000
  H   H630      1.0  0.09788  0.52943  0.65280  1.0000
  Fe  Fe53      1.0  0.00918  0.52305  0.64184  1.0000
  S   S111      1.0  0.02828  0.51881  0.61035  1.0000
  H   H631      1.0  0.12681  0.58591  0.57480  1.0000
  Fe  Fe54      1.0  0.03281  0.54475  0.66285  1.0000
  S   S112      1.0  0.05324  0.54174  0.63321  1.0000
  S   S113      1.0  0.03482  0.55815  0.69642  1.0000
  Fe  Fe55      1.0  0.03963  0.54432  0.60081  1.0000
  S   S114      1.0  0.05110  0.56003  0.55638  1.0000
  Fe  Fe56      1.0  0.04052  0.51657  0.64516  1.0000
  S   S115      1.0  0.05405  0.49843  0.65059  1.0000
  S   S116      1.0  0.01965  0.54902  0.62974  1.0000
  S   S117      1.0  0.02097  0.51916  0.67740  1.0000
  Fe  Fe57      1.0  0.10164  0.43614  0.75350  1.0000
  S   S118      1.0  0.09823  0.42048  0.79666  1.0000
  S   S119      1.0  0.11823  0.43600  0.71337  1.0000
  Fe  Fe58      1.0  0.07940  0.45414  0.77539  1.0000
  S   S120      1.0  0.07501  0.44015  0.82026  1.0000
  S   S121      1.0  0.06553  0.47192  0.76992  1.0000
  Fe  Fe59      1.0  0.10054  0.44260  0.81064  1.0000
  S   S122      1.0  0.11566  0.44619  0.84094  1.0000
  Fe  Fe60      1.0  0.07306  0.41962  0.80186  1.0000
  S   S123      1.0  0.05210  0.39951  0.82517  1.0000
  S   S124      1.0  0.10510  0.45831  0.76717  1.0000
  S   S125      1.0  0.07630  0.43355  0.75744  1.0000
  Fe  Fe61      1.0  0.18501  0.55004  0.87926  1.0000
  S   S126      1.0  0.19573  0.53453  0.85608  1.0000
  S   S127      1.0  0.19109  0.57617  0.86034  1.0000
  Fe  Fe62      1.0  0.16399  0.52245  0.92657  1.0000
  S   S128      1.0  0.17310  0.50490  0.90751  1.0000
  Fe  Fe63      1.0  0.19640  0.52155  0.89923  1.0000
  S   S129      1.0  0.21543  0.51132  0.91186  1.0000
  Fe  Fe64      1.0  0.17158  0.51921  0.86622  1.0000
  S   S130      1.0  0.16081  0.51100  0.83290  1.0000
  S   S131      1.0  0.18727  0.53803  0.92164  1.0000
  S   S132      1.0  0.16091  0.53581  0.88596  1.0000
  H   H632      1.0  0.14495  0.35015  0.61876  1.0000
  S   S133      1.0  0.09261  0.61107  0.69537  1.0000
  H   H633      1.0  0.13523  0.41597  0.82885  1.0000
  S   S134      1.0  0.19480  0.62714  0.93010  1.0000
  H   H634      1.0  0.04598  0.51963  0.73874  1.0000
  S   S135      1.0  0.01638  0.35584  0.76273  1.0000
  H   H635      1.0  0.01812  0.60894  0.68295  1.0000
  H   H636      1.0  0.08247  0.51190  0.69418  1.0000
  C   C355      1.0  0.19301  0.59021  0.87993  1.0000
  C   C356      1.0  0.19532  0.60592  0.86598  1.0000
  C   C357      1.0  0.19579  0.61733  0.88108  1.0000
  C   C358      1.0  0.19428  0.61318  0.91025  1.0000
  C   C359      1.0  0.19231  0.59753  0.92414  1.0000
  C   C360      1.0  0.19155  0.58606  0.90912  1.0000
  H   H637      1.0  0.19652  0.60924  0.84339  1.0000
  H   H638      1.0  0.19739  0.62934  0.87010  1.0000
  H   H639      1.0  0.19119  0.59423  0.94670  1.0000
  H   H640      1.0  0.18980  0.57403  0.92010  1.0000
  H   H641      1.0  0.17074  0.61910  0.51734  1.0000
  H   H642      1.0  0.03902  0.64770  0.85258  1.0000
  Fe  Fe65      1.0  0.99351  0.33803  0.78441  1.0000
  C   C361      1.0  0.14834  0.49282  0.83572  1.0000
  C   C362      1.0  0.13854  0.49205  0.81752  1.0000
  C   C363      1.0  0.12847  0.47789  0.81885  1.0000
  C   C364      1.0  0.12830  0.46425  0.83809  1.0000
  C   C365      1.0  0.13837  0.46493  0.85580  1.0000
  C   C366      1.0  0.14822  0.47916  0.85492  1.0000
  H   H643      1.0  0.13864  0.50253  0.80246  1.0000
  H   H644      1.0  0.12083  0.47756  0.80502  1.0000
  H   H645      1.0  0.13849  0.45438  0.87041  1.0000
  H   H646      1.0  0.15586  0.47953  0.86875  1.0000
  C   C367      1.0  0.04240  0.38739  0.80753  1.0000
  C   C368      1.0  0.04893  0.38740  0.77970  1.0000
  C   C369      1.0  0.04086  0.37762  0.76631  1.0000
  C   C370      1.0  0.02624  0.36768  0.78064  1.0000
  C   C371      1.0  0.01967  0.36771  0.80844  1.0000
  C   C372      1.0  0.02771  0.37756  0.82176  1.0000
  H   H647      1.0  0.06026  0.39484  0.76855  1.0000
  H   H648      1.0  0.04601  0.37766  0.74478  1.0000
  H   H649      1.0  0.00836  0.36023  0.81959  1.0000
  H   H650      1.0  0.02239  0.37769  0.84304  1.0000
  C   C373      1.0  0.07074  0.56157  0.54113  1.0000
  C   C374      1.0  0.07861  0.57305  0.51587  1.0000
  H   H651      1.0  0.15590  0.47381  0.78352  1.0000
  C   C375      1.0  0.10161  0.56346  0.51417  1.0000
  C   C376      1.0  0.09383  0.55218  0.53967  1.0000
  C   C377      1.0  0.07847  0.55122  0.55310  1.0000
  H   H652      1.0  0.17966  0.45479  0.77020  1.0000
  H   H653      1.0  0.19123  0.39930  0.50343  1.0000
  H   H654      1.0  0.09961  0.54394  0.54887  1.0000
  H   H655      1.0  0.07251  0.54226  0.57242  1.0000
  C   C378      1.0  0.05650  0.49041  0.68411  1.0000
  C   C379      1.0  0.06729  0.48155  0.68613  1.0000
  C   C380      1.0  0.06999  0.47556  0.71245  1.0000
  C   C381      1.0  0.06181  0.47835  0.73688  1.0000
  C   C382      1.0  0.05079  0.48693  0.73495  1.0000
  C   C383      1.0  0.04810  0.49290  0.70865  1.0000
  H   H656      1.0  0.07380  0.47956  0.66718  1.0000
  H   H657      1.0  0.07858  0.46905  0.71375  1.0000
  H   H658      1.0  0.04440  0.48905  0.75386  1.0000
  H   H659      1.0  0.03963  0.49955  0.70731  1.0000
  C   C384      1.0  0.05086  0.57307  0.69538  1.0000
  C   C385      1.0  0.05198  0.57739  0.72043  1.0000
  C   C386      1.0  0.06458  0.58910  0.72070  1.0000
  C   C387      1.0  0.07620  0.59668  0.69586  1.0000
  C   C388      1.0  0.07516  0.59224  0.67087  1.0000
  C   C389      1.0  0.06255  0.58055  0.67056  1.0000
  H   H660      1.0  0.04315  0.57148  0.73983  1.0000
  H   H661      1.0  0.06549  0.59204  0.74023  1.0000
  H   H662      1.0  0.08416  0.59792  0.65158  1.0000
  H   H663      1.0  0.06188  0.57734  0.65114  1.0000
  C   C390      1.0  0.99537  0.32604  0.91588  1.0000
  N   N25       1.0  0.13875  0.60707  0.51889  1.0000
  H   H664      1.0  0.99386  0.59999  0.76758  1.0000
  Fe  Fe66      1.0  0.09465  0.62548  0.72754  1.0000
  C   C391      1.0  0.22793  0.40934  0.68870  1.0000
  C   C392      1.0  0.21493  0.45842  0.50686  1.0000
  C   C393      1.0  0.20198  0.44993  0.52918  1.0000
  C   C394      1.0  0.20179  0.43541  0.54586  1.0000
  C   C395      1.0  0.21445  0.42922  0.53967  1.0000
  N   N26       1.0  0.10588  0.47478  0.93617  1.0000
  C   C396      1.0  0.12864  0.58068  0.55670  1.0000
  H   H665      1.0  0.19217  0.45474  0.53375  1.0000
  H   H666      1.0  0.21432  0.41795  0.55212  1.0000
  H   H667      1.0  0.09870  0.57523  0.71744  1.0000
  C   C397      1.0  0.15808  0.39549  0.55352  1.0000
  H   H668      1.0  0.07789  0.52808  0.65243  1.0000
  H   H669      1.0  0.05536  0.53684  0.74591  1.0000
  C   C398      1.0  0.14570  0.39924  0.71094  1.0000
  C   C399      1.0  0.14774  0.41123  0.68680  1.0000
  C   C400      1.0  0.13915  0.42235  0.68782  1.0000
  C   C401      1.0  0.12848  0.42157  0.71292  1.0000
  C   C402      1.0  0.12644  0.40958  0.73707  1.0000
  C   C403      1.0  0.13506  0.39848  0.73609  1.0000
  H   H670      1.0  0.15590  0.41191  0.66731  1.0000
  H   H671      1.0  0.14077  0.43158  0.66905  1.0000
  H   H672      1.0  0.11817  0.40879  0.75643  1.0000
  H   H673      1.0  0.13338  0.38918  0.75477  1.0000
  C   C404      1.0  0.16027  0.33815  0.59932  1.0000
  H   H674      1.0  0.09296  0.54235  0.62615  1.0000
  C   C405      1.0  0.13319  0.33396  0.59926  1.0000
  C   C406      1.0  0.14607  0.34165  0.60682  1.0000
  H   H675      1.0  0.14493  0.62726  0.84005  1.0000
  H   H676      1.0  0.13433  0.45508  0.92025  1.0000
  H   H677      1.0  0.99091  0.32563  0.87529  1.0000
  H   H678      1.0  0.15385  0.57076  0.94359  1.0000
  H   H679      1.0  0.08329  0.46321  0.93396  1.0000
  H   H680      1.0  0.15475  0.40560  0.54203  1.0000
  C   C407      1.0  0.02624  0.43997  0.78703  1.0000
  H   H681      1.0  0.02691  0.63077  0.69395  1.0000
  H   H682      1.0  0.10226  0.57460  0.68155  1.0000
  C   C408      1.0  0.14247  0.45099  0.76169  1.0000
  C   C409      1.0  0.16692  0.44342  0.71746  1.0000
  C   C410      1.0  0.14559  0.46563  0.73690  1.0000
  H   H683      1.0  0.13445  0.44141  0.75735  1.0000
  H   H684      1.0  0.17684  0.45370  0.71154  1.0000
  H   H685      1.0  0.15731  0.44628  0.70886  1.0000
  H   H686      1.0  0.17080  0.43485  0.70673  1.0000
  H   H687      1.0  0.13688  0.46369  0.72465  1.0000
  H   H688      1.0  0.15691  0.46884  0.72142  1.0000
  H   H689      1.0  0.14384  0.47572  0.74512  1.0000
  S   S136      1.0  0.09027  0.61638  0.77459  1.0000
  H   H690      1.0  0.06370  0.52028  0.74879  1.0000
  Fe  Fe67      1.0  0.07739  0.63469  0.77773  1.0000
  H   H691      1.0  0.18639  0.35910  0.54568  1.0000
  H   H692      1.0  0.11761  0.57707  0.55120  1.0000
  C   C411      1.0  0.16972  0.45920  0.76552  1.0000
  H   H693      1.0  0.17092  0.43115  0.75599  1.0000
  H   H694      1.0  0.13633  0.55616  0.94707  1.0000
  C   C412      1.0  0.13967  0.42053  0.80550  1.0000
  C   C413      1.0  0.04012  0.63621  0.80326  1.0000
  C   C414      1.0  0.15736  0.59070  0.84584  1.0000
  H   H695      1.0  0.03338  0.44805  0.79595  1.0000
  C   C415      1.0  0.02479  0.62928  0.81867  1.0000
  H   H696      1.0  0.13571  0.45352  0.78060  1.0000
  N   N27       1.0  0.15631  0.44583  0.76822  1.0000
  C   C416      1.0  0.14812  0.56225  0.93369  1.0000
  H   H697      1.0  0.17620  0.48049  0.77840  1.0000
  H   H698      1.0  0.01920  0.43009  0.80514  1.0000
  H   H699      1.0  0.01136  0.35785  0.92617  1.0000
  C   C417      1.0  0.01310  0.63654  0.81385  1.0000
  H   H700      1.0  0.01125  0.37399  0.94168  1.0000
  H   H701      1.0  0.00131  0.63110  0.82569  1.0000
  H   H702      1.0  0.23135  0.54340  0.88091  1.0000
  H   H703      1.0  0.04634  0.35853  0.86201  1.0000
  H   H704      1.0  0.02485  0.40473  0.78092  1.0000
  H   H705      1.0  0.16754  0.59689  0.85129  1.0000
  H   H706      1.0  0.17561  0.48169  0.96364  1.0000
  S   S137      1.0  0.08047  0.64274  0.73088  1.0000
  H   H707      1.0  0.21575  0.40674  0.68977  1.0000
  H   H708      1.0  0.02600  0.35587  0.87752  1.0000
  H   H709      1.0  0.14475  0.41169  0.79761  1.0000
  N   N28       1.0  0.02938  0.42581  0.74735  1.0000
  H   H710      1.0  0.15275  0.60910  0.56300  1.0000
  C   C418      1.0  0.03703  0.43462  0.76529  1.0000
  C   C419      1.0  0.04144  0.42132  0.72754  1.0000
  C   C420      1.0  0.02015  0.43459  0.73130  1.0000
  C   C421      1.0  0.14820  0.63922  0.82796  1.0000
  C   C422      1.0  0.01037  0.39922  0.75375  1.0000
  C   C423      1.0  0.05358  0.43461  0.70457  1.0000
  C   C424      1.0  0.02725  0.45220  0.71772  1.0000
  H   H711      1.0  0.12657  0.64303  0.89887  1.0000
  H   H712      1.0  0.21520  0.44319  0.62525  1.0000
  H   H713      1.0  0.04619  0.44503  0.75244  1.0000
  H   H714      1.0  0.04316  0.42736  0.77747  1.0000
  H   H715      1.0  0.04775  0.41437  0.73983  1.0000
  H   H716      1.0  0.03609  0.41380  0.71554  1.0000
  H   H717      1.0  0.01761  0.42928  0.71411  1.0000
  C   C425      1.0  0.10100  0.46817  0.96796  1.0000
  C   C426      1.0  0.06495  0.39542  0.89328  1.0000
  H   H718      1.0  0.21250  0.43232  0.59945  1.0000
  H   H719      1.0  0.01169  0.58884  0.70075  1.0000
  H   H720      1.0  0.15706  0.59735  0.82469  1.0000
  C   C427      1.0  0.03991  0.64599  0.71228  1.0000
  H   H721      1.0  0.16407  0.39969  0.56874  1.0000
  H   H722      1.0  0.06010  0.44316  0.71329  1.0000
  H   H723      1.0  0.04838  0.44050  0.68862  1.0000
  H   H724      1.0  0.06220  0.42963  0.69298  1.0000
  H   H725      1.0  0.02615  0.45525  0.69563  1.0000
  H   H726      1.0  0.03956  0.45637  0.71649  1.0000
  H   H727      1.0  0.02078  0.45912  0.72903  1.0000
  C   C428      1.0  0.16146  0.43584  0.74955  1.0000
  H   H728      1.0  0.17232  0.32409  0.57815  1.0000
  H   H729      1.0  0.19246  0.51012  0.96152  1.0000
  H   H730      1.0  0.13568  0.64798  0.92524  1.0000
  H   H731      1.0  0.00929  0.41359  0.78227  1.0000
  H   H732      1.0  0.21392  0.64886  0.95487  1.0000
  C   C429      1.0  0.03576  0.63000  0.70604  1.0000
  H   H733      1.0  0.03014  0.64814  0.72676  1.0000
  H   H734      1.0  0.02196  0.61828  0.83442  1.0000
  C   C430      1.0  0.98610  0.32584  0.89675  1.0000
  C   C431      1.0  0.09338  0.48042  0.89413  1.0000
  C   C432      1.0  0.12725  0.49749  0.89917  1.0000
  H   H735      1.0  0.01867  0.44631  0.77749  1.0000
  C   C433      1.0  0.01862  0.41101  0.76738  1.0000
  H   H736      1.0  0.11739  0.46750  0.90052  1.0000
  H   H737      1.0  0.09995  0.58294  0.48312  1.0000
  H   H738      1.0  0.11076  0.61440  0.48266  1.0000
  C   C434      1.0  0.03649  0.35216  0.88045  1.0000
  H   H739      1.0  0.03747  0.54027  0.50799  1.0000
  C   C435      1.0  0.00738  0.65214  0.92521  1.0000
  C   C436      1.0  0.12485  0.60398  0.50712  1.0000
  H   H740      1.0  0.11778  0.59904  0.89318  1.0000
  C   C437      1.0  0.15231  0.61664  0.49458  1.0000
  H   H741      1.0  0.04617  0.52569  0.49801  1.0000
  H   H742      1.0  0.13913  0.49671  0.89963  1.0000
  H   H743      1.0  0.00263  0.60513  0.79391  1.0000
  H   H744      1.0  0.08178  0.47904  0.89009  1.0000
  H   H745      1.0  0.09924  0.47342  0.88206  1.0000
  H   H746      1.0  0.09927  0.49294  0.88562  1.0000
  H   H747      1.0  0.04368  0.38081  0.94730  1.0000
  H   H748      1.0  0.12381  0.49227  0.88273  1.0000
  C   C438      1.0  0.15078  0.36861  0.51832  1.0000
  N   N29       1.0  0.03006  0.61600  0.73139  1.0000
  H   H749      1.0  0.20359  0.35947  0.73244  1.0000
  C   C439      1.0  0.02709  0.60190  0.72007  1.0000
  C   C440      1.0  0.04290  0.61553  0.74591  1.0000
  C   C441      1.0  0.01591  0.61773  0.75078  1.0000
  C   C442      1.0  0.03345  0.35661  0.96696  1.0000
  C   C443      1.0  0.01430  0.60063  0.70424  1.0000
  C   C444      1.0  0.03987  0.60204  0.77244  1.0000
  H   H750      1.0  0.01085  0.64133  0.93296  1.0000
  H   H751      1.0  0.22788  0.37417  0.76975  1.0000
  H   H752      1.0  0.07272  0.58114  0.50656  1.0000
  H   H753      1.0  0.12490  0.45371  0.95579  1.0000
  H   H754      1.0  0.03781  0.60155  0.70519  1.0000
  H   H755      1.0  0.05359  0.61536  0.73074  1.0000
  H   H756      1.0  0.04589  0.62613  0.75322  1.0000
  H   H757      1.0  0.01931  0.62624  0.76279  1.0000
  H   H758      1.0  0.00860  0.62285  0.73811  1.0000
  S   S138      1.0  0.05454  0.62714  0.81058  1.0000
  S   S139      1.0  0.09780  0.65274  0.77853  1.0000
  H   H759      1.0  0.03678  0.59046  0.76862  1.0000
  H   H760      1.0  0.06623  0.39620  0.91453  1.0000
  H   H761      1.0  0.15472  0.55328  0.93350  1.0000
  H   H762      1.0  0.21510  0.46974  0.49445  1.0000
  H   H763      1.0  0.21433  0.50395  0.97435  1.0000
  H   H764      1.0  0.08522  0.48283  0.93544  1.0000
  H   H765      1.0  0.11811  0.62620  0.50350  1.0000
  H   H766      1.0  0.18333  0.36861  0.51293  1.0000
  H   H767      1.0  0.03112  0.60312  0.79033  1.0000
  H   H768      1.0  0.18950  0.40529  0.53517  1.0000
  N   N30       1.0  0.16872  0.38967  0.53339  1.0000
  C   C445      1.0  0.17357  0.37652  0.55007  1.0000
  H   H769      1.0  0.04922  0.34820  0.91214  1.0000
  C   C446      1.0  0.18589  0.37044  0.53284  1.0000
  C   C447      1.0  0.14275  0.38396  0.57112  1.0000
  H   H770      1.0  0.22907  0.64152  0.90267  1.0000
  H   H771      1.0  0.16374  0.36643  0.56117  1.0000
  H   H772      1.0  0.17814  0.38002  0.56740  1.0000
  S   S140      1.0  0.12701  0.62948  0.79993  1.0000
  H   H773      1.0  0.00427  0.40450  0.73887  1.0000
  C   C448      1.0  0.11800  0.59357  0.91504  1.0000
  H   H774      1.0  0.14111  0.61945  0.57943  1.0000
  H   H775      1.0  0.99863  0.62362  0.91406  1.0000
  H   H776      1.0  0.14434  0.37329  0.58416  1.0000
  H   H777      1.0  0.13495  0.38116  0.55763  1.0000
  H   H778      1.0  0.13673  0.38953  0.58622  1.0000
  H   H779      1.0  0.06753  0.37223  0.89575  1.0000
  H   H780      1.0  0.14515  0.36323  0.54103  1.0000
  H   H781      1.0  0.00727  0.32581  0.90911  1.0000
  H   H782      1.0  0.05023  0.64765  0.72064  1.0000
  H   H783      1.0  0.15223  0.59268  0.53799  1.0000
  H   H784      1.0  0.11885  0.57054  0.91184  1.0000
  H   H785      1.0  0.15611  0.62969  0.54766  1.0000
  C   C449      1.0  0.18311  0.40270  0.51933  1.0000
  H   H786      1.0  0.13214  0.56985  0.56396  1.0000
  H   H787      1.0  0.01664  0.62856  0.88681  1.0000
  H   H788      1.0  0.12817  0.51010  0.89183  1.0000
  H   H789      1.0  0.04612  0.62902  0.69101  1.0000
  H   H790      1.0  0.12375  0.61030  0.55585  1.0000
  H   H791      1.0  0.17374  0.41658  0.48819  1.0000
  C   C450      1.0  0.12813  0.46124  0.93382  1.0000
  H   H792      1.0  0.99855  0.62202  0.87930  1.0000
  H   H793      1.0  0.14390  0.61699  0.89219  1.0000
  H   H794      1.0  0.15149  0.48838  0.95950  1.0000
  H   H795      1.0  0.16557  0.46426  0.80732  1.0000
  H   H796      1.0  0.17237  0.50368  0.97609  1.0000
  H   H797      1.0  0.00869  0.43350  0.74553  1.0000
  H   H798      1.0  0.20825  0.45069  0.59574  1.0000
  H   H799      1.0  0.98361  0.50991  0.59545  1.0000
  H   H800      1.0  0.05644  0.36862  0.94415  1.0000
  S   S141      1.0  0.12067  0.56373  0.49749  1.0000
  H   H801      1.0  0.05820  0.37937  0.87004  1.0000
  C   C451      1.0  0.15946  0.65006  0.83399  1.0000
  C   C452      1.0  0.16647  0.46993  0.78490  1.0000
  S   S142      1.0  0.11697  0.64273  0.72412  1.0000
  H   H802      1.0  0.10922  0.49940  0.93267  1.0000
  H   H803      1.0  0.00688  0.37430  0.90802  1.0000
  C   C453      1.0  0.13533  0.61582  0.54085  1.0000
  H   H804      1.0  0.03431  0.33976  0.88030  1.0000
  H   H805      1.0  0.15194  0.42558  0.75195  1.0000
  H   H806      1.0  0.10556  0.45216  0.92885  1.0000
  C   C454      1.0  0.14715  0.61864  0.55833  1.0000
  H   H807      1.0  0.21802  0.37651  0.72916  1.0000
  H   H808      1.0  0.19556  0.48614  0.96090  1.0000
  C   C455      1.0  0.15180  0.43613  0.79859  1.0000
  H   H809      1.0  0.15893  0.57919  0.84374  1.0000
  C   C456      1.0  0.09142  0.47500  0.92631  1.0000
  C   C457      1.0  0.16861  0.61629  0.49786  1.0000
  H   H810      1.0  0.16484  0.64641  0.85069  1.0000
  H   H811      1.0  0.12226  0.33678  0.60518  1.0000
  C   C458      1.0  0.21636  0.44401  0.60246  1.0000
  H   H812      1.0  0.07660  0.40014  0.87837  1.0000
  H   H813      1.0  0.05499  0.53835  0.51655  1.0000
  C   C459      1.0  0.00446  0.62913  0.89134  1.0000
  H   H814      1.0  0.05066  0.60271  0.77949  1.0000
  H   H815      1.0  0.00160  0.38985  0.77075  1.0000
  C   C460      1.0  0.22406  0.64450  0.95817  1.0000
  C   C461      1.0  0.16135  0.38526  0.51087  1.0000
  Fe  Fe68      1.0  0.19266  0.65156  0.91290  1.0000
  H   H816      1.0  0.12969  0.42179  0.79689  1.0000
  H   H817      1.0  0.11422  0.59770  0.52423  1.0000
  N   N31       1.0  0.04317  0.36991  0.91269  1.0000
  C   C462      1.0  0.05859  0.37858  0.89229  1.0000
  C   C463      1.0  0.03963  0.35366  0.90906  1.0000
  C   C464      1.0  0.04476  0.36967  0.94230  1.0000
  C   C465      1.0  0.03138  0.37843  0.90571  1.0000
  H   H818      1.0  0.03380  0.38999  0.91019  1.0000
  H   H819      1.0  0.99465  0.64896  0.93295  1.0000
  C   C466      1.0  0.18078  0.41816  0.50341  1.0000
  H   H820      1.0  0.01838  0.39334  0.74306  1.0000
  C   C467      1.0  0.22772  0.45236  0.50105  1.0000
  H   H821      1.0  0.09395  0.45593  0.97387  1.0000
  H   H822      1.0  0.02938  0.34589  0.92539  1.0000
  H   H823      1.0  0.12592  0.57637  0.93955  1.0000
  H   H824      1.0  0.98792  0.54942  0.61814  1.0000
  C   C468      1.0  0.16138  0.32684  0.58425  1.0000
  C   C469      1.0  0.01674  0.65088  0.79393  1.0000
  H   H825      1.0  0.12369  0.49145  0.94406  1.0000
  H   H826      1.0  0.05781  0.40311  0.88592  1.0000
  H   H827      1.0  0.15203  0.62906  0.48920  1.0000
  C   C470      1.0  0.04373  0.65034  0.78277  1.0000
  C   C471      1.0  0.14144  0.59153  0.53107  1.0000
  H   H828      1.0  0.13631  0.47229  0.93227  1.0000
  S   S143      1.0  0.23119  0.39434  0.64596  1.0000
  S   S144      1.0  0.98297  0.51122  0.65426  1.0000
  C   C472      1.0  0.22736  0.43767  0.51727  1.0000
  H   H829      1.0  0.22253  0.34402  0.72724  1.0000
  C   C473      1.0  0.21601  0.36539  0.72322  1.0000
  C   C474      1.0  0.01437  0.37061  0.92160  1.0000
  C   C475      1.0  0.14112  0.64373  0.80630  1.0000
  N   N32       1.0  0.14247  0.58435  0.89840  1.0000
  C   C476      1.0  0.14804  0.56972  0.90298  1.0000
  C   C477      1.0  0.14216  0.58899  0.86773  1.0000
  C   C478      1.0  0.12885  0.65198  0.91052  1.0000
  C   C479      1.0  0.15298  0.59662  0.90674  1.0000
  H   H830      1.0  0.02131  0.35588  0.96700  1.0000
  H   H831      1.0  0.21799  0.36776  0.69991  1.0000
  C   C480      1.0  0.15491  0.61375  0.89149  1.0000
  H   H832      1.0  0.14110  0.56069  0.89545  1.0000
  H   H833      1.0  0.16009  0.57198  0.89030  1.0000
  H   H834      1.0  0.13888  0.60009  0.86240  1.0000
  H   H835      1.0  0.13312  0.58033  0.86336  1.0000
  C   C481      1.0  0.00516  0.60287  0.77266  1.0000
  H   H836      1.0  0.22148  0.35078  0.75802  1.0000
  C   C482      1.0  0.22571  0.35465  0.73452  1.0000
  H   H837      1.0  0.16482  0.59502  0.90312  1.0000
  H   H838      1.0  0.15454  0.39355  0.50418  1.0000
  S   S145      1.0  0.14489  0.51734  0.96645  1.0000
  H   H839      1.0  0.14313  0.58517  0.51439  1.0000
  H   H840      1.0  0.10579  0.58867  0.92740  1.0000
  C   C483      1.0  0.12624  0.58038  0.91678  1.0000
  H   H841      1.0  0.19223  0.42597  0.49116  1.0000
  H   H842      1.0  0.16172  0.61669  0.86917  1.0000
  H   H843      1.0  0.16160  0.62125  0.90198  1.0000
  H   H844      1.0  0.22571  0.42068  0.72250  1.0000
  H   H845      1.0  0.08257  0.50702  0.73102  1.0000
  H   H846      1.0  0.09982  0.51126  0.70419  1.0000
  H   H847      1.0  0.09117  0.53156  0.73332  1.0000
  N   N33       1.0  0.08279  0.54176  0.69826  1.0000
  C   C484      1.0  0.08350  0.55540  0.71109  1.0000
  C   C485      1.0  0.06600  0.53337  0.70483  1.0000
  C   C486      1.0  0.08898  0.54807  0.66659  1.0000
  C   C487      1.0  0.09243  0.53187  0.71055  1.0000
  C   C488      1.0  0.09931  0.56719  0.70357  1.0000
  C   C489      1.0  0.05750  0.52724  0.73652  1.0000
  C   C490      1.0  0.08930  0.53609  0.64901  1.0000
  C   C491      1.0  0.08885  0.51469  0.70965  1.0000
  H   H848      1.0  0.07529  0.56203  0.70496  1.0000
  H   H849      1.0  0.07983  0.55143  0.73463  1.0000
  H   H850      1.0  0.06423  0.52343  0.69549  1.0000
  H   H851      1.0  0.05953  0.54111  0.69477  1.0000
  H   H852      1.0  0.08227  0.55609  0.65819  1.0000
  H   H853      1.0  0.10111  0.55505  0.66097  1.0000
  H   H854      1.0  0.10488  0.53714  0.69997  1.0000
  H   H855      1.0  0.16208  0.43346  0.80519  1.0000
  C   C492      1.0  0.12105  0.61836  0.49026  1.0000
  H   H856      1.0  0.13436  0.62755  0.53071  1.0000
  H   H857      1.0  0.12304  0.60240  0.92506  1.0000
  H   H858      1.0  0.17427  0.46671  0.74365  1.0000
  H   H859      1.0  0.14696  0.44261  0.81327  1.0000
  Fe  Fe69      1.0  0.11116  0.63516  0.77182  1.0000
  H   H860      1.0  0.03226  0.38138  0.88258  1.0000
  H   H861      1.0  0.19752  0.37840  0.52809  1.0000
  H   H862      1.0  0.00346  0.60222  0.71638  1.0000
  C   C493      1.0  0.09402  0.57407  0.50253  1.0000
  C   C494      1.0  0.11620  0.49096  0.92922  1.0000
  H   H863      1.0  0.14930  0.59543  0.92991  1.0000
  C   C495      1.0  0.11376  0.46378  0.92386  1.0000
  H   H864      1.0  0.02413  0.59091  0.73679  1.0000
  H   H865      1.0  0.03590  0.34517  0.96696  1.0000
  H   H866      1.0  0.22326  0.63453  0.94876  1.0000
  S   S146      1.0  0.00107  0.32599  0.96749  1.0000
  C   C496      1.0  0.04866  0.53772  0.49995  1.0000
  H   H867      1.0  0.17098  0.60492  0.49681  1.0000
  H   H868      1.0  0.14134  0.36889  0.50756  1.0000
  C   C497      1.0  0.18426  0.48542  0.97508  1.0000
  H   H869      1.0  0.00533  0.64907  0.85899  1.0000
  H   H870      1.0  0.17568  0.42435  0.51829  1.0000
  H   H871      1.0  0.00970  0.59249  0.77501  1.0000
  H   H872      1.0  0.22962  0.54354  0.49344  1.0000
  H   H873      1.0  0.11785  0.65270  0.92366  1.0000
  H   H874      1.0  0.03269  0.64972  0.89738  1.0000
  C   C498      1.0  0.98929  0.32647  0.94374  1.0000
  C   C499      1.0  0.00287  0.64585  0.88231  1.0000
  H   H875      1.0  0.99040  0.64538  0.88941  1.0000
  H   H876      1.0  0.08148  0.54542  0.49166  1.0000
  H   H877      1.0  0.15715  0.36079  0.50963  1.0000
  H   H878      1.0  0.11118  0.46772  0.97654  1.0000
  H   H879      1.0  0.17045  0.38627  0.49151  1.0000
  H   H880      1.0  0.12630  0.59631  0.49270  1.0000
  H   H881      1.0  0.07292  0.52732  0.48719  1.0000
  H   H882      1.0  0.04282  0.65520  0.69213  1.0000
  C   C500      1.0  0.13421  0.32242  0.58469  1.0000
  H   H883      1.0  0.23186  0.42082  0.59817  1.0000
  S   S147      1.0  0.98217  0.32332  0.75956  1.0000
  H   H884      1.0  0.22152  0.57251  0.47976  1.0000
  H   H885      1.0  0.17720  0.62512  0.47969  1.0000
  C   C501      1.0  0.14302  0.48603  0.97932  1.0000
  Fe  Fe70      1.0  0.17198  0.78088  0.23890  1.0000
  S   S148      1.0  0.18610  0.77440  0.20271  1.0000
  S   S149      1.0  0.16268  0.80212  0.22986  1.0000
  Fe  Fe71      1.0  0.17746  0.75598  0.28334  1.0000
  S   S150      1.0  0.19195  0.74772  0.25110  1.0000
  S   S151      1.0  0.17227  0.74359  0.32971  1.0000
  Fe  Fe72      1.0  0.20295  0.77290  0.22944  1.0000
  C   C502      1.0  0.12920  0.69750  0.26544  1.0000
  Fe  Fe73      1.0  0.17386  0.74975  0.22720  1.0000
  S   S152      1.0  0.16778  0.72917  0.20899  1.0000
  S   S153      1.0  0.18983  0.78111  0.26381  1.0000
  S   S154      1.0  0.15841  0.75632  0.26136  1.0000
  S   S155      1.0  0.21234  0.72048  0.44823  1.0000
  Fe  Fe74      1.0  0.22968  0.70717  0.43620  1.0000
  C   C503      1.0  0.12979  0.67263  0.23431  1.0000
  C   C504      1.0  0.02420  0.85328  0.98372  1.0000
  S   S156      1.0  0.22284  0.68431  0.42292  1.0000
  Fe  Fe75      1.0  0.11597  0.66700  0.11029  1.0000
  S   S157      1.0  0.11397  0.66759  0.15566  1.0000
  H   H886      1.0  0.08292  0.67437  0.25282  1.0000
  Fe  Fe76      1.0  0.08512  0.67411  0.11016  1.0000
  S   S158      1.0  0.08051  0.67532  0.15524  1.0000
  S   S159      1.0  0.06928  0.67839  0.08173  1.0000
  Fe  Fe77      1.0  0.10531  0.68879  0.14419  1.0000
  S   S160      1.0  0.10962  0.70991  0.16157  1.0000
  H   H887      1.0  0.09459  0.88612  0.36188  1.0000
  S   S161      1.0  0.10928  0.68939  0.09801  1.0000
  H   H888      1.0  0.16815  0.67669  0.38779  1.0000
  S   S162      1.0  0.01062  0.79329  0.24524  1.0000
  H   H889      1.0  0.00794  0.71337  0.05213  1.0000
  Fe  Fe78      1.0  0.10176  0.83436  0.31694  1.0000
  S   S163      1.0  0.07723  0.83213  0.33938  1.0000
  S   S164      1.0  0.10888  0.81173  0.32119  1.0000
  Fe  Fe79      1.0  0.10842  0.86975  0.29563  1.0000
  S   S165      1.0  0.08415  0.86977  0.31641  1.0000
  S   S166      1.0  0.12907  0.88962  0.26850  1.0000
  Fe  Fe80      1.0  0.08700  0.85288  0.35436  1.0000
  S   S167      1.0  0.07919  0.85101  0.40221  1.0000
  Fe  Fe81      1.0  0.07653  0.84881  0.29979  1.0000
  S   S168      1.0  0.05868  0.84645  0.27311  1.0000
  S   S169      1.0  0.11154  0.85384  0.33416  1.0000
  S   S170      1.0  0.10080  0.85010  0.27676  1.0000
  S   S171      1.0  0.98272  0.80330  0.19359  1.0000
  H   H890      1.0  0.13140  0.71026  0.26245  1.0000
  S   S172      1.0  0.12151  0.96716  0.03477  1.0000
  H   H891      1.0  0.10696  0.69543  0.25782  1.0000
  H   H892      1.0  0.04500  0.89172  0.02597  1.0000
  C   C505      1.0  0.13212  0.91011  0.25832  1.0000
  C   C506      1.0  0.12108  0.91758  0.26841  1.0000
  C   C507      1.0  0.12459  0.93394  0.26146  1.0000
  C   C508      1.0  0.13902  0.94300  0.24388  1.0000
  C   C509      1.0  0.14991  0.93551  0.23329  1.0000
  C   C510      1.0  0.14649  0.91918  0.24065  1.0000
  H   H893      1.0  0.10995  0.91077  0.28189  1.0000
  H   H894      1.0  0.11607  0.93962  0.26972  1.0000
  H   H895      1.0  0.15512  0.91352  0.23272  1.0000
  S   S173      1.0  0.98730  0.67823  0.07036  1.0000
  H   H896      1.0  0.98298  0.80969  0.32486  1.0000
  C   C511      1.0  0.04080  0.83454  0.24035  1.0000
  C   C512      1.0  0.04587  0.83123  0.26522  1.0000
  C   C513      1.0  0.04020  0.81619  0.28328  1.0000
  C   C514      1.0  0.02963  0.80479  0.27661  1.0000
  H   H897      1.0  0.04495  0.84611  0.22624  1.0000
  H   H898      1.0  0.04364  0.81347  0.30280  1.0000
  H   H899      1.0  0.02524  0.79332  0.29103  1.0000
  H   H900      1.0  0.98732  0.79657  0.08819  1.0000
  C   C515      1.0  0.98712  0.80745  0.07467  1.0000
  C   C516      1.0  0.09180  0.85130  0.44824  1.0000
  C   C517      1.0  0.08715  0.86009  0.42626  1.0000
  C   C518      1.0  0.08580  0.87499  0.42748  1.0000
  C   C519      1.0  0.08919  0.88102  0.44990  1.0000
  S   S174      1.0  0.17254  0.97612  0.16029  1.0000
  H   H901      1.0  0.09232  0.83955  0.44827  1.0000
  H   H902      1.0  0.08135  0.88160  0.41189  1.0000
  H   H903      1.0  0.18929  0.81724  0.27699  1.0000
  H   H904      1.0  0.05940  0.72717  0.10367  1.0000
  C   C520      1.0  0.13531  0.67660  0.00559  1.0000
  C   C521      1.0  0.13159  0.67269  0.03536  1.0000
  C   C522      1.0  0.03724  0.86620  0.98621  1.0000
  Fe  Fe82      1.0  0.16361  0.98064  0.20226  1.0000
  C   C523      1.0  0.22645  0.78568  0.13412  1.0000
  H   H905      1.0  0.00914  0.86534  0.02462  1.0000
  H   H906      1.0  0.13716  0.67260  0.24933  1.0000
  C   C524      1.0  0.10267  0.96035  0.15585  1.0000
  H   H907      1.0  0.99452  0.84599  0.07023  1.0000
  C   C525      1.0  0.04957  0.66895  0.09434  1.0000
  C   C526      1.0  0.04005  0.67017  0.07574  1.0000
  H   H908      1.0  0.06421  0.87518  0.02297  1.0000
  C   C527      1.0  0.16768  0.80324  0.30787  1.0000
  C   C528      1.0  0.06323  0.88378  0.00453  1.0000
  H   H909      1.0  0.04502  0.67644  0.05371  1.0000
  C   C529      1.0  0.14878  0.97941  0.08625  1.0000
  H   H910      1.0  0.10326  0.90243  0.37158  1.0000
  H   H911      1.0  0.03766  0.85484  0.07939  1.0000
  H   H912      1.0  0.22275  0.80673  0.23009  1.0000
  C   C530      1.0  0.09009  0.68002  0.23092  1.0000
  H   H913      1.0  0.09233  0.69283  0.22662  1.0000
  H   H914      1.0  0.02124  0.84262  0.00133  1.0000
  C   C531      1.0  0.19067  0.67180  0.43702  1.0000
  H   H915      1.0  0.17488  0.71132  0.35611  1.0000
  H   H916      1.0  0.10195  0.66287  0.22293  1.0000
  H   H917      1.0  0.18960  0.68146  0.44600  1.0000
  H   H918      1.0  0.16104  0.94230  0.21971  1.0000
  H   H919      1.0  0.14009  0.95907  0.07278  1.0000
  H   H920      1.0  0.12124  0.88868  0.32885  1.0000
  H   H921      1.0  0.22503  0.94383  0.11832  1.0000
  C   C532      1.0  0.18742  0.74861  0.34522  1.0000
  C   C533      1.0  0.20133  0.75897  0.32896  1.0000
  C   C534      1.0  0.21343  0.76267  0.34149  1.0000
  C   C535      1.0  0.21190  0.75574  0.37004  1.0000
  C   C536      1.0  0.19795  0.74541  0.38638  1.0000
  C   C537      1.0  0.18565  0.74200  0.37403  1.0000
  H   H922      1.0  0.20284  0.76403  0.30667  1.0000
  H   H923      1.0  0.16725  0.79512  0.29407  1.0000
  H   H924      1.0  0.19661  0.74016  0.40856  1.0000
  H   H925      1.0  0.17484  0.73404  0.38673  1.0000
  C   C538      1.0  0.15223  0.72507  0.19358  1.0000
  C   C539      1.0  0.15109  0.71293  0.18026  1.0000
  C   C540      1.0  0.13838  0.70855  0.16936  1.0000
  C   C541      1.0  0.12663  0.71623  0.17187  1.0000
  C   C542      1.0  0.12790  0.72859  0.18467  1.0000
  C   C543      1.0  0.14065  0.73301  0.19551  1.0000
  H   H926      1.0  0.16007  0.70683  0.17849  1.0000
  H   H927      1.0  0.13760  0.69911  0.15933  1.0000
  H   H928      1.0  0.11886  0.73460  0.18666  1.0000
  H   H929      1.0  0.14141  0.74238  0.20570  1.0000
  H   H930      1.0  0.11212  0.68213  0.20324  1.0000
  H   H931      1.0  0.04701  0.89524  0.98937  1.0000
  H   H932      1.0  0.14422  0.77787  0.32842  1.0000
  H   H933      1.0  0.15211  0.92053  0.32482  1.0000
  H   H934      1.0  0.18026  0.82794  0.29939  1.0000
  H   H935      1.0  0.11681  0.87870  0.36451  1.0000
  H   H936      1.0  0.21965  0.68454  0.35994  1.0000
  Fe  Fe83      1.0  0.11101  0.97278  0.99651  1.0000
  C   C544      1.0  0.14714  0.80445  0.25446  1.0000
  C   C545      1.0  0.13815  0.79212  0.27734  1.0000
  C   C546      1.0  0.12640  0.79454  0.29758  1.0000
  C   C547      1.0  0.12352  0.80924  0.29496  1.0000
  C   C548      1.0  0.13219  0.82148  0.27163  1.0000
  C   C549      1.0  0.14397  0.81906  0.25143  1.0000
  H   H937      1.0  0.14034  0.78076  0.27953  1.0000
  H   H938      1.0  0.11955  0.78498  0.31539  1.0000
  H   H939      1.0  0.12998  0.83283  0.26935  1.0000
  H   H940      1.0  0.15085  0.82862  0.23363  1.0000
  H   H941      1.0  0.00357  0.88821  0.03562  1.0000
  H   H942      1.0  0.22099  0.77305  0.13907  1.0000
  H   H943      1.0  0.15579  0.89911  0.30349  1.0000
  C   C550      1.0  0.17817  0.81880  0.28823  1.0000
  C   C551      1.0  0.02452  0.80814  0.25177  1.0000
  H   H944      1.0  0.22984  0.79160  0.46964  1.0000
  H   H945      1.0  0.11953  0.92594  0.33777  1.0000
  H   H946      1.0  0.13669  0.68196  0.21502  1.0000
  C   C552      1.0  0.12779  0.89085  0.40732  1.0000
  H   H947      1.0  0.20342  0.71877  0.27734  1.0000
  H   H948      1.0  0.11494  0.93685  0.15549  1.0000
  H   H949      1.0  0.16481  0.82677  0.34383  1.0000
  H   H950      1.0  0.13597  0.93434  0.34934  1.0000
  H   H951      1.0  0.13636  0.93856  0.31271  1.0000
  H   H952      1.0  0.01733  0.88131  0.99447  1.0000
  H   H953      1.0  0.11815  0.97749  0.11693  1.0000
  C   C553      1.0  0.15769  0.66628  0.00458  1.0000
  C   C554      1.0  0.01878  0.87597  0.01564  1.0000
  H   H954      1.0  0.22582  0.71091  0.35728  1.0000
  N   N34       1.0  0.03410  0.87188  0.01261  1.0000
  C   C555      1.0  0.20062  0.70732  0.37373  1.0000
  C   C556      1.0  0.01565  0.88737  0.03360  1.0000
  H   H955      1.0  0.14064  0.69539  0.25797  1.0000
  H   H956      1.0  0.09452  0.94901  0.15850  1.0000
  S   S175      1.0  0.13657  0.66052  0.08716  1.0000
  C   C557      1.0  0.03363  0.85891  0.03740  1.0000
  H   H957      1.0  0.16607  0.66252  0.44537  1.0000
  H   H958      1.0  0.19907  0.72500  0.32410  1.0000
  C   C558      1.0  0.10526  0.67498  0.22477  1.0000
  H   H959      1.0  0.04850  0.86254  0.47796  1.0000
  H   H960      1.0  0.12228  0.70077  0.22686  1.0000
  H   H961      1.0  0.19361  0.71467  0.38241  1.0000
  H   H962      1.0  0.19289  0.67779  0.37094  1.0000
  H   H963      1.0  0.22324  0.79125  0.11514  1.0000
  S   S176      1.0  0.22893  0.77976  0.21142  1.0000
  H   H964      1.0  0.13780  0.88599  0.40933  1.0000
  H   H965      1.0  0.09850  0.97382  0.11783  1.0000
  H   H966      1.0  0.02371  0.84887  0.04065  1.0000
  H   H967      1.0  0.02308  0.89926  0.02308  1.0000
  H   H968      1.0  0.01695  0.88364  0.05526  1.0000
  H   H969      1.0  0.01986  0.85998  0.07812  1.0000
  C   C559      1.0  0.13274  0.97852  0.05229  1.0000
  H   H970      1.0  0.12346  0.66768  0.29831  1.0000
  S   S177      1.0  0.14292  0.96357  0.23584  1.0000
  H   H971      1.0  0.12310  0.91128  0.38449  1.0000
  C   C560      1.0  0.03030  0.82311  0.23357  1.0000
  S   S178      1.0  0.99467  0.74291  0.17031  1.0000
  H   H972      1.0  0.02844  0.71776  0.04283  1.0000
  C   C561      1.0  0.14051  0.97121  0.07062  1.0000
  N   N35       1.0  0.17215  0.79645  0.33443  1.0000
  C   C562      1.0  0.16575  0.77907  0.34231  1.0000
  C   C563      1.0  0.18946  0.79947  0.32894  1.0000
  C   C564      1.0  0.13222  0.92920  0.33286  1.0000
  C   C565      1.0  0.16515  0.80241  0.35859  1.0000
  C   C566      1.0  0.14818  0.77317  0.34708  1.0000
  C   C567      1.0  0.19561  0.79376  0.35473  1.0000
  C   C568      1.0  0.11779  0.69264  0.24829  1.0000
  C   C569      1.0  0.17112  0.81982  0.35601  1.0000
  H   H973      1.0  0.17131  0.77421  0.32551  1.0000
  H   H974      1.0  0.16830  0.77333  0.36211  1.0000
  H   H975      1.0  0.19533  0.81197  0.32042  1.0000
  H   H976      1.0  0.19405  0.79403  0.31217  1.0000
  H   H977      1.0  0.14256  0.88079  0.36643  1.0000
  H   H978      1.0  0.14280  0.91276  0.38152  1.0000
  H   H979      1.0  0.15251  0.80053  0.36125  1.0000
  H   H980      1.0  0.16597  0.79563  0.37931  1.0000
  H   H981      1.0  0.14161  0.77563  0.36611  1.0000
  H   H982      1.0  0.15689  0.89878  0.35465  1.0000
  H   H983      1.0  0.14525  0.76035  0.35074  1.0000
  H   H984      1.0  0.20841  0.79701  0.34803  1.0000
  H   H985      1.0  0.19219  0.79926  0.37197  1.0000
  H   H986      1.0  0.19210  0.78097  0.36304  1.0000
  S   S179      1.0  0.00989  0.78820  0.16586  1.0000
  H   H987      1.0  0.21536  0.67532  0.33293  1.0000
  H   H988      1.0  0.17253  0.82309  0.27156  1.0000
  H   H989      1.0  0.03821  0.87437  0.06552  1.0000
  H   H990      1.0  0.18365  0.82438  0.34644  1.0000
  H   H991      1.0  0.16932  0.82170  0.37756  1.0000
  N   N36       1.0  0.11560  0.95798  0.16926  1.0000
  C   C570      1.0  0.10897  0.95117  0.20070  1.0000
  C   C571      1.0  0.14838  0.67345  0.99013  1.0000
  C   C572      1.0  0.12347  0.94730  0.15597  1.0000
  H   H992      1.0  0.21917  0.72850  0.35126  1.0000
  H   H993      1.0  0.15469  0.97357  0.10008  1.0000
  C   C573      1.0  0.20538  0.67032  0.42526  1.0000
  C   C574      1.0  0.13558  0.94167  0.16996  1.0000
  H   H994      1.0  0.07136  0.89497  0.00283  1.0000
  H   H995      1.0  0.11830  0.95062  0.21167  1.0000
  C   C575      1.0  0.20635  0.65753  0.41390  1.0000
  H   H996      1.0  0.12807  0.68216  0.99456  1.0000
  S   S180      1.0  0.99741  0.82159  0.11374  1.0000
  H   H997      1.0  0.11798  0.88156  0.40733  1.0000
  H   H998      1.0  0.12945  0.95307  0.13330  1.0000
  C   C576      1.0  0.99136  0.83530  0.06426  1.0000
  H   H999      1.0  0.12434  0.89479  0.42671  1.0000
  C   C577      1.0  0.02412  0.66340  0.08549  1.0000
  Fe  Fe84      1.0  0.23025  0.74155  0.41926  1.0000
  H   H1000     1.0  0.10259  0.95882  0.21002  1.0000
  H   H1001     1.0  0.19932  0.69742  0.39207  1.0000
  C   C578      1.0  0.04310  0.66088  0.12279  1.0000
  H   H1002     1.0  0.12153  0.67521  0.04709  1.0000
  H   H1003     1.0  0.14138  0.93490  0.15717  1.0000
  H   H1004     1.0  0.13029  0.93389  0.19156  1.0000
  H   H1005     1.0  0.14463  0.95144  0.17090  1.0000
  H   H1006     1.0  0.22411  0.77070  0.32891  1.0000
  H   H1007     1.0  0.13502  0.97697  0.14291  1.0000
  H   H1008     1.0  0.13532  0.97161  0.17854  1.0000
  N   N37       1.0  0.19476  0.70173  0.35055  1.0000
  C   C579      1.0  0.17755  0.69982  0.35735  1.0000
  C   C580      1.0  0.20169  0.71375  0.32248  1.0000
  S   S181      1.0  0.08679  0.97518  0.99759  1.0000
  C   C581      1.0  0.19775  0.68616  0.34967  1.0000
  H   H1009     1.0  0.98615  0.84635  0.02577  1.0000
  C   C582      1.0  0.19641  0.70977  0.29692  1.0000
  H   H1010     1.0  0.10885  0.95946  0.11130  1.0000
  C   C583      1.0  0.04684  0.88617  0.00832  1.0000
  H   H1011     1.0  0.04764  0.86158  0.98434  1.0000
  H   H1012     1.0  0.17250  0.69506  0.34161  1.0000
  H   H1013     1.0  0.12427  0.69221  0.28843  1.0000
  H   H1014     1.0  0.18425  0.71007  0.29828  1.0000
  H   H1015     1.0  0.04373  0.85391  0.03310  1.0000
  H   H1016     1.0  0.09754  0.67028  0.28614  1.0000
  C   C584      1.0  0.11496  0.65853  0.29433  1.0000
  H   H1017     1.0  0.19143  0.68058  0.33618  1.0000
  C   C585      1.0  0.99161  0.82127  0.08215  1.0000
  C   C586      1.0  0.10743  0.96809  0.12369  1.0000
  H   H1018     1.0  0.17221  0.69240  0.40435  1.0000
  C   C587      1.0  0.12080  0.98677  0.17034  1.0000
  Fe  Fe85      1.0  0.99259  0.80019  0.15063  1.0000
  C   C588      1.0  0.21472  0.68559  0.34130  1.0000
  N   N38       1.0  0.11473  0.67611  0.24603  1.0000
  C   C589      1.0  0.17730  0.66098  0.43666  1.0000
  C   C590      1.0  0.10566  0.66492  0.27416  1.0000
  H   H1019     1.0  0.01367  0.85726  0.98215  1.0000
  H   H1020     1.0  0.02653  0.82599  0.21444  1.0000
  H   H1021     1.0  0.01835  0.72850  0.06373  1.0000
  H   H1022     1.0  0.04592  0.70347  0.07380  1.0000
  H   H1023     1.0  0.14221  0.88023  0.31749  1.0000
  H   H1024     1.0  0.19818  0.69849  0.29406  1.0000
  H   H1025     1.0  0.16119  0.88298  0.32204  1.0000
  C   C591      1.0  0.10470  0.89635  0.35473  1.0000
  H   H1026     1.0  0.10397  0.90377  0.33463  1.0000
  H   H1027     1.0  0.22090  0.78936  0.15263  1.0000
  N   N39       1.0  0.02867  0.70907  0.10382  1.0000
  C   C592      1.0  0.01723  0.70464  0.08722  1.0000
  C   C593      1.0  0.02701  0.69505  0.12755  1.0000
  C   C594      1.0  0.04458  0.71303  0.08407  1.0000
  C   C595      1.0  0.02564  0.72290  0.11413  1.0000
  C   C596      1.0  0.01825  0.71694  0.05997  1.0000
  C   C597      1.0  0.01051  0.68703  0.14600  1.0000
  C   C598      1.0  0.05830  0.71621  0.09720  1.0000
  C   C599      1.0  0.02951  0.72452  0.14216  1.0000
  H   H1028     1.0  0.01834  0.69376  0.08116  1.0000
  H   H1029     1.0  0.00518  0.70213  0.10032  1.0000
  H   H1030     1.0  0.03425  0.69771  0.14202  1.0000
  H   H1031     1.0  0.03137  0.68613  0.11879  1.0000
  H   H1032     1.0  0.04644  0.72355  0.06652  1.0000
  H   H1033     1.0  0.03194  0.73393  0.09776  1.0000
  H   H1034     1.0  0.01329  0.72299  0.11727  1.0000
  H   H1035     1.0  0.08699  0.93489  0.20342  1.0000
  C   C600      1.0  0.16818  0.68898  0.38660  1.0000
  H   H1036     1.0  0.15598  0.68957  0.38985  1.0000
  H   H1037     1.0  0.00442  0.69544  0.15269  1.0000
  H   H1038     1.0  0.00371  0.68021  0.13467  1.0000
  H   H1039     1.0  0.01098  0.67865  0.16528  1.0000
  H   H1040     1.0  0.06908  0.71772  0.08077  1.0000
  Fe  Fe86      1.0  0.99878  0.78991  0.20942  1.0000
  H   H1041     1.0  0.02142  0.71554  0.16061  1.0000
  H   H1042     1.0  0.02809  0.73589  0.14543  1.0000
  H   H1043     1.0  0.04145  0.72415  0.14236  1.0000
  H   H1044     1.0  0.05033  0.66021  0.13738  1.0000
  H   H1045     1.0  0.05801  0.70639  0.11486  1.0000
  C   C601      1.0  0.09781  0.93484  0.21003  1.0000
  C   C602      1.0  0.03216  0.86244  0.06651  1.0000
  N   N40       1.0  0.08522  0.80638  0.25054  1.0000
  C   C603      1.0  0.07963  0.81089  0.27744  1.0000
  C   C604      1.0  0.09561  0.82083  0.22898  1.0000
  C   C605      1.0  0.09412  0.79432  0.25719  1.0000
  C   C606      1.0  0.07130  0.79981  0.24109  1.0000
  C   C607      1.0  0.06984  0.79747  0.30329  1.0000
  C   C608      1.0  0.08801  0.83406  0.21991  1.0000
  C   C609      1.0  0.10782  0.79413  0.23353  1.0000
  C   C610      1.0  0.07456  0.79598  0.21230  1.0000
  H   H1046     1.0  0.08957  0.81692  0.28394  1.0000
  H   H1047     1.0  0.07250  0.81928  0.27426  1.0000
  H   H1048     1.0  0.10088  0.81825  0.20904  1.0000
  H   H1049     1.0  0.10548  0.82569  0.23708  1.0000
  H   H1050     1.0  0.09933  0.79583  0.27500  1.0000
  H   H1051     1.0  0.08629  0.78242  0.26478  1.0000
  H   H1052     1.0  0.06412  0.78884  0.25666  1.0000
  H   H1053     1.0  0.06362  0.80784  0.24030  1.0000
  H   H1054     1.0  0.07606  0.78856  0.30927  1.0000
  H   H1055     1.0  0.06712  0.80226  0.32183  1.0000
  H   H1056     1.0  0.05866  0.79198  0.30000  1.0000
  H   H1057     1.0  0.09673  0.84367  0.20336  1.0000
  H   H1058     1.0  0.07836  0.83044  0.21056  1.0000
  H   H1059     1.0  0.08400  0.83907  0.23748  1.0000
  H   H1060     1.0  0.10476  0.79342  0.21351  1.0000
  H   H1061     1.0  0.11220  0.78385  0.24071  1.0000
  H   H1062     1.0  0.11757  0.80447  0.22935  1.0000
  H   H1063     1.0  0.08110  0.80631  0.19472  1.0000
  H   H1064     1.0  0.06339  0.79168  0.20758  1.0000
  H   H1065     1.0  0.08059  0.78660  0.21269  1.0000
  H   H1066     1.0  0.10311  0.92610  0.20238  1.0000
  C   C611      1.0  0.98668  0.83556  0.03907  1.0000
  H   H1067     1.0  0.15580  0.80486  0.31320  1.0000
  H   H1068     1.0  0.13771  0.91320  0.30887  1.0000
  N   N41       1.0  0.13396  0.90092  0.35281  1.0000
  C   C612      1.0  0.14637  0.89222  0.35035  1.0000
  C   C613      1.0  0.13199  0.90478  0.38101  1.0000
  C   C614      1.0  0.13945  0.91565  0.32897  1.0000
  C   C615      1.0  0.11949  0.89062  0.35035  1.0000
  C   C616      1.0  0.15152  0.88858  0.32157  1.0000
  C   C617      1.0  0.15395  0.66234  0.03436  1.0000
  H   H1069     1.0  0.22210  0.69560  0.32399  1.0000
  H   H1070     1.0  0.21443  0.71641  0.31637  1.0000
  H   H1071     1.0  0.08325  0.67660  0.21627  1.0000
  C   C618      1.0  0.12734  0.97308  0.16471  1.0000
  H   H1072     1.0  0.08774  0.89242  0.45069  1.0000
  H   H1073     1.0  0.09453  0.93088  0.23354  1.0000
  H   H1074     1.0  0.09533  0.96678  0.16678  1.0000
  H   H1075     1.0  0.22015  0.71923  0.38559  1.0000
  C   C619      1.0  0.14093  0.66558  0.04983  1.0000
  H   H1076     1.0  0.98755  0.76484  0.31037  1.0000
  S   S182      1.0  0.22752  0.76047  0.38464  1.0000
  S   S183      1.0  0.21706  0.97905  0.15618  1.0000
  C   C620      1.0  0.98525  0.73214  0.15043  1.0000
  Fe  Fe87      1.0  0.99102  0.76625  0.17497  1.0000
  C   C621      1.0  0.21745  0.71698  0.36600  1.0000
  H   H1077     1.0  0.98594  0.79112  0.29844  1.0000
  H   H1078     1.0  0.98487  0.76635  0.27526  1.0000
  H   H1079     1.0  0.11388  0.98423  0.19248  1.0000
  H   H1080     1.0  0.16775  0.66377  0.99287  1.0000
  Fe  Fe88      1.0  0.19582  0.98842  0.16345  1.0000
  C   C622      1.0  0.98494  0.71636  0.15471  1.0000
  H   H1081     1.0  0.99010  0.71106  0.17054  1.0000
  H   H1082     1.0  0.02993  0.92655  0.98533  1.0000
  H   H1083     1.0  0.01686  0.66434  0.07098  1.0000
  C   C623      1.0  0.09365  0.87220  0.47202  1.0000
  C   C624      1.0  0.09513  0.85732  0.47087  1.0000
  H   H1084     1.0  0.21759  0.65614  0.40477  1.0000
  H   H1085     1.0  0.12581  0.65819  0.20521  1.0000
  H   H1086     1.0  0.16120  0.65684  0.04546  1.0000
  H   H1087     1.0  0.06719  0.88050  0.98467  1.0000
  C   C625      1.0  0.12840  0.65709  0.22615  1.0000
  C   C626      1.0  0.98247  0.80771  0.04944  1.0000
  C   C627      1.0  0.98220  0.82175  0.03156  1.0000
  Fe  Fe89      1.0  0.17434  0.78685  0.66030  1.0000
  S   S184      1.0  0.18109  0.77314  0.69675  1.0000
  S   S185      1.0  0.15687  0.80068  0.66990  1.0000
  Fe  Fe90      1.0  0.19555  0.77704  0.61681  1.0000
  S   S186      1.0  0.20417  0.76274  0.64934  1.0000
  S   S187      1.0  0.20323  0.78003  0.56959  1.0000
  Fe  Fe91      1.0  0.17939  0.75428  0.67429  1.0000
  S   S188      1.0  0.17189  0.72889  0.69881  1.0000
  Fe  Fe92      1.0  0.20532  0.78264  0.66946  1.0000
  H   H1088     1.0  0.00776  0.69115  0.84934  1.0000
  S   S189      1.0  0.17054  0.76706  0.64006  1.0000
  S   S190      1.0  0.19878  0.79784  0.63461  1.0000
  C   C628      1.0  0.05598  0.85408  0.55579  1.0000
  C   C629      1.0  0.06145  0.82123  0.56299  1.0000
  S   S191      1.0  0.09521  0.97975  0.92878  1.0000
  S   S192      1.0  0.10814  0.68417  0.70510  1.0000
  C   C630      1.0  0.15795  0.73109  0.60762  1.0000
  C   C631      1.0  0.16066  0.90558  0.55487  1.0000
  H   H1089     1.0  0.01127  0.91045  0.83478  1.0000
  N   N42       1.0  0.20153  0.72167  0.76679  1.0000
  H   H1090     1.0  0.19027  0.69943  0.76229  1.0000
  C   C632      1.0  0.14998  0.70255  0.86344  1.0000
  S   S193      1.0  0.20761  0.66882  0.87276  1.0000
  Fe  Fe93      1.0  0.17408  0.67425  0.92772  1.0000
  S   S194      1.0  0.18788  0.69314  0.88885  1.0000
  Fe  Fe94      1.0  0.18543  0.67423  0.86639  1.0000
  S   S195      1.0  0.17783  0.67953  0.82555  1.0000
  Fe  Fe95      1.0  0.20871  0.68620  0.89920  1.0000
  C   C633      1.0  0.21690  0.93560  0.68508  1.0000
  S   S196      1.0  0.19497  0.66851  0.93984  1.0000
  Fe  Fe96      1.0  0.10144  0.87189  0.54407  1.0000
  S   S197      1.0  0.09900  0.84706  0.56566  1.0000
  Fe  Fe97      1.0  0.11187  0.88342  0.59375  1.0000
  S   S198      1.0  0.10965  0.85901  0.61857  1.0000
  S   S199      1.0  0.12156  0.90625  0.60499  1.0000
  Fe  Fe98      1.0  0.12102  0.85557  0.57703  1.0000
  S   S200      1.0  0.14033  0.84374  0.56931  1.0000
  Fe  Fe99      1.0  0.08751  0.85228  0.60560  1.0000
  S   S201      1.0  0.06818  0.83186  0.63506  1.0000
  S   S202      1.0  0.12451  0.88019  0.55247  1.0000
  S   S203      1.0  0.08867  0.87694  0.58362  1.0000
  S   S204      1.0  0.99485  0.81898  0.66261  1.0000
  H   H1091     1.0  0.16063  0.82362  0.56971  1.0000
  C   C634      1.0  0.17355  0.72511  0.77311  1.0000
  H   H1092     1.0  0.17682  0.73490  0.75394  1.0000
  H   H1093     1.0  0.18235  0.71251  0.80420  1.0000
  C   C635      1.0  0.12176  0.66627  0.85775  1.0000
  H   H1094     1.0  0.17517  0.85382  0.61112  1.0000
  H   H1095     1.0  0.19607  0.93033  0.76851  1.0000
  H   H1096     1.0  0.21609  0.75382  0.70860  1.0000
  C   C636      1.0  0.20747  0.74997  0.52115  1.0000
  H   H1097     1.0  0.00798  0.67330  0.94021  1.0000
  H   H1098     1.0  0.12432  0.77721  0.62990  1.0000
  H   H1099     1.0  0.09943  0.77807  0.62404  1.0000
  Fe  Fe100     1.0  0.00134  0.87360  0.92965  1.0000
  S   S205      1.0  0.02526  0.89017  0.92404  1.0000
  S   S206      1.0  0.00151  0.84885  0.92931  1.0000
  C   C637      1.0  0.05212  0.92799  0.95871  1.0000
  C   C638      1.0  0.05966  0.92233  0.93729  1.0000
  C   C639      1.0  0.05124  0.91100  0.92679  1.0000
  C   C640      1.0  0.03511  0.90517  0.93724  1.0000
  C   C641      1.0  0.02753  0.91107  0.95821  1.0000
  C   C642      1.0  0.03612  0.65893  0.85294  1.0000
  H   H1100     1.0  0.07203  0.92649  0.92914  1.0000
  H   H1101     1.0  0.05735  0.90666  0.91056  1.0000
  C   C643      1.0  0.12959  0.98089  0.81973  1.0000
  H   H1102     1.0  0.01495  0.68185  0.89301  1.0000
  H   H1103     1.0  0.98739  0.78115  0.84803  1.0000
  H   H1104     1.0  0.16137  0.90708  0.53197  1.0000
  C   C644      1.0  0.19292  0.71140  0.64379  1.0000
  C   C645      1.0  0.12799  0.97972  0.84882  1.0000
  H   H1105     1.0  0.03052  0.86564  0.80575  1.0000
  C   C646      1.0  0.12033  0.78746  0.63392  1.0000
  C   C647      1.0  0.21362  0.72124  0.80951  1.0000
  H   H1106     1.0  0.19095  0.88628  0.59008  1.0000
  H   H1107     1.0  0.21839  0.70910  0.94642  1.0000
  C   C648      1.0  0.04783  0.82886  0.64371  1.0000
  C   C649      1.0  0.03851  0.81393  0.65849  1.0000
  C   C650      1.0  0.02230  0.81083  0.66517  1.0000
  C   C651      1.0  0.01519  0.82264  0.65697  1.0000
  C   C652      1.0  0.02452  0.83764  0.64254  1.0000
  C   C653      1.0  0.04075  0.84077  0.63616  1.0000
  H   H1108     1.0  0.04383  0.80465  0.66470  1.0000
  H   H1109     1.0  0.01528  0.79925  0.67624  1.0000
  H   H1110     1.0  0.01914  0.84689  0.63637  1.0000
  H   H1111     1.0  0.04776  0.85239  0.62555  1.0000
  C   C654      1.0  0.13211  0.91391  0.62782  1.0000
  C   C655      1.0  0.13549  0.90444  0.65051  1.0000
  C   C656      1.0  0.14449  0.91108  0.66693  1.0000
  C   C657      1.0  0.14999  0.92731  0.66157  1.0000
  C   C658      1.0  0.14634  0.93677  0.63926  1.0000
  C   C659      1.0  0.13756  0.93012  0.62253  1.0000
  H   H1112     1.0  0.13108  0.89202  0.65551  1.0000
  H   H1113     1.0  0.14705  0.90357  0.68422  1.0000
  H   H1114     1.0  0.16453  0.72755  0.78883  1.0000
  H   H1115     1.0  0.13500  0.93765  0.60525  1.0000
  S   S207      1.0  0.15266  0.67856  0.95281  1.0000
  H   H1116     1.0  0.09800  0.77402  0.66055  1.0000
  H   H1117     1.0  0.01028  0.82987  0.59600  1.0000
  H   H1118     1.0  0.18792  0.86394  0.57725  1.0000
  H   H1119     1.0  0.21529  0.91829  0.75376  1.0000
  C   C660      1.0  0.00855  0.67300  0.88449  1.0000
  H   H1120     1.0  0.20675  0.74946  0.50002  1.0000
  H   H1121     1.0  0.02813  0.84996  0.96385  1.0000
  C   C661      1.0  0.23052  0.97880  0.74246  1.0000
  H   H1122     1.0  0.22078  0.94744  0.68799  1.0000
  H   H1123     1.0  0.15695  0.72838  0.58748  1.0000
  H   H1124     1.0  0.14401  0.67445  0.90249  1.0000
  H   H1125     1.0  0.14754  0.87008  0.59770  1.0000
  H   H1126     1.0  0.20119  0.71034  0.62522  1.0000
  H   H1127     1.0  0.17699  0.92527  0.76449  1.0000
  H   H1128     1.0  0.16853  0.89805  0.63186  1.0000
  C   C662      1.0  0.98547  0.83113  0.81187  1.0000
  H   H1129     1.0  0.16564  0.88354  0.55600  1.0000
  H   H1130     1.0  0.05973  0.91575  0.84700  1.0000
  S   S208      1.0  0.14522  0.98322  0.76518  1.0000
  S   S209      1.0  0.00256  0.66075  0.78863  1.0000
  C   C663      1.0  0.20559  0.76344  0.55845  1.0000
  C   C664      1.0  0.20911  0.75128  0.57599  1.0000
  C   C665      1.0  0.20485  0.76279  0.53097  1.0000
  H   H1131     1.0  0.21002  0.75184  0.59696  1.0000
  S   S210      1.0  0.16188  0.93493  0.68254  1.0000
  C   C666      1.0  0.15339  0.71715  0.70288  1.0000
  C   C667      1.0  0.14960  0.70154  0.71836  1.0000
  C   C668      1.0  0.13556  0.69141  0.71977  1.0000
  C   C669      1.0  0.12517  0.69687  0.70589  1.0000
  C   C670      1.0  0.12876  0.71259  0.69110  1.0000
  C   C671      1.0  0.14286  0.72271  0.68954  1.0000
  H   H1132     1.0  0.15771  0.69715  0.72870  1.0000
  H   H1133     1.0  0.13289  0.67931  0.73115  1.0000
  H   H1134     1.0  0.12074  0.71686  0.68037  1.0000
  H   H1135     1.0  0.14567  0.73473  0.67762  1.0000
  H   H1136     1.0  0.00648  0.67311  0.84089  1.0000
  C   C672      1.0  0.18585  0.91370  0.59655  1.0000
  C   C673      1.0  0.14890  0.68047  0.64036  1.0000
  C   C674      1.0  0.20596  0.74652  0.72590  1.0000
  C   C675      1.0  0.10258  0.78352  0.64054  1.0000
  C   C676      1.0  0.14538  0.83240  0.59747  1.0000
  C   C677      1.0  0.13924  0.83215  0.62560  1.0000
  C   C678      1.0  0.14323  0.82271  0.64759  1.0000
  C   C679      1.0  0.15328  0.81339  0.64163  1.0000
  C   C680      1.0  0.15967  0.81388  0.61347  1.0000
  C   C681      1.0  0.15576  0.82341  0.59146  1.0000
  H   H1137     1.0  0.13126  0.83904  0.63046  1.0000
  H   H1138     1.0  0.13832  0.82241  0.66937  1.0000
  H   H1139     1.0  0.16744  0.80674  0.60868  1.0000
  H   H1140     1.0  0.19513  0.90872  0.60273  1.0000
  C   C682      1.0  0.21095  0.73781  0.53875  1.0000
  H   H1141     1.0  0.18156  0.73133  0.60629  1.0000
  S   S211      1.0  0.21399  0.72144  0.52744  1.0000
  H   H1142     1.0  0.14290  0.70869  0.87550  1.0000
  S   S212      1.0  0.16153  0.98021  0.68881  1.0000
  H   H1143     1.0  0.05144  0.81199  0.57732  1.0000
  H   H1144     1.0  0.12590  0.79718  0.61469  1.0000
  S   S213      1.0  0.17219  0.95737  0.73664  1.0000
  C   C683      1.0  0.17718  0.86381  0.59248  1.0000
  C   C684      1.0  0.16947  0.89355  0.56459  1.0000
  H   H1145     1.0  0.19675  0.70669  0.66277  1.0000
  Fe  Fe101     1.0  0.98651  0.84985  0.89861  1.0000
  H   H1146     1.0  0.05141  0.82295  0.52754  1.0000
  Fe  Fe102     1.0  0.19619  0.97292  0.71800  1.0000
  H   H1147     1.0  0.05444  0.88311  0.80659  1.0000
  H   H1148     1.0  0.07004  0.81537  0.55405  1.0000
  H   H1149     1.0  0.16774  0.86140  0.58219  1.0000
  H   H1150     1.0  0.17905  0.87654  0.62428  1.0000
  H   H1151     1.0  0.01516  0.90698  0.96636  1.0000
  C   C685      1.0  0.15635  0.98055  0.81329  1.0000
  H   H1152     1.0  0.04174  0.87082  0.54596  1.0000
  C   C686      1.0  0.14547  0.65925  0.79050  1.0000
  H   H1153     1.0  0.10622  0.67116  0.90139  1.0000
  H   H1154     1.0  0.01286  0.76469  0.77513  1.0000
  H   H1155     1.0  0.98456  0.71393  0.75602  1.0000
  Fe  Fe103     1.0  0.16475  0.97958  0.73272  1.0000
  H   H1156     1.0  0.20486  0.70160  0.79488  1.0000
  H   H1157     1.0  0.16140  0.74394  0.60318  1.0000
  H   H1158     1.0  0.16570  0.91713  0.55750  1.0000
  H   H1159     1.0  0.20220  0.77223  0.51727  1.0000
  S   S214      1.0  0.21678  0.96639  0.73162  1.0000
  H   H1160     1.0  0.22216  0.71434  0.77222  1.0000
  H   H1161     1.0  0.20826  0.98176  0.84738  1.0000
  N   N43       1.0  0.20925  0.92398  0.71342  1.0000
  N   N44       1.0  0.04662  0.84139  0.54655  1.0000
  C   C687      1.0  0.21162  0.73744  0.74965  1.0000
  H   H1162     1.0  0.03644  0.82888  0.59069  1.0000
  S   S215      1.0  0.19514  0.97287  0.67352  1.0000
  H   H1163     1.0  0.14831  0.90185  0.56622  1.0000
  N   N45       1.0  0.16744  0.88826  0.59612  1.0000
  H   H1164     1.0  0.20615  0.70134  0.71467  1.0000
  C   C688      1.0  0.04117  0.84752  0.52091  1.0000
  H   H1165     1.0  0.21806  0.71977  0.71281  1.0000
  H   H1166     1.0  0.06091  0.86785  0.49946  1.0000
  C   C689      1.0  0.15118  0.87845  0.60981  1.0000
  H   H1167     1.0  0.16108  0.90846  0.60637  1.0000
  H   H1168     1.0  0.21347  0.74525  0.76363  1.0000
  S   S216      1.0  0.10891  0.95567  0.96956  1.0000
  C   C690      1.0  0.19902  0.89417  0.73487  1.0000
  H   H1169     1.0  0.21489  0.72931  0.57951  1.0000
  H   H1170     1.0  0.13270  0.69105  0.91693  1.0000
  H   H1171     1.0  0.19924  0.75431  0.73375  1.0000
  H   H1172     1.0  0.02029  0.90451  0.80535  1.0000
  H   H1173     1.0  0.99950  0.74612  0.78521  1.0000
  H   H1174     1.0  0.06794  0.83818  0.52291  1.0000
  S   S217      1.0  0.13952  0.97838  0.89637  1.0000
  H   H1175     1.0  0.02167  0.88138  0.79830  1.0000
  C   C691      1.0  0.03302  0.83142  0.57044  1.0000
  H   H1176     1.0  0.23070  0.97563  0.81631  1.0000
  C   C692      1.0  0.22044  0.92540  0.73166  1.0000
  H   H1177     1.0  0.02104  0.84937  0.57965  1.0000
  C   C693      1.0  0.14003  0.69083  0.85218  1.0000
  C   C694      1.0  0.11664  0.68112  0.89279  1.0000
  H   H1178     1.0  0.16464  0.97915  0.85093  1.0000
  H   H1179     1.0  0.22104  0.81797  0.66377  1.0000
  H   H1180     1.0  0.20445  0.92633  0.65623  1.0000
  C   C695      1.0  0.12042  0.68594  0.91901  1.0000
  H   H1181     1.0  0.14649  0.72708  0.62317  1.0000
  H   H1182     1.0  0.10701  0.66451  0.82903  1.0000
  H   H1183     1.0  0.02477  0.68453  0.84271  1.0000
  C   C696      1.0  0.05389  0.85780  0.49470  1.0000
  H   H1184     1.0  0.14804  0.68727  0.83636  1.0000
  H   H1185     1.0  0.13364  0.69765  0.83995  1.0000
  H   H1186     1.0  0.11290  0.69069  0.88046  1.0000
  C   C697      1.0  0.00050  0.75854  0.78425  1.0000
  H   H1187     1.0  0.03600  0.67018  0.88689  1.0000
  H   H1188     1.0  0.99511  0.84052  0.79865  1.0000
  H   H1189     1.0  0.04722  0.66792  0.84369  1.0000
  H   H1190     1.0  0.99426  0.76335  0.76918  1.0000
  C   C698      1.0  0.99500  0.76145  0.81349  1.0000
  H   H1191     1.0  0.18632  0.89196  0.74258  1.0000
  C   C699      1.0  0.16393  0.66553  0.81809  1.0000
  H   H1192     1.0  0.15817  0.71158  0.84511  1.0000
  H   H1193     1.0  0.15712  0.69729  0.87607  1.0000
  H   H1194     1.0  0.11425  0.69480  0.92356  1.0000
  H   H1195     1.0  0.19631  0.94099  0.72015  1.0000
  N   N46       1.0  0.12914  0.67669  0.87376  1.0000
  N   N47       1.0  0.09540  0.79685  0.64300  1.0000
  C   C700      1.0  0.09939  0.80232  0.66771  1.0000
  C   C701      1.0  0.07805  0.79140  0.64967  1.0000
  C   C702      1.0  0.10157  0.81038  0.61697  1.0000
  C   C703      1.0  0.09191  0.81500  0.67606  1.0000
  C   C704      1.0  0.07130  0.78001  0.63385  1.0000
  C   C705      1.0  0.10101  0.80714  0.58812  1.0000
  H   H1196     1.0  0.09622  0.79240  0.68700  1.0000
  H   H1197     1.0  0.11200  0.80718  0.66343  1.0000
  H   H1198     1.0  0.07308  0.78542  0.67263  1.0000
  H   H1199     1.0  0.07289  0.80144  0.64564  1.0000
  H   H1200     1.0  0.09520  0.81944  0.61876  1.0000
  H   H1201     1.0  0.11358  0.81656  0.61523  1.0000
  H   H1202     1.0  0.09581  0.82596  0.65899  1.0000
  H   H1203     1.0  0.07914  0.81121  0.68228  1.0000
  H   H1204     1.0  0.09552  0.81773  0.69470  1.0000
  H   H1205     1.0  0.12454  0.79001  0.65212  1.0000
  H   H1206     1.0  0.07586  0.78420  0.61064  1.0000
  H   H1207     1.0  0.05862  0.77850  0.63848  1.0000
  H   H1208     1.0  0.07317  0.76835  0.64145  1.0000
  H   H1209     1.0  0.09005  0.80848  0.58301  1.0000
  H   H1210     1.0  0.10277  0.79574  0.58632  1.0000
  H   H1211     1.0  0.11070  0.81569  0.57141  1.0000
  N   N48       1.0  0.16878  0.70724  0.62396  1.0000
  C   C706      1.0  0.17634  0.70195  0.64713  1.0000
  C   C707      1.0  0.15207  0.69828  0.63371  1.0000
  C   C708      1.0  0.17007  0.72441  0.61997  1.0000
  C   C709      1.0  0.17717  0.70409  0.59739  1.0000
  H   H1212     1.0  0.22350  0.73684  0.74006  1.0000
  C   C710      1.0  0.17117  0.70810  0.57089  1.0000
  H   H1213     1.0  0.16935  0.70210  0.66800  1.0000
  H   H1214     1.0  0.17699  0.68972  0.64921  1.0000
  H   H1215     1.0  0.14553  0.70175  0.61818  1.0000
  H   H1216     1.0  0.14634  0.70101  0.65322  1.0000
  H   H1217     1.0  0.16919  0.72745  0.64058  1.0000
  H   H1218     1.0  0.15117  0.87644  0.65485  1.0000
  H   H1219     1.0  0.18939  0.71086  0.59080  1.0000
  H   H1220     1.0  0.17816  0.69190  0.60101  1.0000
  H   H1221     1.0  0.22358  0.93750  0.73356  1.0000
  C   C711      1.0  0.03597  0.92226  0.96893  1.0000
  C   C712      1.0  0.20546  0.90808  0.70845  1.0000
  C   C713      1.0  0.14374  0.98125  0.80181  1.0000
  H   H1222     1.0  0.17592  0.72058  0.55949  1.0000
  H   H1223     1.0  0.15848  0.70499  0.57539  1.0000
  Fe  Fe104     1.0  0.11858  0.97668  0.93203  1.0000
  Fe  Fe105     1.0  0.17048  0.95874  0.69168  1.0000
  H   H1224     1.0  0.15041  0.94924  0.63466  1.0000
  H   H1225     1.0  0.06142  0.85107  0.48546  1.0000
  H   H1226     1.0  0.19366  0.72381  0.64271  1.0000
  H   H1227     1.0  0.03273  0.85438  0.52541  1.0000
  C   C714      1.0  0.04913  0.86782  0.56000  1.0000
  S   S218      1.0  0.99115  0.84378  0.85561  1.0000
  H   H1228     1.0  0.02633  0.66813  0.93410  1.0000
  H   H1229     1.0  0.18184  0.89850  0.55314  1.0000
  H   H1230     1.0  0.16806  0.71431  0.76828  1.0000
  C   C715      1.0  0.19723  0.71109  0.74863  1.0000
  C   C716      1.0  0.16996  0.90193  0.60867  1.0000
  H   H1231     1.0  0.14285  0.88578  0.60948  1.0000
  H   H1232     1.0  0.18566  0.92379  0.60569  1.0000
  H   H1233     1.0  0.18873  0.91826  0.57325  1.0000
  H   H1234     1.0  0.15400  0.85962  0.64274  1.0000
  H   H1235     1.0  0.04814  0.89986  0.79507  1.0000
  H   H1236     1.0  0.19924  0.73921  0.71549  1.0000
  C   C717      1.0  0.14803  0.86907  0.64089  1.0000
  H   H1237     1.0  0.18960  0.71515  0.73582  1.0000
  C   C718      1.0  0.19469  0.92819  0.72610  1.0000
  H   H1238     1.0  0.00323  0.75865  0.82612  1.0000
  H   H1239     1.0  0.04123  0.85817  0.84281  1.0000
  H   H1240     1.0  0.07429  0.90552  0.84768  1.0000
  C   C719      1.0  0.21183  0.73853  0.56611  1.0000
  C   C720      1.0  0.17907  0.87918  0.60147  1.0000
  H   H1241     1.0  0.20171  0.88367  0.72930  1.0000
  H   H1242     1.0  0.02893  0.81991  0.56648  1.0000
  C   C721      1.0  0.18715  0.72308  0.78606  1.0000
  H   H1243     1.0  0.22332  0.75106  0.88739  1.0000
  H   H1244     1.0  0.00770  0.89029  0.83708  1.0000
  S   S219      1.0  0.06216  0.94133  0.97484  1.0000
  H   H1245     1.0  0.02369  0.84816  0.86952  1.0000
  H   H1246     1.0  0.03983  0.87598  0.96688  1.0000
  H   H1247     1.0  0.03950  0.85869  0.87926  1.0000
  H   H1248     1.0  0.17498  0.70114  0.55633  1.0000
  C   C722      1.0  0.05692  0.83115  0.53842  1.0000
  H   H1249     1.0  0.09845  0.85030  0.48774  1.0000
  H   H1250     1.0  0.03813  0.88042  0.77333  1.0000
  H   H1251     1.0  0.03477  0.83770  0.51440  1.0000
  S   S220      1.0  0.09617  0.88014  0.50107  1.0000
  H   H1252     1.0  0.11699  0.97923  0.86240  1.0000
  H   H1253     1.0  0.06747  0.90919  0.81644  1.0000
  C   C723      1.0  0.15694  0.67008  0.79623  1.0000
  H   H1254     1.0  0.05844  0.84924  0.57625  1.0000
  H   H1255     1.0  0.99896  0.73214  0.83221  1.0000
  Fe  Fe106     1.0  0.10228  0.65924  0.73112  1.0000
  H   H1256     1.0  0.13550  0.86348  0.64923  1.0000
  H   H1257     1.0  0.12237  0.68163  0.81683  1.0000
  H   H1258     1.0  0.98339  0.71530  0.84833  1.0000
  C   C724      1.0  0.01857  0.83766  0.57626  1.0000
  C   C725      1.0  0.20696  0.93698  0.66359  1.0000
  C   C726      1.0  0.14063  0.97915  0.86022  1.0000
  H   H1259     1.0  0.16730  0.98086  0.79976  1.0000
  H   H1260     1.0  0.14012  0.66285  0.77371  1.0000
  C   C727      1.0  0.18861  0.92317  0.75863  1.0000
  H   H1261     1.0  0.19656  0.90722  0.69630  1.0000
  H   H1262     1.0  0.16030  0.68203  0.78379  1.0000
  N   N49       1.0  0.03819  0.88813  0.83961  1.0000
  C   C728      1.0  0.05163  0.89056  0.85276  1.0000
  C   C729      1.0  0.02681  0.87321  0.85746  1.0000
  C   C730      1.0  0.03076  0.90137  0.84122  1.0000
  C   C731      1.0  0.04408  0.88784  0.80923  1.0000
  C   C732      1.0  0.06386  0.90621  0.83989  1.0000
  C   C733      1.0  0.03335  0.85882  0.86228  1.0000
  C   C734      1.0  0.01672  0.90136  0.82882  1.0000
  C   C735      1.0  0.03281  0.87829  0.79632  1.0000
  H   H1263     1.0  0.04753  0.88942  0.87585  1.0000
  H   H1264     1.0  0.05798  0.88145  0.85115  1.0000
  H   H1265     1.0  0.01683  0.87027  0.84853  1.0000
  H   H1266     1.0  0.02171  0.87448  0.87878  1.0000
  H   H1267     1.0  0.02714  0.90187  0.86364  1.0000
  H   H1268     1.0  0.03904  0.91272  0.82966  1.0000
  C   C736      1.0  0.21082  0.70866  0.72766  1.0000
  H   H1269     1.0  0.22095  0.71508  0.82041  1.0000
  H   H1270     1.0  0.05872  0.87845  0.55470  1.0000
  H   H1271     1.0  0.04266  0.86575  0.58235  1.0000
  H   H1272     1.0  0.18504  0.92352  0.71734  1.0000
  S   S221      1.0  0.98807  0.87509  0.89618  1.0000
  H   H1273     1.0  0.19603  0.93982  0.67202  1.0000
  H   H1274     1.0  0.18741  0.91074  0.76787  1.0000
  H   H1275     1.0  0.22284  0.96967  0.86907  1.0000
  H   H1276     1.0  0.20281  0.71966  0.82582  1.0000
  H   H1277     1.0  0.05556  0.65577  0.77086  1.0000
  H   H1278     1.0  0.15274  0.67556  0.65918  1.0000
  C   C737      1.0  0.11380  0.67378  0.83614  1.0000
  H   H1279     1.0  0.13624  0.67543  0.64582  1.0000
  H   H1280     1.0  0.22743  0.93284  0.67417  1.0000
  H   H1281     1.0  0.21547  0.90593  0.69441  1.0000
  H   H1282     1.0  0.11977  0.98140  0.81106  1.0000
  H   H1283     1.0  0.03492  0.66878  0.76271  1.0000
  C   C738      1.0  0.22866  0.81958  0.67739  1.0000
  C   C739      1.0  0.21064  0.71411  0.78511  1.0000
  H   H1284     1.0  0.21482  0.98801  0.89072  1.0000
  H   H1285     1.0  0.21987  0.73368  0.80184  1.0000
  H   H1286     1.0  0.01254  0.83749  0.55919  1.0000
  H   H1287     1.0  0.06683  0.82829  0.57556  1.0000
  H   H1288     1.0  0.15409  0.67658  0.62193  1.0000
  H   H1289     1.0  0.20440  0.89538  0.75239  1.0000
  H   H1290     1.0  0.18988  0.73296  0.79558  1.0000
  H   H1291     1.0  0.06770  0.85904  0.54108  1.0000
  C   C740      1.0  0.01219  0.68060  0.85248  1.0000
  H   H1292     1.0  0.99667  0.77423  0.80938  1.0000
  H   H1293     1.0  0.11592  0.67600  0.93823  1.0000
  S   S222      1.0  0.22503  0.78786  0.68998  1.0000
  H   H1294     1.0  0.99609  0.67182  0.89357  1.0000
  Fe  Fe107     1.0  0.08546  0.95956  0.96770  1.0000
  H   H1295     1.0  0.21344  0.94662  0.64461  1.0000
  H   H1296     1.0  0.21797  0.70238  0.73870  1.0000
  C   C741      1.0  0.15481  0.97961  0.84229  1.0000
  H   H1297     1.0  0.22980  0.79381  0.50412  1.0000
  H   H1298     1.0  0.10573  0.68005  0.84535  1.0000
  H   H1299     1.0  0.22793  0.67482  0.95506  1.0000
  C   C742      1.0  0.98707  0.72797  0.84613  1.0000
  C   C743      1.0  0.13818  0.66777  0.88995  1.0000
  H   H1300     1.0  0.14777  0.66556  0.87499  1.0000
  C   C744      1.0  0.03205  0.65769  0.77822  1.0000
  H   H1301     1.0  0.22909  0.66818  0.91153  1.0000
  H   H1302     1.0  0.01073  0.65744  0.96428  1.0000
  H   H1303     1.0  0.98469  0.75303  0.86938  1.0000
  H   H1304     1.0  0.22928  0.72578  0.97466  1.0000
  H   H1305     1.0  0.98708  0.72946  0.86753  1.0000
  H   H1306     1.0  0.13042  0.66136  0.84602  1.0000
  Fe  Fe108     1.0  0.22508  0.72508  0.48090  1.0000
  C   C745      1.0  0.01364  0.66358  0.94141  1.0000
  H   H1307     1.0  0.02884  0.66115  0.83832  1.0000
  C   C746      1.0  0.23033  0.71564  0.93918  1.0000
  N   N50       1.0  0.01235  0.65763  0.89323  1.0000
  C   C747      1.0  0.02946  0.65926  0.88379  1.0000
  H   H1308     1.0  0.11284  0.65606  0.87254  1.0000
  S   S223      1.0  0.17055  0.65579  0.90465  1.0000
  Fe  Fe109     1.0  0.38328  0.21562  0.24977  1.0000
  S   S224      1.0  0.37105  0.20732  0.29611  1.0000
  S   S225      1.0  0.37909  0.23777  0.22618  1.0000
  Fe  Fe110     1.0  0.39860  0.18915  0.25249  1.0000
  S   S226      1.0  0.38764  0.17926  0.29899  1.0000
  S   S227      1.0  0.41513  0.17628  0.23434  1.0000
  Fe  Fe111     1.0  0.36589  0.18358  0.28831  1.0000
  S   S228      1.0  0.34352  0.16442  0.30892  1.0000
  Fe  Fe112     1.0  0.39397  0.20390  0.30205  1.0000
  S   S229      1.0  0.40326  0.21045  0.33829  1.0000
  S   S230      1.0  0.37660  0.19211  0.24145  1.0000
  S   S231      1.0  0.40641  0.21354  0.25618  1.0000
  H   H1309     1.0  0.31676  0.13857  0.32820  1.0000
  S   S232      1.0  0.46904  0.25055  0.33912  1.0000
  Fe  Fe113     1.0  0.40381  0.11574  0.14675  1.0000
  S   S233      1.0  0.39294  0.09191  0.17585  1.0000
  S   S234      1.0  0.39410  0.13603  0.15338  1.0000
  Fe  Fe114     1.0  0.42572  0.10442  0.10681  1.0000
  S   S235      1.0  0.41641  0.07964  0.13234  1.0000
  S   S236      1.0  0.44608  0.10872  0.06927  1.0000
  Fe  Fe115     1.0  0.39302  0.08402  0.13625  1.0000
  S   S237      1.0  0.37170  0.06512  0.14097  1.0000
  Fe  Fe116     1.0  0.41700  0.08913  0.16994  1.0000
  S   S238      1.0  0.42423  0.07362  0.20348  1.0000
  S   S239      1.0  0.40213  0.10812  0.10714  1.0000
  S   S240      1.0  0.42812  0.11377  0.14427  1.0000
  H   H1310     1.0  0.43942  0.99961  0.31866  1.0000
  S   S241      1.0  0.26024  0.10014  0.30146  1.0000
  S   S242      1.0  0.43672  0.29218  0.15272  1.0000
  H   H1311     1.0  0.31697  0.15387  0.35977  1.0000
  H   H1312     1.0  0.44205  0.01529  0.25468  1.0000
  C   C748      1.0  0.43987  0.13054  0.98119  1.0000
  H   H1313     1.0  0.24797  0.02258  0.07506  1.0000
  H   H1314     1.0  0.35008  0.08916  0.02330  1.0000
  C   C749      1.0  0.28023  0.14568  0.35885  1.0000
  Fe  Fe117     1.0  0.28176  0.29864  0.10055  1.0000
  S   S243      1.0  0.30286  0.29187  0.08109  1.0000
  S   S244      1.0  0.26121  0.27966  0.13004  1.0000
  S   S245      1.0  0.47279  0.27786  0.39198  1.0000
  C   C750      1.0  0.39193  0.25640  0.13193  1.0000
  H   H1315     1.0  0.35381  0.30904  0.15749  1.0000
  H   H1316     1.0  0.43456  0.30056  0.05218  1.0000
  H   H1317     1.0  0.23387  0.26825  0.05902  1.0000
  C   C751      1.0  0.24803  0.01247  0.09085  1.0000
  H   H1318     1.0  0.46587  0.09444  0.16890  1.0000
  Fe  Fe118     1.0  0.33434  0.01733  0.05068  1.0000
  S   S246      1.0  0.31468  0.00816  0.08987  1.0000
  S   S247      1.0  0.35594  0.03660  0.04223  1.0000
  C   C752      1.0  0.46199  0.08521  0.13400  1.0000
  C   C753      1.0  0.47409  0.14695  0.01032  1.0000
  Fe  Fe119     1.0  0.29940  0.00941  0.06018  1.0000
  S   S248      1.0  0.27914  0.02003  0.06717  1.0000
  H   H1319     1.0  0.29770  0.12250  0.45540  1.0000
  C   C754      1.0  0.45275  0.01203  0.25456  1.0000
  S   S249      1.0  0.31905  0.02062  0.02124  1.0000
  H   H1320     1.0  0.43968  0.04633  0.15579  1.0000
  Fe  Fe120     1.0  0.26666  0.12478  0.27457  1.0000
  S   S250      1.0  0.25250  0.13350  0.30696  1.0000
  S   S251      1.0  0.29105  0.13949  0.25065  1.0000
  H   H1321     1.0  0.29566  0.12924  0.30702  1.0000
  S   S252      1.0  0.24792  0.11977  0.25184  1.0000
  C   C755      1.0  0.24783  0.26827  0.11699  1.0000
  H   H1322     1.0  0.30742  0.06044  0.00744  1.0000
  H   H1323     1.0  0.28465  0.16743  0.39244  1.0000
  H   H1324     1.0  0.42539  0.29710  0.27413  1.0000
  H   H1325     1.0  0.45151  0.07655  0.14835  1.0000
  H   H1326     1.0  0.27800  0.03962  0.15887  1.0000
  H   H1327     1.0  0.25921  0.01642  0.17250  1.0000
  C   C756      1.0  0.43225  0.29466  0.25518  1.0000
  H   H1328     1.0  0.25367  0.28414  0.07571  1.0000
  C   C757      1.0  0.42220  0.02377  0.16951  1.0000
  C   C758      1.0  0.46795  0.99351  0.25038  1.0000
  N   N51       1.0  0.29685  0.14938  0.39443  1.0000
  C   C759      1.0  0.47879  0.01795  0.26107  1.0000
  H   H1329     1.0  0.38624  0.26912  0.09596  1.0000
  C   C760      1.0  0.45722  0.10445  0.22015  1.0000
  H   H1330     1.0  0.25984  0.17086  0.17631  1.0000
  C   C761      1.0  0.23543  0.04099  0.12786  1.0000
  H   H1331     1.0  0.39629  0.02775  0.15491  1.0000
  C   C762      1.0  0.44205  0.27520  0.23542  1.0000
  H   H1332     1.0  0.39459  0.22000  0.45918  1.0000
  H   H1333     1.0  0.39719  0.24744  0.27427  1.0000
  H   H1334     1.0  0.23692  0.17926  0.16807  1.0000
  H   H1335     1.0  0.24638  0.05406  0.15203  1.0000
  H   H1336     1.0  0.24823  0.22546  0.17615  1.0000
  H   H1337     1.0  0.37144  0.25295  0.11679  1.0000
  C   C763      1.0  0.45422  0.12806  0.04927  1.0000
  C   C764      1.0  0.46773  0.13167  0.02739  1.0000
  H   H1338     1.0  0.38612  0.24679  0.15131  1.0000
  C   C765      1.0  0.26188  0.99514  0.11172  1.0000
  C   C766      1.0  0.45358  0.15507  0.03732  1.0000
  C   C767      1.0  0.44725  0.13982  0.05442  1.0000
  H   H1339     1.0  0.23906  0.99614  0.19283  1.0000
  H   H1340     1.0  0.44801  0.16410  0.04117  1.0000
  H   H1341     1.0  0.43685  0.13714  0.07132  1.0000
  C   C768      1.0  0.36850  0.05652  0.11359  1.0000
  C   C769      1.0  0.37770  0.06262  0.08584  1.0000
  C   C770      1.0  0.37411  0.05600  0.06426  1.0000
  C   C771      1.0  0.36133  0.04326  0.07033  1.0000
  C   C772      1.0  0.35252  0.03680  0.09829  1.0000
  C   C773      1.0  0.35601  0.04351  0.11978  1.0000
  H   H1342     1.0  0.38736  0.07263  0.08092  1.0000
  H   H1343     1.0  0.38102  0.06099  0.04268  1.0000
  H   H1344     1.0  0.34279  0.02687  0.10328  1.0000
  H   H1345     1.0  0.34892  0.03869  0.14128  1.0000
  C   C774      1.0  0.44650  0.27587  0.07790  1.0000
  S   S253      1.0  0.47010  0.24065  0.42057  1.0000
  C   C775      1.0  0.46506  0.02223  0.25969  1.0000
  H   H1346     1.0  0.38118  0.03085  0.18055  1.0000
  H   H1347     1.0  0.46374  0.03318  0.26358  1.0000
  H   H1348     1.0  0.27689  0.03587  0.12518  1.0000
  H   H1349     1.0  0.44139  0.10772  0.00418  1.0000
  C   C776      1.0  0.44386  0.09781  0.21297  1.0000
  C   C777      1.0  0.44016  0.08199  0.21441  1.0000
  C   C778      1.0  0.44963  0.07277  0.22363  1.0000
  C   C779      1.0  0.46312  0.07947  0.23036  1.0000
  H   H1350     1.0  0.43647  0.10491  0.20622  1.0000
  H   H1351     1.0  0.44680  0.06052  0.22489  1.0000
  H   H1352     1.0  0.45862  0.12630  0.16807  1.0000
  H   H1353     1.0  0.44595  0.13561  0.99548  1.0000
  C   C780      1.0  0.26189  0.00827  0.09135  1.0000
  H   H1354     1.0  0.40634  0.27522  0.27265  1.0000
  C   C781      1.0  0.42160  0.22179  0.33784  1.0000
  C   C782      1.0  0.43359  0.22793  0.31307  1.0000
  C   C783      1.0  0.44807  0.23649  0.31395  1.0000
  C   C784      1.0  0.45069  0.23927  0.33945  1.0000
  C   C785      1.0  0.43868  0.23314  0.36417  1.0000
  C   C786      1.0  0.42428  0.22442  0.36336  1.0000
  H   H1355     1.0  0.43171  0.22603  0.29331  1.0000
  H   H1356     1.0  0.45730  0.24112  0.29473  1.0000
  H   H1357     1.0  0.44049  0.23516  0.38395  1.0000
  H   H1358     1.0  0.41512  0.21973  0.38267  1.0000
  C   C787      1.0  0.40950  0.16532  0.21136  1.0000
  C   C788      1.0  0.41579  0.15279  0.20807  1.0000
  C   C789      1.0  0.41130  0.14377  0.19012  1.0000
  C   C790      1.0  0.40066  0.14741  0.17506  1.0000
  C   C791      1.0  0.39460  0.16011  0.17798  1.0000
  C   C792      1.0  0.39892  0.16899  0.19619  1.0000
  H   H1359     1.0  0.42405  0.14995  0.21964  1.0000
  H   H1360     1.0  0.41602  0.13399  0.18800  1.0000
  H   H1361     1.0  0.38645  0.16306  0.16620  1.0000
  H   H1362     1.0  0.39420  0.17876  0.19822  1.0000
  C   C793      1.0  0.39551  0.25285  0.20756  1.0000
  C   C794      1.0  0.40940  0.24969  0.19610  1.0000
  C   C795      1.0  0.42203  0.26189  0.17940  1.0000
  C   C796      1.0  0.42088  0.27727  0.17449  1.0000
  C   C797      1.0  0.40719  0.28048  0.18679  1.0000
  C   C798      1.0  0.39445  0.26826  0.20304  1.0000
  H   H1363     1.0  0.41025  0.23782  0.19933  1.0000
  H   H1364     1.0  0.43266  0.25937  0.17002  1.0000
  H   H1365     1.0  0.40630  0.29234  0.18334  1.0000
  H   H1366     1.0  0.38374  0.27074  0.21210  1.0000
  C   C799      1.0  0.32893  0.15800  0.29228  1.0000
  C   C800      1.0  0.32913  0.16550  0.26468  1.0000
  C   C801      1.0  0.31733  0.15988  0.25236  1.0000
  C   C802      1.0  0.30506  0.14689  0.26762  1.0000
  C   C803      1.0  0.30485  0.13943  0.29523  1.0000
  C   C804      1.0  0.31681  0.14483  0.30728  1.0000
  H   H1367     1.0  0.33839  0.17559  0.25276  1.0000
  H   H1368     1.0  0.31770  0.16564  0.23088  1.0000
  H   H1369     1.0  0.39410  0.04674  0.15252  1.0000
  H   H1370     1.0  0.23391  0.03091  0.21775  1.0000
  H   H1371     1.0  0.27290  0.15304  0.36636  1.0000
  Fe  Fe121     1.0  0.24013  0.09562  0.28152  1.0000
  H   H1372     1.0  0.38819  0.28352  0.15425  1.0000
  H   H1373     1.0  0.26490  0.18588  0.19299  1.0000
  C   C805      1.0  0.41456  0.26946  0.26193  1.0000
  C   C806      1.0  0.30356  0.13974  0.41476  1.0000
  H   H1374     1.0  0.41120  0.21376  0.46548  1.0000
  C   C807      1.0  0.28759  0.13834  0.38172  1.0000
  H   H1375     1.0  0.43288  0.25930  0.29448  1.0000
  H   H1376     1.0  0.27480  0.14999  0.41882  1.0000
  H   H1377     1.0  0.42519  0.04507  0.13602  1.0000
  H   H1378     1.0  0.33685  0.06075  0.08339  1.0000
  H   H1379     1.0  0.45370  0.28320  0.23067  1.0000
  C   C808      1.0  0.28642  0.15793  0.40855  1.0000
  H   H1380     1.0  0.31108  0.14692  0.42433  1.0000
  H   H1381     1.0  0.25167  0.02578  0.21094  1.0000
  H   H1382     1.0  0.34169  0.08877  0.06895  1.0000
  H   H1383     1.0  0.27608  0.21204  0.17251  1.0000
  C   C809      1.0  0.23520  0.26415  0.08007  1.0000
  H   H1384     1.0  0.46162  0.28885  0.09650  1.0000
  H   H1385     1.0  0.44538  0.32037  0.04652  1.0000
  C   C810      1.0  0.41462  0.03279  0.24261  1.0000
  Fe  Fe122     1.0  0.46732  0.26173  0.43560  1.0000
  N   N52       1.0  0.41232  0.02639  0.19530  1.0000
  H   H1386     1.0  0.29474  0.13125  0.37227  1.0000
  H   H1387     1.0  0.26340  0.27934  0.02620  1.0000
  H   H1388     1.0  0.25599  0.05078  0.21971  1.0000
  H   H1389     1.0  0.47059  0.07239  0.23681  1.0000
  H   H1390     1.0  0.41241  0.05033  0.17730  1.0000
  C   C811      1.0  0.46544  0.09906  0.14682  1.0000
  N   N53       1.0  0.32162  0.06408  0.05567  1.0000
  C   C812      1.0  0.30683  0.05452  0.05279  1.0000
  C   C813      1.0  0.32626  0.05438  0.07927  1.0000
  C   C814      1.0  0.33371  0.06697  0.02831  1.0000
  C   C815      1.0  0.31902  0.07912  0.06127  1.0000
  Fe  Fe123     1.0  0.31626  0.31067  0.09590  1.0000
  C   C816      1.0  0.31396  0.04802  0.10788  1.0000
  H   H1391     1.0  0.45668  0.29572  0.01947  1.0000
  C   C817      1.0  0.32922  0.08693  0.07804  1.0000
  H   H1392     1.0  0.30813  0.04289  0.05080  1.0000
  H   H1393     1.0  0.29728  0.05226  0.07211  1.0000
  H   H1394     1.0  0.27257  0.99198  0.11249  1.0000
  H   H1395     1.0  0.32926  0.04412  0.07308  1.0000
  H   H1396     1.0  0.33501  0.05573  0.02397  1.0000
  H   H1397     1.0  0.28129  0.31279  0.00147  1.0000
  H   H1398     1.0  0.32051  0.08785  0.04097  1.0000
  H   H1399     1.0  0.30691  0.07749  0.07335  1.0000
  H   H1400     1.0  0.46091  0.17658  0.34472  1.0000
  H   H1401     1.0  0.41478  0.29731  0.23085  1.0000
  H   H1402     1.0  0.44616  0.99106  0.34756  1.0000
  H   H1403     1.0  0.30795  0.05676  0.11349  1.0000
  H   H1404     1.0  0.25264  0.10326  0.47473  1.0000
  H   H1405     1.0  0.31959  0.04424  0.12490  1.0000
  Fe  Fe124     1.0  0.47683  0.25703  0.37697  1.0000
  C   C818      1.0  0.34988  0.07672  0.02615  1.0000
  H   H1406     1.0  0.32625  0.08026  0.10054  1.0000
  H   H1407     1.0  0.44427  0.17926  0.36813  1.0000
  H   H1408     1.0  0.32716  0.09853  0.07799  1.0000
  N   N54       1.0  0.46688  0.30185  0.05265  1.0000
  H   H1409     1.0  0.34952  0.26291  0.20356  1.0000
  H   H1410     1.0  0.46047  0.18112  0.28238  1.0000
  C   C819      1.0  0.35223  0.31764  0.11489  1.0000
  C   C820      1.0  0.43282  0.11315  0.99601  1.0000
  C   C821      1.0  0.25305  0.21555  0.17255  1.0000
  C   C822      1.0  0.24662  0.18806  0.17031  1.0000
  H   H1411     1.0  0.28261  0.27871  0.02689  1.0000
  C   C823      1.0  0.43484  0.27204  0.28791  1.0000
  H   H1412     1.0  0.43498  0.27245  0.09323  1.0000
  N   N55       1.0  0.43931  0.18112  0.31152  1.0000
  C   C824      1.0  0.44975  0.17279  0.29674  1.0000
  C   C825      1.0  0.44884  0.19231  0.32347  1.0000
  C   C826      1.0  0.43212  0.19009  0.29132  1.0000
  C   C827      1.0  0.42659  0.16922  0.33444  1.0000
  H   H1413     1.0  0.43508  0.25197  0.22899  1.0000
  C   C828      1.0  0.45413  0.18495  0.34930  1.0000
  C   C829      1.0  0.44355  0.20206  0.26509  1.0000
  C   C830      1.0  0.41523  0.17561  0.35331  1.0000
  H   H1414     1.0  0.28642  0.11706  0.43233  1.0000
  C   C831      1.0  0.23459  0.23293  0.02189  1.0000
  H   H1415     1.0  0.44270  0.20093  0.32949  1.0000
  H   H1416     1.0  0.45948  0.19949  0.30710  1.0000
  H   H1417     1.0  0.42397  0.18214  0.28384  1.0000
  H   H1418     1.0  0.24600  0.03981  0.11402  1.0000
  H   H1419     1.0  0.45138  0.15685  0.27010  1.0000
  H   H1420     1.0  0.43243  0.15333  0.29200  1.0000
  H   H1421     1.0  0.40784  0.04158  0.24116  1.0000
  C   C832      1.0  0.44272  0.16265  0.27911  1.0000
  S   S254      1.0  0.33336  0.30588  0.12182  1.0000
  H   H1422     1.0  0.30363  0.16704  0.43141  1.0000
  C   C833      1.0  0.25512  0.17859  0.18823  1.0000
  C   C834      1.0  0.24497  0.03339  0.20136  1.0000
  C   C835      1.0  0.46689  0.15866  0.01504  1.0000
  H   H1423     1.0  0.27783  0.12987  0.39833  1.0000
  H   H1424     1.0  0.45096  0.19665  0.25192  1.0000
  H   H1425     1.0  0.30055  0.07379  0.02622  1.0000
  H   H1426     1.0  0.42055  0.18677  0.35689  1.0000
  H   H1427     1.0  0.43843  0.27865  0.21562  1.0000
  H   H1428     1.0  0.43997  0.31392  0.01791  1.0000
  H   H1429     1.0  0.45669  0.99362  0.31118  1.0000
  S   S255      1.0  0.28255  0.31631  0.06093  1.0000
  S   S256      1.0  0.29497  0.31619  0.11831  1.0000
  H   H1430     1.0  0.24074  0.21654  0.12458  1.0000
  H   H1431     1.0  0.41278  0.27050  0.24039  1.0000
  C   C836      1.0  0.46836  0.13262  0.14935  1.0000
  C   C837      1.0  0.28505  0.30962  0.98204  1.0000
  H   H1432     1.0  0.42484  0.19655  0.30230  1.0000
  N   N56       1.0  0.35319  0.12872  0.24217  1.0000
  C   C838      1.0  0.36311  0.14219  0.24859  1.0000
  C   C839      1.0  0.35419  0.13289  0.21088  1.0000
  C   C840      1.0  0.35857  0.11418  0.24959  1.0000
  C   C841      1.0  0.33692  0.12575  0.25962  1.0000
  C   C842      1.0  0.36569  0.13934  0.27858  1.0000
  C   C843      1.0  0.34583  0.14526  0.20076  1.0000
  C   C844      1.0  0.37544  0.11539  0.23481  1.0000
  C   C845      1.0  0.32477  0.11275  0.25506  1.0000
  H   H1433     1.0  0.37468  0.14620  0.23343  1.0000
  H   H1434     1.0  0.35812  0.15241  0.24573  1.0000
  H   H1435     1.0  0.34989  0.12251  0.20364  1.0000
  H   H1436     1.0  0.36641  0.13735  0.19833  1.0000
  H   H1437     1.0  0.35693  0.11008  0.27286  1.0000
  H   H1438     1.0  0.35138  0.10449  0.24399  1.0000
  H   H1439     1.0  0.33630  0.12251  0.28261  1.0000
  H   H1440     1.0  0.33285  0.13649  0.25677  1.0000
  H   H1441     1.0  0.37293  0.15023  0.28039  1.0000
  H   H1442     1.0  0.35478  0.13648  0.29530  1.0000
  H   H1443     1.0  0.37202  0.13032  0.28276  1.0000
  H   H1444     1.0  0.34982  0.15617  0.20657  1.0000
  H   H1445     1.0  0.34838  0.14817  0.17729  1.0000
  H   H1446     1.0  0.33313  0.14093  0.20902  1.0000
  H   H1447     1.0  0.37721  0.11727  0.21161  1.0000
  H   H1448     1.0  0.37828  0.10426  0.24272  1.0000
  H   H1449     1.0  0.38376  0.12463  0.23918  1.0000
  H   H1450     1.0  0.32351  0.10148  0.27027  1.0000
  H   H1451     1.0  0.32734  0.11126  0.23338  1.0000
  H   H1452     1.0  0.31347  0.11573  0.25832  1.0000
  C   C846      1.0  0.30980  0.16043  0.37064  1.0000
  C   C847      1.0  0.32091  0.17288  0.37846  1.0000
  C   C848      1.0  0.23418  0.00353  0.11049  1.0000
  H   H1453     1.0  0.30530  0.16704  0.35425  1.0000
  H   H1454     1.0  0.33021  0.17947  0.35908  1.0000
  H   H1455     1.0  0.32670  0.16790  0.39420  1.0000
  H   H1456     1.0  0.31507  0.18143  0.38555  1.0000
  H   H1457     1.0  0.40671  0.25035  0.30115  1.0000
  C   C849      1.0  0.27051  0.03860  0.14415  1.0000
  S   S257      1.0  0.33569  0.99379  0.04533  1.0000
  C   C850      1.0  0.40415  0.03877  0.18719  1.0000
  C   C851      1.0  0.39334  0.03568  0.16784  1.0000
  H   H1458     1.0  0.39684  0.04054  0.20631  1.0000
  Fe  Fe125     1.0  0.24528  0.10881  0.33341  1.0000
  C   C852      1.0  0.40858  0.25209  0.27791  1.0000
  C   C853      1.0  0.24600  0.13250  0.42804  1.0000
  C   C854      1.0  0.25330  0.05023  0.19919  1.0000
  C   C855      1.0  0.24493  0.12546  0.40564  1.0000
  H   H1459     1.0  0.42803  0.10673  0.98195  1.0000
  C   C856      1.0  0.24888  0.12466  0.45316  1.0000
  H   H1460     1.0  0.24475  0.14421  0.42575  1.0000
  C   C857      1.0  0.47883  0.29350  0.04346  1.0000
  Fe  Fe126     1.0  0.43464  0.31690  0.14476  1.0000
  H   H1461     1.0  0.37325  0.28284  0.07338  1.0000
  H   H1462     1.0  0.26407  0.20915  0.20772  1.0000
  H   H1463     1.0  0.25445  0.19304  0.14862  1.0000
  H   H1464     1.0  0.35802  0.07593  0.00703  1.0000
  H   H1465     1.0  0.26429  0.05456  0.18257  1.0000
  H   H1466     1.0  0.43060  0.04319  0.20202  1.0000
  H   H1467     1.0  0.37147  0.25909  0.17485  1.0000
  C   C858      1.0  0.42270  0.03156  0.21318  1.0000
  C   C859      1.0  0.43228  0.03856  0.14684  1.0000
  H   H1468     1.0  0.39328  0.00744  0.19738  1.0000
  C   C860      1.0  0.26699  0.21594  0.18541  1.0000
  H   H1469     1.0  0.45079  0.21150  0.27102  1.0000
  H   H1470     1.0  0.28869  0.05482  0.03086  1.0000
  C   C861      1.0  0.40168  0.21856  0.47457  1.0000
  H   H1471     1.0  0.43697  0.20752  0.25136  1.0000
  C   C862      1.0  0.40035  0.01152  0.21128  1.0000
  H   H1472     1.0  0.42693  0.27470  0.30532  1.0000
  H   H1473     1.0  0.23891  0.25053  0.15648  1.0000
  H   H1474     1.0  0.40729  0.23006  0.47685  1.0000
  H   H1475     1.0  0.41064  0.16739  0.37469  1.0000
  H   H1476     1.0  0.31129  0.13383  0.40321  1.0000
  S   S258      1.0  0.47388  0.17777  0.99321  1.0000
  C   C863      1.0  0.44393  0.25866  0.23708  1.0000
  H   H1477     1.0  0.44434  0.30128  0.25195  1.0000
  Fe  Fe127     1.0  0.31885  0.99636  0.01879  1.0000
  N   N57       1.0  0.43100  0.27746  0.26013  1.0000
  H   H1478     1.0  0.28436  0.15760  0.45330  1.0000
  H   H1479     1.0  0.40724  0.02151  0.25651  1.0000
  H   H1480     1.0  0.39194  0.01338  0.22893  1.0000
  H   H1481     1.0  0.25803  0.21895  0.14924  1.0000
  H   H1482     1.0  0.43011  0.13597  0.98124  1.0000
  C   C864      1.0  0.24637  0.27320  0.08949  1.0000
  H   H1483     1.0  0.46170  0.19428  0.35504  1.0000
  H   H1484     1.0  0.27983  0.27424  0.98311  1.0000
  C   C865      1.0  0.30073  0.06154  0.02776  1.0000
  H   H1485     1.0  0.23560  0.21756  0.22315  1.0000
  H   H1486     1.0  0.40544  0.17715  0.34405  1.0000
  C   C866      1.0  0.47412  0.31690  0.05814  1.0000
  H   H1487     1.0  0.36045  0.28192  0.18343  1.0000
  H   H1488     1.0  0.37389  0.29991  0.08718  1.0000
  C   C867      1.0  0.38340  0.28699  0.13601  1.0000
  H   H1489     1.0  0.44734  0.29787  0.08888  1.0000
  H   H1490     1.0  0.45270  0.26679  0.08311  1.0000
  H   H1491     1.0  0.35185  0.26765  0.11815  1.0000
  H   H1492     1.0  0.35405  0.28478  0.13002  1.0000
  C   C868      1.0  0.45905  0.30556  0.02917  1.0000
  H   H1493     1.0  0.39880  0.25141  0.11691  1.0000
  H   H1494     1.0  0.24711  0.17088  0.20830  1.0000
  N   N58       1.0  0.24207  0.02966  0.17453  1.0000
  H   H1495     1.0  0.41928  0.16158  0.32503  1.0000
  Fe  Fe128     1.0  0.23329  0.12665  0.28657  1.0000
  C   C869      1.0  0.35371  0.27077  0.18177  1.0000
  H   H1496     1.0  0.34331  0.27243  0.17473  1.0000
  H   H1497     1.0  0.40818  0.29294  0.11508  1.0000
  H   H1498     1.0  0.43115  0.16101  0.34828  1.0000
  H   H1499     1.0  0.43043  0.02375  0.21654  1.0000
  C   C870      1.0  0.36059  0.27801  0.11846  1.0000
  C   C871      1.0  0.36684  0.28836  0.08791  1.0000
  H   H1500     1.0  0.35564  0.25233  0.16154  1.0000
  H   H1501     1.0  0.35691  0.29060  0.07961  1.0000
  C   C872      1.0  0.36349  0.26310  0.16268  1.0000
  H   H1502     1.0  0.41276  0.00025  0.23972  1.0000
  H   H1503     1.0  0.37723  0.29569  0.14127  1.0000
  S   S259      1.0  0.44695  0.26320  0.46817  1.0000
  H   H1504     1.0  0.46371  0.13454  0.13054  1.0000
  C   C873      1.0  0.38015  0.26302  0.11824  1.0000
  N   N59       1.0  0.37226  0.27310  0.13333  1.0000
  C   C874      1.0  0.44387  0.31032  0.03734  1.0000
  H   H1505     1.0  0.24278  0.13171  0.38652  1.0000
  H   H1506     1.0  0.44364  0.25216  0.25851  1.0000
  H   H1507     1.0  0.28841  0.17630  0.43026  1.0000
  H   H1508     1.0  0.42358  0.03672  0.25334  1.0000
  H   H1509     1.0  0.40013  0.26535  0.13719  1.0000
  H   H1510     1.0  0.27261  0.13621  0.35353  1.0000
  H   H1511     1.0  0.44002  0.03520  0.13032  1.0000
  H   H1512     1.0  0.26734  0.26254  0.04767  1.0000
  H   H1513     1.0  0.24278  0.19185  0.22434  1.0000
  H   H1514     1.0  0.28255  0.13155  0.45054  1.0000
  H   H1515     1.0  0.26842  0.05000  0.13595  1.0000
  H   H1516     1.0  0.41617  0.24496  0.27069  1.0000
  H   H1517     1.0  0.43021  0.01676  0.17570  1.0000
  C   C875      1.0  0.23774  0.04286  0.15676  1.0000
  H   H1518     1.0  0.25060  0.09075  0.43551  1.0000
  Fe  Fe129     1.0  0.30456  0.31066  0.04243  1.0000
  N   N60       1.0  0.24070  0.20052  0.18142  1.0000
  H   H1519     1.0  0.45425  0.29148  0.28605  1.0000
  H   H1520     1.0  0.47321  0.12259  0.02349  1.0000
  C   C876      1.0  0.27122  0.27154  0.02717  1.0000
  C   C877      1.0  0.45559  0.29168  0.07966  1.0000
  H   H1521     1.0  0.47145  0.07930  0.13201  1.0000
  C   C878      1.0  0.24929  0.10244  0.43331  1.0000
  H   H1522     1.0  0.46682  0.31525  0.01128  1.0000
  H   H1523     1.0  0.28088  0.25655  0.00476  1.0000
  H   H1524     1.0  0.28891  0.15230  0.33879  1.0000
  C   C879      1.0  0.35981  0.31659  0.13668  1.0000
  C   C880      1.0  0.25570  0.02546  0.15837  1.0000
  C   C881      1.0  0.24670  0.11038  0.40799  1.0000
  H   H1525     1.0  0.43983  0.16961  0.26088  1.0000
  H   H1526     1.0  0.46012  0.11670  0.21896  1.0000
  H   H1527     1.0  0.24571  0.05815  0.19574  1.0000
  C   C882      1.0  0.23800  0.25424  0.13500  1.0000
  H   H1528     1.0  0.39924  0.30823  0.10741  1.0000
  H   H1529     1.0  0.27192  0.22805  0.18576  1.0000
  H   H1530     1.0  0.25262  0.01971  0.14206  1.0000
  H   H1531     1.0  0.33027  0.07323  0.01000  1.0000
  H   H1532     1.0  0.45290  0.27356  0.31006  1.0000
  H   H1533     1.0  0.46664  0.11994  0.10173  1.0000
  H   H1534     1.0  0.30534  0.03762  0.10761  1.0000
  H   H1535     1.0  0.45510  0.10373  0.14880  1.0000
  C   C883      1.0  0.29129  0.16493  0.43200  1.0000
  C   C884      1.0  0.39747  0.29550  0.11046  1.0000
  H   H1536     1.0  0.42824  0.31488  0.22855  1.0000
  H   H1537     1.0  0.39653  0.29328  0.08997  1.0000
  C   C885      1.0  0.25038  0.10949  0.45571  1.0000
  C   C886      1.0  0.23414  0.19493  0.21311  1.0000
  H   H1538     1.0  0.46006  0.27576  0.27318  1.0000
  H   H1539     1.0  0.45374  0.16499  0.31235  1.0000
  C   C887      1.0  0.29174  0.12707  0.43951  1.0000
  C   C888      1.0  0.42705  0.30240  0.22938  1.0000
  S   S260      1.0  0.24611  0.10103  0.38001  1.0000
  H   H1540     1.0  0.47237  0.18065  0.44588  1.0000
  H   H1541     1.0  0.45550  0.25935  0.22390  1.0000
  H   H1542     1.0  0.41518  0.01668  0.15884  1.0000
  H   H1543     1.0  0.43438  0.30206  0.20905  1.0000
  C   C889      1.0  0.46700  0.09535  0.22833  1.0000
  H   H1544     1.0  0.45939  0.08872  0.11321  1.0000
  H   H1545     1.0  0.42329  0.11187  0.01480  1.0000
  S   S261      1.0  0.31146  0.30632  0.99897  1.0000
  C   C890      1.0  0.45150  0.27877  0.28883  1.0000
  C   C891      1.0  0.45400  0.99751  0.25016  1.0000
  H   H1546     1.0  0.44431  0.27608  0.05691  1.0000
  H   H1547     1.0  0.35447  0.07254  0.04429  1.0000
  C   C892      1.0  0.24915  0.26761  0.98946  1.0000
  N   N61       1.0  0.25849  0.25609  0.99621  1.0000
  H   H1548     1.0  0.47305  0.14439  0.15152  1.0000
  H   H1549     1.0  0.25732  0.23565  0.02864  1.0000
  H   H1550     1.0  0.47946  0.10971  0.08842  1.0000
  C   C893      1.0  0.48010  0.00351  0.25630  1.0000
  C   C894      1.0  0.47833  0.11818  0.10134  1.0000
  H   H1551     1.0  0.48142  0.11882  0.16893  1.0000
  C   C895      1.0  0.48128  0.12399  0.14677  1.0000
  N   N62       1.0  0.47972  0.11171  0.13081  1.0000
  C   C896      1.0  0.23415  0.99042  0.13092  1.0000
  H   H1552     1.0  0.24296  0.26979  0.00924  1.0000
  H   H1553     1.0  0.41438  0.99463  0.20686  1.0000
  C   C897      1.0  0.24985  0.24337  0.02267  1.0000
  H   H1554     1.0  0.24665  0.24824  0.04093  1.0000
  H   H1555     1.0  0.23288  0.19596  0.12901  1.0000
  H   H1556     1.0  0.47344  0.28284  0.03797  1.0000
  H   H1557     1.0  0.47691  0.30955  0.10145  1.0000
  C   C898      1.0  0.40665  0.99784  0.22356  1.0000
  C   C899      1.0  0.27315  0.26442  0.00168  1.0000
  H   H1558     1.0  0.23261  0.05154  0.11674  1.0000
  C   C900      1.0  0.44515  0.99046  0.32609  1.0000
  H   H1559     1.0  0.23592  0.22693  0.00484  1.0000
  S   S262      1.0  0.25190  0.13494  0.47921  1.0000
  H   H1560     1.0  0.36869  0.21691  0.47923  1.0000
  Fe  Fe130     1.0  0.37139  0.19411  0.66392  1.0000
  S   S263      1.0  0.35577  0.21018  0.66060  1.0000
  S   S264      1.0  0.36867  0.17703  0.70554  1.0000
  Fe  Fe131     1.0  0.39026  0.20811  0.60346  1.0000
  S   S265      1.0  0.37634  0.22537  0.59548  1.0000
  S   S266      1.0  0.40977  0.20510  0.57107  1.0000
  Fe  Fe132     1.0  0.37776  0.22870  0.63838  1.0000
  S   S267      1.0  0.38298  0.25306  0.64479  1.0000
  Fe  Fe133     1.0  0.35565  0.20526  0.61822  1.0000
  S   S268      1.0  0.33468  0.20287  0.59955  1.0000
  S   S269      1.0  0.39328  0.21288  0.64442  1.0000
  S   S270      1.0  0.36961  0.18774  0.62354  1.0000
  H   H1561     1.0  0.31012  0.19842  0.57218  1.0000
  H   H1562     1.0  0.45820  0.11309  0.96096  1.0000
  Fe  Fe134     1.0  0.42097  0.12604  0.75258  1.0000
  S   S271      1.0  0.40539  0.12476  0.79419  1.0000
  S   S272      1.0  0.42157  0.14217  0.71095  1.0000
  Fe  Fe135     1.0  0.43391  0.10007  0.77868  1.0000
  S   S273      1.0  0.41911  0.09685  0.82257  1.0000
  S   S274      1.0  0.44957  0.08413  0.77266  1.0000
  Fe  Fe136     1.0  0.40014  0.09891  0.80079  1.0000
  S   S275      1.0  0.37496  0.08527  0.81799  1.0000
  Fe  Fe137     1.0  0.42585  0.12298  0.81190  1.0000
  S   S276      1.0  0.43012  0.13760  0.84278  1.0000
  S   S277      1.0  0.41447  0.10029  0.75785  1.0000
  S   S278      1.0  0.44192  0.12604  0.76944  1.0000
  H   H1563     1.0  0.42439  0.13374  0.91093  1.0000
  Fe  Fe138     1.0  0.27250  0.28211  0.82688  1.0000
  S   S279      1.0  0.26193  0.30023  0.84135  1.0000
  S   S280      1.0  0.26076  0.25923  0.81957  1.0000
  Fe  Fe139     1.0  0.30479  0.29902  0.82797  1.0000
  S   S281      1.0  0.32813  0.29453  0.82901  1.0000
  Fe  Fe140     1.0  0.27693  0.30035  0.87174  1.0000
  S   S282      1.0  0.26772  0.30297  0.91576  1.0000
  S   S283      1.0  0.28560  0.28060  0.86055  1.0000
  S   S284      1.0  0.29236  0.29935  0.79349  1.0000
  Fe  Fe141     1.0  0.32025  0.01659  0.78776  1.0000
  H   H1564     1.0  0.32411  0.02171  0.91668  1.0000
  S   S285      1.0  0.34388  0.03297  0.76608  1.0000
  Fe  Fe142     1.0  0.28647  0.00420  0.78696  1.0000
  H   H1565     1.0  0.25880  0.00229  0.82916  1.0000
  H   H1566     1.0  0.43911  0.16080  0.96047  1.0000
  H   H1567     1.0  0.35866  0.01407  0.83941  1.0000
  H   H1568     1.0  0.35961  0.24550  0.71768  1.0000
  S   S286      1.0  0.29809  0.02159  0.80697  1.0000
  S   S287      1.0  0.30901  0.00102  0.76419  1.0000
  H   H1569     1.0  0.38209  0.06160  0.87311  1.0000
  Fe  Fe143     1.0  0.27118  0.13572  0.56890  1.0000
  S   S288      1.0  0.29462  0.14221  0.57897  1.0000
  H   H1570     1.0  0.23214  0.22996  0.76621  1.0000
  C   C901      1.0  0.47020  0.25241  0.86381  1.0000
  C   C902      1.0  0.27322  0.26047  0.94408  1.0000
  H   H1571     1.0  0.23926  0.03271  0.63221  1.0000
  H   H1572     1.0  0.35723  0.01912  0.95692  1.0000
  H   H1573     1.0  0.36044  0.03901  0.93854  1.0000
  H   H1574     1.0  0.47518  0.29177  0.84844  1.0000
  Fe  Fe144     1.0  0.28259  0.31747  0.81015  1.0000
  H   H1575     1.0  0.38010  0.04151  0.88226  1.0000
  N   N63       1.0  0.37703  0.21026  0.51634  1.0000
  C   C903      1.0  0.28030  0.30469  0.93801  1.0000
  H   H1576     1.0  0.23326  0.25128  0.97342  1.0000
  N   N64       1.0  0.23584  0.99391  0.85727  1.0000
  S   S289      1.0  0.25873  0.14993  0.54351  1.0000
  C   C904      1.0  0.48108  0.27017  0.88906  1.0000
  C   C905      1.0  0.24770  0.25686  0.79809  1.0000
  H   H1577     1.0  0.35897  0.26060  0.78029  1.0000
  H   H1578     1.0  0.33599  0.26426  0.76228  1.0000
  H   H1579     1.0  0.38399  0.30656  0.79384  1.0000
  H   H1580     1.0  0.46583  0.17291  0.87609  1.0000
  H   H1581     1.0  0.25347  0.14926  0.69473  1.0000
  H   H1582     1.0  0.25321  0.24217  0.96721  1.0000
  H   H1583     1.0  0.36243  0.17580  0.57074  1.0000
  H   H1584     1.0  0.43483  0.20875  0.52316  1.0000
  C   C906      1.0  0.47611  0.12912  0.92721  1.0000
  C   C907      1.0  0.34569  0.30513  0.80449  1.0000
  C   C908      1.0  0.35922  0.30106  0.80832  1.0000
  H   H1585     1.0  0.35858  0.29132  0.82560  1.0000
  C   C909      1.0  0.44858  0.14574  0.84661  1.0000
  C   C910      1.0  0.45031  0.15757  0.86064  1.0000
  H   H1586     1.0  0.24775  0.19460  0.61833  1.0000
  H   H1587     1.0  0.45840  0.27673  0.86451  1.0000
  Fe  Fe145     1.0  0.29536  0.00096  0.84295  1.0000
  C   C911      1.0  0.46135  0.14022  0.83725  1.0000
  H   H1588     1.0  0.44052  0.16198  0.86778  1.0000
  H   H1589     1.0  0.38380  0.25471  0.75646  1.0000
  C   C912      1.0  0.38322  0.26280  0.77011  1.0000
  H   H1590     1.0  0.46017  0.13111  0.82645  1.0000
  C   C913      1.0  0.36660  0.07061  0.80351  1.0000
  C   C914      1.0  0.35052  0.06469  0.81157  1.0000
  C   C915      1.0  0.34342  0.05288  0.80081  1.0000
  C   C916      1.0  0.35238  0.04703  0.78159  1.0000
  C   C917      1.0  0.36846  0.05300  0.77339  1.0000
  C   C918      1.0  0.37556  0.06471  0.78437  1.0000
  H   H1591     1.0  0.34351  0.06937  0.82604  1.0000
  H   H1592     1.0  0.33102  0.04850  0.80700  1.0000
  H   H1593     1.0  0.37547  0.04861  0.75838  1.0000
  H   H1594     1.0  0.38796  0.06915  0.77805  1.0000
  H   H1595     1.0  0.33068  0.28195  0.76316  1.0000
  C   C919      1.0  0.44057  0.23264  0.49893  1.0000
  H   H1596     1.0  0.27398  0.25439  0.92698  1.0000
  C   C920      1.0  0.24532  0.24344  0.78819  1.0000
  H   H1597     1.0  0.28713  0.02463  0.68298  1.0000
  C   C921      1.0  0.47560  0.14626  0.84239  1.0000
  C   C922      1.0  0.45694  0.09468  0.71444  1.0000
  C   C923      1.0  0.45709  0.08325  0.73786  1.0000
  H   H1598     1.0  0.28261  0.00794  0.94261  1.0000
  H   H1599     1.0  0.27129  0.00814  0.69097  1.0000
  H   H1600     1.0  0.46446  0.10356  0.66897  1.0000
  H   H1601     1.0  0.45149  0.10389  0.71754  1.0000
  H   H1602     1.0  0.46074  0.26832  0.81900  1.0000
  C   C924      1.0  0.42066  0.22153  0.54345  1.0000
  C   C925      1.0  0.43228  0.21990  0.52200  1.0000
  C   C926      1.0  0.43718  0.24705  0.49712  1.0000
  C   C927      1.0  0.42557  0.24865  0.51859  1.0000
  C   C928      1.0  0.41741  0.23597  0.54179  1.0000
  H   H1603     1.0  0.42296  0.25979  0.51736  1.0000
  H   H1604     1.0  0.40860  0.23740  0.55832  1.0000
  C   C929      1.0  0.38373  0.16787  0.70684  1.0000
  C   C930      1.0  0.39366  0.16734  0.68201  1.0000
  C   C931      1.0  0.40526  0.15945  0.68355  1.0000
  C   C932      1.0  0.40704  0.15211  0.70988  1.0000
  C   C933      1.0  0.39723  0.15286  0.73470  1.0000
  C   C934      1.0  0.38558  0.16069  0.73318  1.0000
  H   H1605     1.0  0.39228  0.17284  0.66160  1.0000
  H   H1606     1.0  0.41280  0.15890  0.66427  1.0000
  H   H1607     1.0  0.39863  0.14751  0.75506  1.0000
  H   H1608     1.0  0.37796  0.16114  0.75245  1.0000
  C   C935      1.0  0.39560  0.25920  0.66511  1.0000
  C   C936      1.0  0.39936  0.24857  0.68546  1.0000
  C   C937      1.0  0.40842  0.25385  0.70283  1.0000
  C   C938      1.0  0.41384  0.26980  0.70004  1.0000
  C   C939      1.0  0.41033  0.28045  0.67931  1.0000
  C   C940      1.0  0.40118  0.27516  0.66207  1.0000
  H   H1609     1.0  0.39492  0.23628  0.68825  1.0000
  H   H1610     1.0  0.41099  0.24556  0.71894  1.0000
  H   H1611     1.0  0.41457  0.29275  0.67668  1.0000
  H   H1612     1.0  0.39833  0.28347  0.64638  1.0000
  C   C941      1.0  0.32411  0.18598  0.59298  1.0000
  C   C942      1.0  0.32690  0.17143  0.60166  1.0000
  C   C943      1.0  0.31782  0.15825  0.59697  1.0000
  C   C944      1.0  0.30575  0.15937  0.58383  1.0000
  C   C945      1.0  0.30308  0.17398  0.57484  1.0000
  C   C946      1.0  0.31227  0.18719  0.57927  1.0000
  H   H1613     1.0  0.33594  0.17029  0.61223  1.0000
  H   H1614     1.0  0.32006  0.14704  0.60384  1.0000
  H   H1615     1.0  0.29401  0.17509  0.56432  1.0000
  Fe  Fe146     1.0  0.24437  0.10601  0.58557  1.0000
  H   H1616     1.0  0.32944  0.05376  0.87520  1.0000
  H   H1617     1.0  0.37798  0.05093  0.84799  1.0000
  H   H1618     1.0  0.35769  0.29680  0.74955  1.0000
  H   H1619     1.0  0.33172  0.03989  0.92243  1.0000
  C   C947      1.0  0.46420  0.07136  0.73361  1.0000
  H   H1620     1.0  0.47170  0.12745  0.90874  1.0000
  H   H1621     1.0  0.37152  0.02438  0.85537  1.0000
  C   C948      1.0  0.25924  0.05145  0.61869  1.0000
  C   C949      1.0  0.33994  0.27591  0.76528  1.0000
  H   H1622     1.0  0.46640  0.15455  0.92110  1.0000
  H   H1623     1.0  0.46542  0.15468  0.95680  1.0000
  C   C950      1.0  0.36003  0.00431  0.71013  1.0000
  H   H1624     1.0  0.38842  0.22941  0.53002  1.0000
  H   H1625     1.0  0.47423  0.29138  0.89473  1.0000
  H   H1626     1.0  0.46862  0.12864  0.97123  1.0000
  H   H1627     1.0  0.32789  0.30905  0.89119  1.0000
  H   H1628     1.0  0.46082  0.28811  0.81415  1.0000
  C   C951      1.0  0.35505  0.99861  0.76144  1.0000
  C   C952      1.0  0.35972  0.01710  0.85944  1.0000
  Fe  Fe147     1.0  0.25211  0.12901  0.52644  1.0000
  C   C953      1.0  0.24021  0.00295  0.75374  1.0000
  H   H1629     1.0  0.34735  0.03427  0.84921  1.0000
  H   H1630     1.0  0.36839  0.01565  0.70699  1.0000
  C   C954      1.0  0.30798  0.99154  0.90759  1.0000
  H   H1631     1.0  0.33604  0.01637  0.87308  1.0000
  H   H1632     1.0  0.46880  0.22792  0.88007  1.0000
  H   H1633     1.0  0.47041  0.26348  0.90589  1.0000
  H   H1634     1.0  0.29827  0.29789  0.91236  1.0000
  N   N65       1.0  0.36839  0.10968  0.72465  1.0000
  C   C955      1.0  0.36911  0.12590  0.70862  1.0000
  C   C956      1.0  0.38457  0.10873  0.72521  1.0000
  C   C957      1.0  0.35875  0.10574  0.75470  1.0000
  C   C958      1.0  0.36117  0.09846  0.71000  1.0000
  C   C959      1.0  0.35357  0.13006  0.70935  1.0000
  C   C960      1.0  0.39526  0.10919  0.69673  1.0000
  C   C961      1.0  0.36381  0.11685  0.77237  1.0000
  C   C962      1.0  0.36018  0.08119  0.72256  1.0000
  H   H1635     1.0  0.37611  0.13456  0.71644  1.0000
  H   H1636     1.0  0.37516  0.12824  0.68588  1.0000
  H   H1637     1.0  0.38456  0.09818  0.74117  1.0000
  H   H1638     1.0  0.39049  0.11850  0.73239  1.0000
  H   H1639     1.0  0.34641  0.10497  0.75543  1.0000
  H   H1640     1.0  0.35890  0.09400  0.76649  1.0000
  H   H1641     1.0  0.34909  0.09896  0.71078  1.0000
  H   H1642     1.0  0.36684  0.10172  0.68689  1.0000
  H   H1643     1.0  0.34624  0.12286  0.69942  1.0000
  H   H1644     1.0  0.34713  0.12940  0.73107  1.0000
  H   H1645     1.0  0.35588  0.14232  0.69693  1.0000
  H   H1646     1.0  0.40695  0.10917  0.69965  1.0000
  H   H1647     1.0  0.39135  0.09886  0.68922  1.0000
  H   H1648     1.0  0.39660  0.11995  0.68021  1.0000
  H   H1649     1.0  0.37550  0.11683  0.77508  1.0000
  H   H1650     1.0  0.35587  0.11276  0.79397  1.0000
  H   H1651     1.0  0.36333  0.12888  0.76334  1.0000
  H   H1652     1.0  0.34980  0.07574  0.74057  1.0000
  H   H1653     1.0  0.37045  0.07937  0.72974  1.0000
  H   H1654     1.0  0.35970  0.07488  0.70592  1.0000
  C   C963      1.0  0.37993  0.22698  0.51745  1.0000
  H   H1655     1.0  0.34532  0.20708  0.53103  1.0000
  H   H1656     1.0  0.38047  0.17942  0.54562  1.0000
  H   H1657     1.0  0.27314  0.16242  0.61234  1.0000
  H   H1658     1.0  0.25852  0.99570  0.86505  1.0000
  C   C964      1.0  0.46309  0.12588  0.95443  1.0000
  H   H1659     1.0  0.36216  0.01058  0.75851  1.0000
  H   H1660     1.0  0.47376  0.31940  0.78103  1.0000
  H   H1661     1.0  0.39996  0.20809  0.51816  1.0000
  H   H1662     1.0  0.35456  0.05588  0.86627  1.0000
  S   S290      1.0  0.26607  0.11549  0.54966  1.0000
  H   H1663     1.0  0.24478  0.17332  0.59431  1.0000
  H   H1664     1.0  0.25677  0.15656  0.64252  1.0000
  H   H1665     1.0  0.39432  0.27172  0.76422  1.0000
  C   C965      1.0  0.30401  0.30192  0.95050  1.0000
  H   H1666     1.0  0.34525  0.25630  0.72225  1.0000
  C   C966      1.0  0.35275  0.02727  0.94285  1.0000
  H   H1667     1.0  0.27735  0.04058  0.65107  1.0000
  H   H1668     1.0  0.33893  0.31808  0.91252  1.0000
  Fe  Fe148     1.0  0.42941  0.29978  0.73142  1.0000
  H   H1669     1.0  0.24197  0.15913  0.71394  1.0000
  C   C967      1.0  0.36621  0.20688  0.49808  1.0000
  H   H1670     1.0  0.23618  0.00270  0.81307  1.0000
  C   C968      1.0  0.47524  0.32089  0.80128  1.0000
  C   C969      1.0  0.23401  0.24042  0.77332  1.0000
  C   C970      1.0  0.39233  0.20747  0.50357  1.0000
  C   C971      1.0  0.29594  0.99868  0.91265  1.0000
  H   H1671     1.0  0.34128  0.01502  0.72392  1.0000
  H   H1672     1.0  0.35244  0.24782  0.75145  1.0000
  H   H1673     1.0  0.25410  0.05850  0.63157  1.0000
  C   C972      1.0  0.25331  0.99825  0.75873  1.0000
  C   C973      1.0  0.46999  0.27955  0.84945  1.0000
  S   S291      1.0  0.45201  0.31147  0.73836  1.0000
  C   C974      1.0  0.25167  0.03398  0.63138  1.0000
  H   H1674     1.0  0.26105  0.15998  0.71775  1.0000
  H   H1675     1.0  0.24514  0.99571  0.90897  1.0000
  H   H1676     1.0  0.26505  0.05522  0.66852  1.0000
  H   H1677     1.0  0.24039  0.27763  0.80032  1.0000
  H   H1678     1.0  0.45821  0.25029  0.87702  1.0000
  H   H1679     1.0  0.47855  0.23975  0.89839  1.0000
  H   H1680     1.0  0.36980  0.27797  0.78386  1.0000
  H   H1681     1.0  0.36285  0.17831  0.53412  1.0000
  H   H1682     1.0  0.34100  0.27486  0.78729  1.0000
  C   C975      1.0  0.35560  0.25391  0.72872  1.0000
  Fe  Fe149     1.0  0.23769  0.13816  0.57971  1.0000
  C   C976      1.0  0.47693  0.23928  0.87718  1.0000
  H   H1683     1.0  0.39366  0.28770  0.72461  1.0000
  H   H1684     1.0  0.46423  0.06243  0.75165  1.0000
  C   C977      1.0  0.38390  0.30405  0.70164  1.0000
  C   C978      1.0  0.38320  0.29207  0.72914  1.0000
  H   H1685     1.0  0.25216  0.23524  0.79235  1.0000
  H   H1686     1.0  0.47866  0.28337  0.80327  1.0000
  H   H1687     1.0  0.24705  0.00340  0.68819  1.0000
  C   C979      1.0  0.45828  0.15142  0.94240  1.0000
  N   N66       1.0  0.36881  0.27885  0.74080  1.0000
  C   C980      1.0  0.27448  0.02100  0.68574  1.0000
  C   C981      1.0  0.30018  0.99936  0.95907  1.0000
  H   H1688     1.0  0.35229  0.28881  0.72257  1.0000
  S   S292      1.0  0.42464  0.27574  0.72332  1.0000
  C   C982      1.0  0.36918  0.18238  0.54888  1.0000
  C   C983      1.0  0.34427  0.00774  0.70953  1.0000
  H   H1689     1.0  0.34266  0.20735  0.49684  1.0000
  H   H1690     1.0  0.34084  0.29995  0.90610  1.0000
  H   H1691     1.0  0.34100  0.02670  0.95508  1.0000
  N   N67       1.0  0.36046  0.99265  0.73622  1.0000
  H   H1692     1.0  0.37943  0.20317  0.55892  1.0000
  H   H1693     1.0  0.34381  0.18982  0.51849  1.0000
  C   C984      1.0  0.34869  0.20259  0.51247  1.0000
  C   C985      1.0  0.37706  0.99219  0.73333  1.0000
  C   C986      1.0  0.25633  0.01909  0.85255  1.0000
  H   H1694     1.0  0.37976  0.26569  0.71503  1.0000
  C   C987      1.0  0.46461  0.16371  0.86555  1.0000
  H   H1695     1.0  0.26897  0.02480  0.70402  1.0000
  C   C988      1.0  0.42605  0.13100  0.93269  1.0000
  H   H1696     1.0  0.31482  0.29878  0.94598  1.0000
  H   H1697     1.0  0.38379  0.29882  0.68358  1.0000
  H   H1698     1.0  0.29722  0.00252  0.97878  1.0000
  H   H1699     1.0  0.39078  0.19555  0.50066  1.0000
  C   C989      1.0  0.24626  0.00946  0.66698  1.0000
  H   H1700     1.0  0.36406  0.02028  0.90769  1.0000
  S   S293      1.0  0.25045  0.12534  0.60597  1.0000
  H   H1701     1.0  0.25687  0.05505  0.59767  1.0000
  C   C990      1.0  0.36868  0.26887  0.72034  1.0000
  C   C991      1.0  0.46431  0.09449  0.68697  1.0000
  C   C992      1.0  0.47727  0.15791  0.85681  1.0000
  N   N68       1.0  0.25371  0.02665  0.65994  1.0000
  H   H1702     1.0  0.25786  0.04717  0.70613  1.0000
  C   C993      1.0  0.27063  0.02833  0.65809  1.0000
  H   H1703     1.0  0.23882  0.01413  0.75619  1.0000
  C   C994      1.0  0.24587  0.03314  0.68263  1.0000
  H   H1704     1.0  0.36027  0.20134  0.55756  1.0000
  C   C995      1.0  0.23716  0.18554  0.62503  1.0000
  H   H1705     1.0  0.27578  0.02307  0.64146  1.0000
  C   C996      1.0  0.25464  0.04886  0.68566  1.0000
  H   H1706     1.0  0.38418  0.00372  0.73302  1.0000
  H   H1707     1.0  0.26900  0.02342  0.84853  1.0000
  H   H1708     1.0  0.41744  0.11983  0.94412  1.0000
  S   S294      1.0  0.31841  0.99723  0.82525  1.0000
  H   H1709     1.0  0.28519  0.26492  0.94522  1.0000
  S   S295      1.0  0.32377  0.98939  0.97776  1.0000
  H   H1710     1.0  0.38514  0.23500  0.49597  1.0000
  C   C997      1.0  0.46757  0.27963  0.81978  1.0000
  C   C998      1.0  0.47145  0.07110  0.70613  1.0000
  C   C999      1.0  0.29196  0.00245  0.93854  1.0000
  H   H1711     1.0  0.25125  0.02032  0.87378  1.0000
  C   C1000     1.0  0.37362  0.30965  0.79035  1.0000
  H   H1712     1.0  0.34462  0.01013  0.92199  1.0000
  H   H1713     1.0  0.31173  0.04101  0.89735  1.0000
  H   H1714     1.0  0.26903  0.14413  0.63843  1.0000
  H   H1715     1.0  0.44964  0.13515  0.90879  1.0000
  H   H1716     1.0  0.24318  0.02475  0.70372  1.0000
  C   C1001     1.0  0.37131  0.19989  0.54614  1.0000
  H   H1717     1.0  0.36324  0.31858  0.87573  1.0000
  H   H1718     1.0  0.35922  0.22552  0.55095  1.0000
  S   S296      1.0  0.28582  0.00321  0.88689  1.0000
  C   C1002     1.0  0.34659  0.31777  0.78225  1.0000
  N   N69       1.0  0.42919  0.20657  0.69547  1.0000
  C   C1003     1.0  0.41806  0.21477  0.70886  1.0000
  C   C1004     1.0  0.44522  0.21664  0.69028  1.0000
  C   C1005     1.0  0.42710  0.19116  0.71624  1.0000
  C   C1006     1.0  0.42533  0.20434  0.66846  1.0000
  C   C1007     1.0  0.40103  0.20540  0.72040  1.0000
  C   C1008     1.0  0.44883  0.23290  0.66973  1.0000
  C   C1009     1.0  0.44043  0.18318  0.71268  1.0000
  C   C1010     1.0  0.43625  0.19787  0.64901  1.0000
  H   H1719     1.0  0.42165  0.21858  0.72683  1.0000
  H   H1720     1.0  0.41803  0.22550  0.69343  1.0000
  H   H1721     1.0  0.45420  0.21111  0.68187  1.0000
  H   H1722     1.0  0.44742  0.21828  0.71071  1.0000
  H   H1723     1.0  0.42510  0.19239  0.73833  1.0000
  H   H1724     1.0  0.41664  0.18270  0.71586  1.0000
  H   H1725     1.0  0.41380  0.19620  0.67330  1.0000
  H   H1726     1.0  0.42398  0.21524  0.65538  1.0000
  H   H1727     1.0  0.39411  0.21280  0.72918  1.0000
  H   H1728     1.0  0.39607  0.20199  0.70357  1.0000
  H   H1729     1.0  0.39937  0.19496  0.73789  1.0000
  H   H1730     1.0  0.44201  0.24038  0.67844  1.0000
  H   H1731     1.0  0.46114  0.23883  0.66641  1.0000
  H   H1732     1.0  0.44712  0.23230  0.64863  1.0000
  H   H1733     1.0  0.43659  0.17148  0.72790  1.0000
  H   H1734     1.0  0.45061  0.18958  0.71799  1.0000
  H   H1735     1.0  0.44384  0.18132  0.69143  1.0000
  H   H1736     1.0  0.43263  0.18501  0.65470  1.0000
  H   H1737     1.0  0.44850  0.20173  0.64863  1.0000
  H   H1738     1.0  0.43577  0.20224  0.62678  1.0000
  N   N70       1.0  0.27603  0.17805  0.66052  1.0000
  C   C1011     1.0  0.28654  0.18290  0.67842  1.0000
  C   C1012     1.0  0.25959  0.17473  0.67767  1.0000
  C   C1013     1.0  0.27859  0.19066  0.63391  1.0000
  C   C1014     1.0  0.27947  0.16393  0.65211  1.0000
  C   C1015     1.0  0.30386  0.18905  0.66326  1.0000
  C   C1016     1.0  0.25393  0.15987  0.70235  1.0000
  C   C1017     1.0  0.27637  0.20639  0.63829  1.0000
  C   C1018     1.0  0.26900  0.15655  0.63532  1.0000
  H   H1739     1.0  0.28304  0.19198  0.68819  1.0000
  H   H1740     1.0  0.28559  0.17300  0.69657  1.0000
  H   H1741     1.0  0.25142  0.17407  0.66412  1.0000
  H   H1742     1.0  0.25779  0.18447  0.68707  1.0000
  H   H1743     1.0  0.29030  0.19277  0.61988  1.0000
  H   H1744     1.0  0.27067  0.18698  0.62108  1.0000
  H   H1745     1.0  0.29138  0.16684  0.63827  1.0000
  H   H1746     1.0  0.27966  0.15476  0.67059  1.0000
  H   H1747     1.0  0.31032  0.19192  0.67878  1.0000
  H   H1748     1.0  0.30867  0.18031  0.65458  1.0000
  H   H1749     1.0  0.30636  0.19991  0.64625  1.0000
  C   C1019     1.0  0.23548  0.17354  0.61136  1.0000
  H   H1750     1.0  0.26443  0.31134  0.96855  1.0000
  H   H1751     1.0  0.36793  0.27550  0.69950  1.0000
  H   H1752     1.0  0.26433  0.20550  0.64951  1.0000
  H   H1753     1.0  0.27881  0.21474  0.61725  1.0000
  H   H1754     1.0  0.28441  0.21146  0.64967  1.0000
  C   C1020     1.0  0.27556  0.30885  0.96328  1.0000
  C   C1021     1.0  0.25267  0.00210  0.85086  1.0000
  H   H1755     1.0  0.35693  0.05488  0.90010  1.0000
  H   H1756     1.0  0.39492  0.31313  0.69568  1.0000
  H   H1757     1.0  0.35812  0.23305  0.51492  1.0000
  H   H1758     1.0  0.38187  0.25597  0.79206  1.0000
  H   H1759     1.0  0.25283  0.02677  0.83605  1.0000
  H   H1760     1.0  0.32178  0.03526  0.86867  1.0000
  C   C1022     1.0  0.29462  0.30134  0.93156  1.0000
  C   C1023     1.0  0.31234  0.99237  0.95380  1.0000
  C   C1024     1.0  0.46231  0.31900  0.82339  1.0000
  H   H1761     1.0  0.25605  0.02794  0.61547  1.0000
  S   S297      1.0  0.41537  0.30224  0.77208  1.0000
  C   C1025     1.0  0.23877  0.26733  0.79268  1.0000
  H   H1762     1.0  0.36359  0.00039  0.69075  1.0000
  H   H1763     1.0  0.44167  0.11652  0.93270  1.0000
  Fe  Fe150     1.0  0.43780  0.31577  0.77668  1.0000
  C   C1026     1.0  0.35504  0.28572  0.74341  1.0000
  S   S298      1.0  0.26740  0.01106  0.76812  1.0000
  H   H1764     1.0  0.25238  0.00400  0.65171  1.0000
  H   H1765     1.0  0.36981  0.24457  0.53108  1.0000
  C   C1027     1.0  0.44260  0.12910  0.93072  1.0000
  H   H1766     1.0  0.27193  0.05440  0.61494  1.0000
  N   N71       1.0  0.34778  0.03242  0.89299  1.0000
  C   C1028     1.0  0.33173  0.03347  0.90583  1.0000
  C   C1029     1.0  0.35250  0.02199  0.91557  1.0000
  C   C1030     1.0  0.34712  0.02535  0.86836  1.0000
  C   C1031     1.0  0.35817  0.04864  0.88323  1.0000
  C   C1032     1.0  0.32345  0.04138  0.88519  1.0000
  C   C1033     1.0  0.36947  0.27013  0.76957  1.0000
  H   H1767     1.0  0.44213  0.16185  0.92271  1.0000
  C   C1034     1.0  0.37547  0.05049  0.87088  1.0000
  S   S299      1.0  0.29691  0.31875  0.84153  1.0000
  H   H1768     1.0  0.38490  0.29866  0.74506  1.0000
  C   C1035     1.0  0.33919  0.31142  0.89634  1.0000
  C   C1036     1.0  0.29931  0.30610  0.97574  1.0000
  S   S300      1.0  0.23598  0.08293  0.62011  1.0000
  C   C1037     1.0  0.36579  0.23254  0.52940  1.0000
  N   N72       1.0  0.45058  0.13426  0.95200  1.0000
  H   H1769     1.0  0.34493  0.01456  0.68790  1.0000
  H   H1770     1.0  0.42319  0.14029  0.94209  1.0000
  H   H1771     1.0  0.45452  0.31932  0.86691  1.0000
  H   H1772     1.0  0.47694  0.06194  0.70312  1.0000
  H   H1773     1.0  0.24684  0.05674  0.68638  1.0000
  H   H1774     1.0  0.35182  0.99525  0.80660  1.0000
  H   H1775     1.0  0.26829  0.27035  0.93750  1.0000
  H   H1776     1.0  0.33621  0.32099  0.77914  1.0000
  H   H1777     1.0  0.35812  0.00603  0.87548  1.0000
  C   C1038     1.0  0.47180  0.08285  0.68276  1.0000
  H   H1778     1.0  0.24168  0.27053  0.95001  1.0000
  H   H1779     1.0  0.46905  0.25042  0.84309  1.0000
  C   C1039     1.0  0.47753  0.99630  0.63025  1.0000
  H   H1780     1.0  0.35164  0.31210  0.85463  1.0000
  S   S301      1.0  0.44334  0.31390  0.81944  1.0000
  H   H1781     1.0  0.44951  0.23131  0.48250  1.0000
  H   H1782     1.0  0.34298  0.99953  0.76364  1.0000
  H   H1783     1.0  0.25696  0.27902  0.97671  1.0000
  N   N73       1.0  0.47928  0.26879  0.86025  1.0000
  C   C1040     1.0  0.23722  0.26366  0.97250  1.0000
  H   H1784     1.0  0.23448  0.03441  0.67968  1.0000
  C   C1041     1.0  0.35246  0.31948  0.86958  1.0000
  S   S302      1.0  0.42693  0.32171  0.70440  1.0000
  H   H1785     1.0  0.36822  0.19692  0.48954  1.0000
  H   H1786     1.0  0.26980  0.24034  0.97848  1.0000
  C   C1042     1.0  0.46444  0.32080  0.84965  1.0000
  H   H1787     1.0  0.37461  0.31015  0.70443  1.0000
  C   C1043     1.0  0.44770  0.16250  0.94025  1.0000
  H   H1788     1.0  0.38792  0.99771  0.68759  1.0000
  H   H1789     1.0  0.45487  0.17459  0.93500  1.0000
  C   C1044     1.0  0.26322  0.24896  0.97223  1.0000
  H   H1790     1.0  0.33487  0.99704  0.71463  1.0000
  C   C1045     1.0  0.37460  0.32233  0.76819  1.0000
  H   H1791     1.0  0.24708  0.55380  0.37150  1.0000
  H   H1792     1.0  0.27616  0.42354  0.17487  1.0000
  Fe  Fe151     1.0  0.43958  0.52591  0.20269  1.0000
  S   S303      1.0  0.43170  0.53979  0.16825  1.0000
  S   S304      1.0  0.45400  0.51054  0.18618  1.0000
  Fe  Fe152     1.0  0.42169  0.53838  0.24714  1.0000
  S   S305      1.0  0.41228  0.55284  0.21611  1.0000
  S   S306      1.0  0.41640  0.53678  0.29425  1.0000
  Fe  Fe153     1.0  0.40830  0.53208  0.19844  1.0000
  S   S307      1.0  0.38850  0.52685  0.17818  1.0000
  Fe  Fe154     1.0  0.43636  0.55944  0.18804  1.0000
  S   S308      1.0  0.44481  0.58372  0.15866  1.0000
  S   S309      1.0  0.41569  0.51683  0.23185  1.0000
  S   S310      1.0  0.44627  0.54640  0.22020  1.0000
  Fe  Fe155     1.0  0.35932  0.57516  0.44209  1.0000
  S   S311      1.0  0.37060  0.59810  0.40965  1.0000
  S   S312      1.0  0.33415  0.56022  0.45653  1.0000
  S   S313      1.0  0.40391  0.59509  0.42318  1.0000
  Fe  Fe156     1.0  0.38440  0.60487  0.44003  1.0000
  H   H1793     1.0  0.25860  0.46148  0.10423  1.0000
  Fe  Fe157     1.0  0.38942  0.58673  0.39531  1.0000
  S   S314      1.0  0.39766  0.58968  0.34790  1.0000
  S   S315      1.0  0.37763  0.56366  0.42631  1.0000
  S   S316      1.0  0.25969  0.49189  0.39971  1.0000
  S   S317      1.0  0.24246  0.51931  0.38555  1.0000
  Fe  Fe158     1.0  0.26192  0.51601  0.40583  1.0000
  S   S318      1.0  0.28426  0.53572  0.39187  1.0000
  S   S319      1.0  0.43874  0.36138  0.12257  1.0000
  H   H1794     1.0  0.24821  0.46044  0.33329  1.0000
  Fe  Fe159     1.0  0.43762  0.34645  0.16520  1.0000
  S   S320      1.0  0.44217  0.35506  0.20290  1.0000
  Fe  Fe160     1.0  0.30393  0.44957  0.15361  1.0000
  S   S321      1.0  0.31326  0.43423  0.18333  1.0000
  S   S322      1.0  0.28196  0.45684  0.16636  1.0000
  Fe  Fe161     1.0  0.33051  0.45368  0.10349  1.0000
  S   S323      1.0  0.34215  0.43858  0.12884  1.0000
  S   S324      1.0  0.34028  0.46411  0.05657  1.0000
  Fe  Fe162     1.0  0.31839  0.42274  0.14804  1.0000
  S   S325      1.0  0.31332  0.39647  0.15812  1.0000
  Fe  Fe163     1.0  0.33620  0.45140  0.16173  1.0000
  S   S326      1.0  0.35297  0.45779  0.18772  1.0000
  S   S327      1.0  0.30727  0.43683  0.12006  1.0000
  S   S328      1.0  0.32640  0.46776  0.13471  1.0000
  H   H1795     1.0  0.25054  0.45730  0.18662  1.0000
  H   H1796     1.0  0.24827  0.40613  0.28847  1.0000
  H   H1797     1.0  0.25200  0.40254  0.19491  1.0000
  H   H1798     1.0  0.26193  0.41874  0.11917  1.0000
  H   H1799     1.0  0.25865  0.57106  0.37482  1.0000
  H   H1800     1.0  0.46874  0.40868  0.14812  1.0000
  Fe  Fe164     1.0  0.42444  0.64304  0.00664  1.0000
  S   S329      1.0  0.43021  0.63947  0.04924  1.0000
  H   H1801     1.0  0.43913  0.59331  0.21401  1.0000
  S   S330      1.0  0.40141  0.34748  0.09876  1.0000
  S   S331      1.0  0.29625  0.35839  0.07113  1.0000
  Fe  Fe165     1.0  0.29772  0.33334  0.07706  1.0000
  C   C1046     1.0  0.32480  0.52247  0.37865  1.0000
  H   H1802     1.0  0.43659  0.59931  0.33373  1.0000
  H   H1803     1.0  0.44406  0.65008  0.43543  1.0000
  Fe  Fe166     1.0  0.24300  0.48410  0.44300  1.0000
  H   H1804     1.0  0.43505  0.59516  0.10963  1.0000
  Fe  Fe167     1.0  0.39021  0.57296  0.45585  1.0000
  H   H1805     1.0  0.44807  0.63773  0.09052  1.0000
  S   S332      1.0  0.38791  0.62840  0.45126  1.0000
  C   C1047     1.0  0.37292  0.52539  0.32897  1.0000
  H   H1806     1.0  0.47187  0.33926  0.38566  1.0000
  N   N74       1.0  0.34798  0.53994  0.01431  1.0000
  C   C1048     1.0  0.32918  0.47513  0.04066  1.0000
  C   C1049     1.0  0.33262  0.48030  0.01107  1.0000
  S   S333      1.0  0.37906  0.61315  0.97947  1.0000
  C   C1050     1.0  0.31195  0.49332  0.01473  1.0000
  C   C1051     1.0  0.30859  0.48823  0.04431  1.0000
  C   C1052     1.0  0.31714  0.47912  0.05726  1.0000
  C   C1053     1.0  0.23758  0.41799  0.20251  1.0000
  H   H1807     1.0  0.44630  0.49816  0.13661  1.0000
  H   H1808     1.0  0.29947  0.49153  0.05724  1.0000
  H   H1809     1.0  0.31459  0.47539  0.08011  1.0000
  C   C1054     1.0  0.30755  0.38613  0.13427  1.0000
  C   C1055     1.0  0.30409  0.36986  0.14226  1.0000
  C   C1056     1.0  0.30043  0.36122  0.12323  1.0000
  C   C1057     1.0  0.30012  0.36880  0.09605  1.0000
  C   C1058     1.0  0.30318  0.38507  0.08827  1.0000
  C   C1059     1.0  0.30697  0.39373  0.10724  1.0000
  H   H1810     1.0  0.30443  0.36389  0.16318  1.0000
  H   H1811     1.0  0.29792  0.34870  0.12956  1.0000
  H   H1812     1.0  0.30297  0.39101  0.06726  1.0000
  H   H1813     1.0  0.30970  0.40626  0.10078  1.0000
  C   C1060     1.0  0.25966  0.41258  0.28955  1.0000
  C   C1061     1.0  0.44461  0.59086  0.29755  1.0000
  C   C1062     1.0  0.46668  0.34900  0.00628  1.0000
  Fe  Fe168     1.0  0.41961  0.34179  0.12123  1.0000
  C   C1063     1.0  0.36002  0.32749  0.08811  1.0000
  H   H1814     1.0  0.36561  0.52021  0.98871  1.0000
  H   H1815     1.0  0.23757  0.58815  0.45718  1.0000
  S   S334      1.0  0.24644  0.50798  0.44999  1.0000
  C   C1064     1.0  0.32034  0.55371  0.43816  1.0000
  C   C1065     1.0  0.32110  0.56139  0.41036  1.0000
  C   C1066     1.0  0.30996  0.55573  0.39667  1.0000
  C   C1067     1.0  0.29779  0.54242  0.41059  1.0000
  C   C1068     1.0  0.29682  0.53492  0.43861  1.0000
  C   C1069     1.0  0.30799  0.54055  0.45225  1.0000
  H   H1816     1.0  0.33029  0.57170  0.39939  1.0000
  H   H1817     1.0  0.31080  0.56175  0.37509  1.0000
  C   C1070     1.0  0.41031  0.55116  0.30914  1.0000
  C   C1071     1.0  0.40671  0.56376  0.29290  1.0000
  C   C1072     1.0  0.40245  0.57527  0.30531  1.0000
  C   C1073     1.0  0.40169  0.57427  0.33400  1.0000
  C   C1074     1.0  0.40477  0.56141  0.35047  1.0000
  C   C1075     1.0  0.40909  0.54993  0.33804  1.0000
  H   H1818     1.0  0.40737  0.56471  0.27074  1.0000
  H   H1819     1.0  0.39987  0.58510  0.29258  1.0000
  H   H1820     1.0  0.40424  0.56053  0.37259  1.0000
  H   H1821     1.0  0.41176  0.54016  0.35080  1.0000
  C   C1076     1.0  0.37771  0.50771  0.18264  1.0000
  C   C1077     1.0  0.36793  0.50497  0.16498  1.0000
  C   C1078     1.0  0.35992  0.48976  0.16676  1.0000
  C   C1079     1.0  0.36152  0.47719  0.18647  1.0000
  C   C1080     1.0  0.37089  0.47999  0.20474  1.0000
  C   C1081     1.0  0.37908  0.49517  0.20269  1.0000
  H   H1822     1.0  0.36675  0.51463  0.14951  1.0000
  H   H1823     1.0  0.35270  0.48775  0.15264  1.0000
  H   H1824     1.0  0.37204  0.47033  0.22023  1.0000
  H   H1825     1.0  0.38645  0.49715  0.21658  1.0000
  C   C1082     1.0  0.46117  0.59727  0.15989  1.0000
  C   C1083     1.0  0.46398  0.61285  0.14492  1.0000
  N   N75       1.0  0.27079  0.43818  0.08168  1.0000
  H   H1826     1.0  0.26951  0.40758  0.07073  1.0000
  C   C1084     1.0  0.25857  0.42705  0.30058  1.0000
  H   H1827     1.0  0.33869  0.35165  0.17017  1.0000
  H   H1828     1.0  0.45641  0.61628  0.13219  1.0000
  C   C1085     1.0  0.37503  0.32539  0.13187  1.0000
  S   S335      1.0  0.40333  0.64911  0.99600  1.0000
  H   H1829     1.0  0.42695  0.59379  0.26163  1.0000
  C   C1086     1.0  0.47351  0.49167  0.19306  1.0000
  C   C1087     1.0  0.46271  0.49914  0.23486  1.0000
  C   C1088     1.0  0.46408  0.49987  0.20623  1.0000
  H   H1830     1.0  0.47835  0.63617  0.13552  1.0000
  H   H1831     1.0  0.28754  0.58428  0.40696  1.0000
  C   C1089     1.0  0.36016  0.56633  0.35458  1.0000
  H   H1832     1.0  0.45548  0.50540  0.24525  1.0000
  H   H1833     1.0  0.37618  0.54898  0.33026  1.0000
  H   H1834     1.0  0.26182  0.44907  0.32918  1.0000
  H   H1835     1.0  0.37200  0.57013  0.99417  1.0000
  C   C1090     1.0  0.24501  0.43517  0.26322  1.0000
  C   C1091     1.0  0.46325  0.37653  0.21637  1.0000
  C   C1092     1.0  0.45518  0.37339  0.19630  1.0000
  C   C1093     1.0  0.45735  0.38503  0.17160  1.0000
  H   H1836     1.0  0.25656  0.45171  0.06312  1.0000
  Fe  Fe169     1.0  0.45460  0.34790  0.10545  1.0000
  H   H1837     1.0  0.45108  0.38283  0.15615  1.0000
  H   H1838     1.0  0.47781  0.36499  0.37976  1.0000
  H   H1839     1.0  0.23533  0.42134  0.13275  1.0000
  H   H1840     1.0  0.41377  0.61211  0.16787  1.0000
  C   C1094     1.0  0.25086  0.44534  0.18840  1.0000
  C   C1095     1.0  0.26495  0.44180  0.17950  1.0000
  C   C1096     1.0  0.26532  0.42636  0.18164  1.0000
  C   C1097     1.0  0.25164  0.41449  0.19301  1.0000
  H   H1841     1.0  0.45409  0.61074  0.20907  1.0000
  H   H1842     1.0  0.33004  0.52138  0.01075  1.0000
  H   H1843     1.0  0.44485  0.40423  0.21496  1.0000
  C   C1098     1.0  0.35346  0.53069  0.03728  1.0000
  H   H1844     1.0  0.33849  0.50802  0.06361  1.0000
  H   H1845     1.0  0.26386  0.58210  0.44197  1.0000
  C   C1099     1.0  0.36480  0.56603  0.01634  1.0000
  C   C1100     1.0  0.27870  0.57300  0.41462  1.0000
  H   H1846     1.0  0.26123  0.54515  0.45537  1.0000
  H   H1847     1.0  0.45976  0.55938  0.26315  1.0000
  C   C1101     1.0  0.48027  0.48220  0.23691  1.0000
  H   H1848     1.0  0.32241  0.52564  0.06141  1.0000
  N   N76       1.0  0.35421  0.53664  0.36014  1.0000
  H   H1849     1.0  0.47714  0.65025  0.02348  1.0000
  C   C1102     1.0  0.47558  0.40277  0.18692  1.0000
  C   C1103     1.0  0.24794  0.56176  0.38544  1.0000
  C   C1104     1.0  0.25226  0.55123  0.46210  1.0000
  H   H1850     1.0  0.37097  0.56002  0.03023  1.0000
  H   H1851     1.0  0.36848  0.57018  0.33343  1.0000
  H   H1852     1.0  0.26063  0.58435  0.40797  1.0000
  H   H1853     1.0  0.24391  0.44538  0.24769  1.0000
  H   H1854     1.0  0.38319  0.39113  0.10109  1.0000
  C   C1105     1.0  0.36614  0.53926  0.33270  1.0000
  H   H1855     1.0  0.36628  0.53397  0.03214  1.0000
  H   H1856     1.0  0.29032  0.45487  0.08577  1.0000
  H   H1857     1.0  0.34195  0.47725  0.99816  1.0000
  S   S336      1.0  0.31990  0.32894  0.05555  1.0000
  S   S337      1.0  0.23320  0.48829  0.34394  1.0000
  H   H1858     1.0  0.43394  0.58120  0.30549  1.0000
  C   C1106     1.0  0.47079  0.49035  0.25011  1.0000
  H   H1859     1.0  0.27651  0.47112  0.10861  1.0000
  N   N77       1.0  0.41090  0.59435  0.11247  1.0000
  C   C1107     1.0  0.40965  0.59598  0.14226  1.0000
  C   C1108     1.0  0.40388  0.57751  0.11496  1.0000
  C   C1109     1.0  0.40166  0.60441  0.09923  1.0000
  C   C1110     1.0  0.42770  0.59973  0.09652  1.0000
  C   C1111     1.0  0.41541  0.61257  0.14505  1.0000
  C   C1112     1.0  0.41973  0.64080  0.44089  1.0000
  C   C1113     1.0  0.39727  0.60142  0.07233  1.0000
  C   C1114     1.0  0.43236  0.59632  0.06742  1.0000
  H   H1860     1.0  0.39749  0.59140  0.15532  1.0000
  H   H1861     1.0  0.36577  0.52292  0.38542  1.0000
  H   H1862     1.0  0.40304  0.57541  0.09428  1.0000
  H   H1863     1.0  0.39170  0.57394  0.12801  1.0000
  H   H1864     1.0  0.39057  0.60324  0.11469  1.0000
  H   H1865     1.0  0.40785  0.61687  0.09368  1.0000
  H   H1866     1.0  0.43188  0.61250  0.09250  1.0000
  C   C1115     1.0  0.24707  0.44928  0.29905  1.0000
  H   H1867     1.0  0.45488  0.58132  0.23499  1.0000
  H   H1868     1.0  0.40886  0.62059  0.13649  1.0000
  C   C1116     1.0  0.26538  0.44547  0.05685  1.0000
  C   C1117     1.0  0.35820  0.54189  0.98535  1.0000
  H   H1869     1.0  0.40729  0.60200  0.05526  1.0000
  H   H1870     1.0  0.39192  0.61065  0.06366  1.0000
  H   H1871     1.0  0.38852  0.59024  0.07705  1.0000
  H   H1872     1.0  0.43318  0.60655  0.05003  1.0000
  H   H1873     1.0  0.42473  0.58604  0.06475  1.0000
  H   H1874     1.0  0.24956  0.42269  0.32112  1.0000
  H   H1875     1.0  0.38044  0.52833  0.30711  1.0000
  H   H1876     1.0  0.32013  0.53094  0.36569  1.0000
  H   H1877     1.0  0.31713  0.54257  0.04384  1.0000
  H   H1878     1.0  0.42791  0.61741  0.13499  1.0000
  C   C1118     1.0  0.35201  0.53222  0.41381  1.0000
  C   C1119     1.0  0.28314  0.43024  0.07215  1.0000
  C   C1120     1.0  0.47926  0.35638  0.04129  1.0000
  H   H1879     1.0  0.38039  0.52313  0.34343  1.0000
  H   H1880     1.0  0.25900  0.43643  0.04867  1.0000
  C   C1121     1.0  0.45906  0.56914  0.27297  1.0000
  C   C1122     1.0  0.43879  0.60147  0.25242  1.0000
  H   H1881     1.0  0.32400  0.52484  0.39960  1.0000
  H   H1882     1.0  0.36399  0.51464  0.33167  1.0000
  H   H1883     1.0  0.25004  0.42815  0.25004  1.0000
  H   H1884     1.0  0.43451  0.61149  0.21209  1.0000
  H   H1885     1.0  0.43800  0.57209  0.26273  1.0000
  H   H1886     1.0  0.35763  0.50772  0.04898  1.0000
  H   H1887     1.0  0.45883  0.62616  0.26179  1.0000
  C   C1123     1.0  0.44152  0.40339  0.23791  1.0000
  H   H1888     1.0  0.25180  0.41766  0.09252  1.0000
  H   H1889     1.0  0.33926  0.54966  0.37786  1.0000
  H   H1890     1.0  0.44507  0.47773  0.14234  1.0000
  H   H1891     1.0  0.47677  0.39480  0.11040  1.0000
  H   H1892     1.0  0.34812  0.54282  0.41541  1.0000
  H   H1893     1.0  0.31697  0.51084  0.38214  1.0000
  C   C1124     1.0  0.26276  0.57585  0.42534  1.0000
  H   H1894     1.0  0.45658  0.63283  0.01108  1.0000
  H   H1895     1.0  0.45625  0.34585  0.99960  1.0000
  C   C1125     1.0  0.27777  0.44999  0.09574  1.0000
  H   H1896     1.0  0.34380  0.51174  0.37338  1.0000
  H   H1897     1.0  0.29380  0.43878  0.05796  1.0000
  H   H1898     1.0  0.45576  0.45479  0.16459  1.0000
  H   H1899     1.0  0.35438  0.34525  0.15162  1.0000
  H   H1900     1.0  0.33500  0.33406  0.15967  1.0000
  H   H1901     1.0  0.47102  0.57561  0.27076  1.0000
  H   H1902     1.0  0.26366  0.40448  0.30462  1.0000
  H   H1903     1.0  0.27713  0.44434  0.11812  1.0000
  H   H1904     1.0  0.41075  0.56462  0.15096  1.0000
  H   H1905     1.0  0.36350  0.57669  0.02298  1.0000
  H   H1906     1.0  0.28755  0.52470  0.44973  1.0000
  H   H1907     1.0  0.23971  0.43892  0.10539  1.0000
  H   H1908     1.0  0.27445  0.43850  0.22980  1.0000
  H   H1909     1.0  0.28194  0.45072  0.01524  1.0000
  H   H1910     1.0  0.47204  0.60313  0.23445  1.0000
  H   H1911     1.0  0.43795  0.61264  0.25706  1.0000
  C   C1126     1.0  0.24478  0.43155  0.11954  1.0000
  H   H1912     1.0  0.41984  0.49293  0.19761  1.0000
  N   N78       1.0  0.24954  0.56152  0.43666  1.0000
  C   C1127     1.0  0.24832  0.55249  0.41486  1.0000
  H   H1913     1.0  0.45208  0.49092  0.10750  1.0000
  H   H1914     1.0  0.43784  0.45171  0.18968  1.0000
  H   H1915     1.0  0.47345  0.60134  0.26969  1.0000
  C   C1128     1.0  0.48068  0.64170  0.01233  1.0000
  H   H1916     1.0  0.24350  0.45856  0.28547  1.0000
  C   C1129     1.0  0.23719  0.43346  0.19993  1.0000
  H   H1917     1.0  0.44414  0.39264  0.24871  1.0000
  H   H1918     1.0  0.33957  0.37579  0.04668  1.0000
  H   H1919     1.0  0.34159  0.55523  0.04004  1.0000
  H   H1920     1.0  0.35911  0.53052  0.42918  1.0000
  C   C1130     1.0  0.40482  0.64230  0.45092  1.0000
  Fe  Fe170     1.0  0.23875  0.49431  0.38372  1.0000
  H   H1921     1.0  0.34947  0.53361  0.05763  1.0000
  H   H1922     1.0  0.32817  0.53996  0.99695  1.0000
  H   H1923     1.0  0.34482  0.50817  0.02693  1.0000
  H   H1924     1.0  0.38126  0.34381  0.06247  1.0000
  H   H1925     1.0  0.35434  0.32829  0.07110  1.0000
  H   H1926     1.0  0.45173  0.61334  0.30703  1.0000
  C   C1131     1.0  0.41227  0.56586  0.12795  1.0000
  H   H1927     1.0  0.25797  0.54683  0.41143  1.0000
  C   C1132     1.0  0.34128  0.52267  0.36293  1.0000
  H   H1928     1.0  0.43331  0.48257  0.18381  1.0000
  H   H1929     1.0  0.24893  0.43767  0.13454  1.0000
  H   H1930     1.0  0.45301  0.56378  0.29567  1.0000
  C   C1133     1.0  0.25760  0.42586  0.10298  1.0000
  H   H1931     1.0  0.36132  0.54269  0.31426  1.0000
  H   H1932     1.0  0.28683  0.42452  0.09067  1.0000
  N   N79       1.0  0.25525  0.44041  0.28123  1.0000
  C   C1134     1.0  0.44116  0.60408  0.31041  1.0000
  C   C1135     1.0  0.45275  0.64891  0.07525  1.0000
  C   C1136     1.0  0.26996  0.45158  0.26206  1.0000
  H   H1933     1.0  0.35406  0.57561  0.35597  1.0000
  C   C1137     1.0  0.28051  0.44492  0.24241  1.0000
  H   H1934     1.0  0.27423  0.47219  0.07381  1.0000
  H   H1935     1.0  0.46161  0.36760  0.23558  1.0000
  C   C1138     1.0  0.34867  0.55594  0.01867  1.0000
  C   C1139     1.0  0.44200  0.60436  0.22004  1.0000
  H   H1936     1.0  0.26731  0.46156  0.24845  1.0000
  C   C1140     1.0  0.45027  0.45253  0.18754  1.0000
  H   H1937     1.0  0.35088  0.40265  0.14152  1.0000
  H   H1938     1.0  0.42471  0.56892  0.11713  1.0000
  H   H1939     1.0  0.28651  0.43755  0.25445  1.0000
  H   H1940     1.0  0.28966  0.45467  0.22693  1.0000
  H   H1941     1.0  0.44389  0.59389  0.06463  1.0000
  H   H1942     1.0  0.26789  0.41525  0.26861  1.0000
  H   H1943     1.0  0.45570  0.46264  0.19417  1.0000
  C   C1141     1.0  0.37529  0.33617  0.08323  1.0000
  H   H1944     1.0  0.43201  0.60883  0.30313  1.0000
  H   H1945     1.0  0.46544  0.43805  0.19646  1.0000
  H   H1946     1.0  0.23778  0.56664  0.38635  1.0000
  H   H1947     1.0  0.46972  0.48989  0.27224  1.0000
  H   H1948     1.0  0.37255  0.54314  0.37997  1.0000
  H   H1949     1.0  0.23775  0.54274  0.42258  1.0000
  S   S338      1.0  0.30114  0.50496  0.99938  1.0000
  C   C1142     1.0  0.34812  0.51278  0.04409  1.0000
  H   H1950     1.0  0.27738  0.45667  0.27449  1.0000
  H   H1951     1.0  0.42889  0.40164  0.24518  1.0000
  C   C1143     1.0  0.34824  0.55097  0.35849  1.0000
  C   C1144     1.0  0.44610  0.65287  0.05267  1.0000
  C   C1145     1.0  0.38283  0.33523  0.10511  1.0000
  H   H1952     1.0  0.34021  0.52140  0.34167  1.0000
  H   H1953     1.0  0.45484  0.35227  0.04561  1.0000
  H   H1954     1.0  0.45323  0.58660  0.30773  1.0000
  H   H1955     1.0  0.46953  0.44571  0.23758  1.0000
  H   H1956     1.0  0.42126  0.63114  0.43222  1.0000
  C   C1146     1.0  0.33154  0.53295  0.01471  1.0000
  H   H1957     1.0  0.26953  0.43099  0.30636  1.0000
  C   C1147     1.0  0.45000  0.57935  0.25810  1.0000
  H   H1958     1.0  0.27920  0.56768  0.39658  1.0000
  N   N80       1.0  0.45008  0.59456  0.26569  1.0000
  H   H1959     1.0  0.23309  0.57413  0.42530  1.0000
  H   H1960     1.0  0.44817  0.41385  0.26917  1.0000
  S   S339      1.0  0.43585  0.32956  0.10048  1.0000
  H   H1961     1.0  0.34205  0.52194  0.42078  1.0000
  H   H1962     1.0  0.40713  0.55419  0.12580  1.0000
  H   H1963     1.0  0.36636  0.56574  0.37143  1.0000
  C   C1148     1.0  0.46586  0.35259  0.03234  1.0000
  H   H1964     1.0  0.41630  0.58893  0.15319  1.0000
  S   S340      1.0  0.45473  0.33423  0.14802  1.0000
  N   N81       1.0  0.44746  0.43282  0.23520  1.0000
  C   C1149     1.0  0.45074  0.41731  0.24568  1.0000
  C   C1150     1.0  0.45701  0.44447  0.24628  1.0000
  C   C1151     1.0  0.45287  0.43726  0.20330  1.0000
  C   C1152     1.0  0.43038  0.43123  0.24513  1.0000
  C   C1153     1.0  0.27120  0.46435  0.09544  1.0000
  C   C1154     1.0  0.45390  0.44090  0.27883  1.0000
  H   H1965     1.0  0.46321  0.41800  0.23782  1.0000
  C   C1155     1.0  0.42525  0.44619  0.24746  1.0000
  C   C1156     1.0  0.46735  0.39969  0.16712  1.0000
  H   H1966     1.0  0.23623  0.44155  0.31413  1.0000
  H   H1967     1.0  0.45565  0.45630  0.23888  1.0000
  S   S341      1.0  0.41704  0.32775  0.16573  1.0000
  S   S342      1.0  0.42206  0.62282  0.98748  1.0000
  H   H1968     1.0  0.44710  0.42826  0.19437  1.0000
  H   H1969     1.0  0.42418  0.42591  0.23116  1.0000
  H   H1970     1.0  0.42572  0.42309  0.26671  1.0000
  H   H1971     1.0  0.46917  0.58090  0.18729  1.0000
  H   H1972     1.0  0.28902  0.41312  0.05055  1.0000
  C   C1157     1.0  0.32401  0.48937  0.99809  1.0000
  H   H1973     1.0  0.46013  0.43240  0.28692  1.0000
  H   H1974     1.0  0.45841  0.45168  0.28475  1.0000
  H   H1975     1.0  0.44150  0.43663  0.28985  1.0000
  C   C1158     1.0  0.46836  0.62253  0.24984  1.0000
  C   C1159     1.0  0.31931  0.53122  0.04221  1.0000
  H   H1976     1.0  0.34253  0.55271  0.34084  1.0000
  H   H1977     1.0  0.41398  0.44539  0.24216  1.0000
  H   H1978     1.0  0.43314  0.45711  0.23333  1.0000
  H   H1979     1.0  0.42305  0.44708  0.26968  1.0000
  N   N82       1.0  0.35000  0.37095  0.11123  1.0000
  C   C1160     1.0  0.34020  0.35452  0.12450  1.0000
  C   C1161     1.0  0.34391  0.37787  0.08700  1.0000
  C   C1162     1.0  0.34835  0.37991  0.13341  1.0000
  C   C1163     1.0  0.36643  0.37016  0.10141  1.0000
  C   C1164     1.0  0.34239  0.34614  0.15309  1.0000
  C   C1165     1.0  0.34329  0.36898  0.06406  1.0000
  C   C1166     1.0  0.35177  0.39774  0.12289  1.0000
  C   C1167     1.0  0.37866  0.38548  0.08581  1.0000
  H   H1980     1.0  0.32775  0.35419  0.12812  1.0000
  H   H1981     1.0  0.34228  0.34697  0.11008  1.0000
  H   H1982     1.0  0.35050  0.38996  0.07591  1.0000
  H   H1983     1.0  0.33202  0.37877  0.09528  1.0000
  H   H1984     1.0  0.33629  0.37623  0.14702  1.0000
  H   H1985     1.0  0.35575  0.37730  0.14796  1.0000
  H   H1986     1.0  0.37062  0.36499  0.11963  1.0000
  H   H1987     1.0  0.36736  0.36202  0.08792  1.0000
  H   H1988     1.0  0.23756  0.36481  0.18180  1.0000
  H   H1989     1.0  0.28855  0.46180  0.03809  1.0000
  H   H1990     1.0  0.34360  0.56270  0.00339  1.0000
  H   H1991     1.0  0.30821  0.52378  0.04177  1.0000
  H   H1992     1.0  0.35467  0.36730  0.05466  1.0000
  H   H1993     1.0  0.33454  0.35767  0.07234  1.0000
  H   H1994     1.0  0.36341  0.40322  0.10879  1.0000
  C   C1168     1.0  0.27880  0.41765  0.05678  1.0000
  H   H1995     1.0  0.34304  0.40128  0.11226  1.0000
  C   C1169     1.0  0.36188  0.53378  0.38402  1.0000
  H   H1996     1.0  0.37464  0.39374  0.07134  1.0000
  H   H1997     1.0  0.38841  0.38290  0.07191  1.0000
  N   N83       1.0  0.41450  0.48822  0.14353  1.0000
  C   C1170     1.0  0.40012  0.48550  0.13300  1.0000
  C   C1171     1.0  0.41832  0.50493  0.14465  1.0000
  C   C1172     1.0  0.41094  0.47748  0.17286  1.0000
  C   C1173     1.0  0.42709  0.48467  0.12328  1.0000
  C   C1174     1.0  0.39224  0.46846  0.13536  1.0000
  C   C1175     1.0  0.42123  0.51716  0.11633  1.0000
  C   C1176     1.0  0.42106  0.48193  0.19241  1.0000
  C   C1177     1.0  0.44338  0.48803  0.12815  1.0000
  H   H1998     1.0  0.39125  0.49022  0.14461  1.0000
  H   H1999     1.0  0.40250  0.49179  0.11031  1.0000
  H   H2000     1.0  0.42857  0.50793  0.15280  1.0000
  H   H2001     1.0  0.40885  0.50699  0.16010  1.0000
  H   H2002     1.0  0.39901  0.47652  0.18483  1.0000
  H   H2003     1.0  0.41128  0.46549  0.17171  1.0000
  H   H2004     1.0  0.42411  0.47217  0.12378  1.0000
  H   H2005     1.0  0.42801  0.49058  0.10089  1.0000
  H   H2006     1.0  0.39989  0.46287  0.12313  1.0000
  H   H2007     1.0  0.38772  0.46141  0.15768  1.0000
  H   H2008     1.0  0.38205  0.46822  0.12649  1.0000
  H   H2009     1.0  0.42482  0.52890  0.11952  1.0000
  H   H2010     1.0  0.43065  0.51601  0.09971  1.0000
  H   H2011     1.0  0.41060  0.51685  0.10894  1.0000
  H   H2012     1.0  0.41703  0.47293  0.21292  1.0000
  C   C1178     1.0  0.27826  0.45670  0.03163  1.0000
  C   C1179     1.0  0.46633  0.60481  0.25508  1.0000
  C   C1180     1.0  0.47108  0.59293  0.17614  1.0000
  C   C1181     1.0  0.47355  0.39114  0.21160  1.0000
  H   H2013     1.0  0.27566  0.42229  0.03702  1.0000
  C   C1182     1.0  0.46592  0.62853  0.01853  1.0000
  H   H2014     1.0  0.27411  0.46667  0.02189  1.0000
  C   C1183     1.0  0.47640  0.62414  0.14675  1.0000
  H   H2015     1.0  0.46152  0.62371  0.04183  1.0000
  H   H2016     1.0  0.28215  0.56569  0.43173  1.0000
  S   S343      1.0  0.24457  0.46308  0.47461  1.0000
  H   H2017     1.0  0.26490  0.46783  0.30441  1.0000
  C   C1184     1.0  0.23479  0.56640  0.44418  1.0000
  C   C1185     1.0  0.43266  0.65161  0.44274  1.0000
  H   H2018     1.0  0.30714  0.53458  0.47387  1.0000
  S   S344      1.0  0.47811  0.35878  0.07545  1.0000
  H   H2019     1.0  0.46800  0.61884  0.00943  1.0000
  H   H2020     1.0  0.47469  0.49224  0.17087  1.0000
  C   C1186     1.0  0.25622  0.45699  0.31735  1.0000
  H   H2021     1.0  0.47808  0.37052  0.12938  1.0000
  H   H2022     1.0  0.47065  0.62812  0.22684  1.0000
  H   H2023     1.0  0.47889  0.62762  0.25582  1.0000
  H   H2024     1.0  0.47763  0.35985  0.16380  1.0000
  S   S345      1.0  0.37124  0.58289  0.47413  1.0000
  H   H2025     1.0  0.37029  0.54793  0.98349  1.0000
  H   H2026     1.0  0.38064  0.32475  0.14896  1.0000
  H   H2027     1.0  0.48088  0.39060  0.38811  1.0000
  H   H2028     1.0  0.47984  0.39338  0.22701  1.0000
  H   H2029     1.0  0.47950  0.32283  0.39409  1.0000
  H   H2030     1.0  0.46516  0.32265  0.06604  1.0000
  C   C1187     1.0  0.23368  0.57544  0.46709  1.0000
  H   H2031     1.0  0.25712  0.55810  0.47561  1.0000
  C   C1188     1.0  0.48085  0.34898  0.98926  1.0000
  C   C1189     1.0  0.48155  0.48285  0.20831  1.0000
  H   H2032     1.0  0.44914  0.61519  0.47794  1.0000
  H   H2033     1.0  0.48152  0.32521  0.03816  1.0000
  C   C1190     1.0  0.40316  0.65501  0.46208  1.0000
  H   H2034     1.0  0.23227  0.53147  0.46948  1.0000
  Fe  Fe171     1.0  0.43209  0.53187  0.65808  1.0000
  S   S346      1.0  0.42329  0.53434  0.70194  1.0000
  S   S347      1.0  0.43927  0.50997  0.65276  1.0000
  Fe  Fe172     1.0  0.41937  0.55793  0.63021  1.0000
  S   S348      1.0  0.40959  0.56185  0.67221  1.0000
  S   S349      1.0  0.41358  0.57397  0.59481  1.0000
  Fe  Fe173     1.0  0.43211  0.56008  0.68203  1.0000
  S   S350      1.0  0.43924  0.57824  0.70529  1.0000
  Fe  Fe174     1.0  0.40169  0.53611  0.68854  1.0000
  S   S351      1.0  0.37844  0.52446  0.71964  1.0000
  S   S352      1.0  0.44260  0.55768  0.63859  1.0000
  S   S353      1.0  0.40975  0.53217  0.64597  1.0000
  H   H2035     1.0  0.27580  0.36573  0.91008  1.0000
  H   H2036     1.0  0.24322  0.52736  0.81569  1.0000
  H   H2037     1.0  0.25081  0.62700  0.96577  1.0000
  H   H2038     1.0  0.29956  0.37036  0.87593  1.0000
  H   H2039     1.0  0.45032  0.48269  0.65450  1.0000
  C   C1191     1.0  0.24665  0.51870  0.83074  1.0000
  C   C1192     1.0  0.25320  0.49113  0.87858  1.0000
  H   H2040     1.0  0.24359  0.37379  0.68310  1.0000
  H   H2041     1.0  0.24593  0.34702  0.76349  1.0000
  H   H2042     1.0  0.24048  0.57250  0.48239  1.0000
  H   H2043     1.0  0.43654  0.60329  0.51077  1.0000
  H   H2044     1.0  0.40885  0.61271  0.52341  1.0000
  H   H2045     1.0  0.27111  0.38073  0.68510  1.0000
  H   H2046     1.0  0.30111  0.36056  0.84871  1.0000
  S   S354      1.0  0.43514  0.33862  0.75361  1.0000
  Fe  Fe175     1.0  0.31218  0.45722  0.72336  1.0000
  S   S355      1.0  0.31622  0.44878  0.76604  1.0000
  S   S356      1.0  0.33098  0.47465  0.68750  1.0000
  Fe  Fe176     1.0  0.27919  0.43664  0.74007  1.0000
  S   S357      1.0  0.28080  0.42674  0.78435  1.0000
  S   S358      1.0  0.25558  0.43017  0.73109  1.0000
  Fe  Fe177     1.0  0.29246  0.45114  0.78318  1.0000
  S   S359      1.0  0.28510  0.46019  0.82144  1.0000
  Fe  Fe178     1.0  0.30434  0.42521  0.76357  1.0000
  S   S360      1.0  0.31453  0.40531  0.77851  1.0000
  S   S361      1.0  0.28912  0.46130  0.74054  1.0000
  S   S362      1.0  0.30208  0.43334  0.71925  1.0000
  Fe  Fe179     1.0  0.32316  0.52045  0.89181  1.0000
  S   S363      1.0  0.29916  0.51472  0.91977  1.0000
  S   S364      1.0  0.33161  0.50963  0.85663  1.0000
  Fe  Fe180     1.0  0.33524  0.54789  0.91563  1.0000
  S   S365      1.0  0.35859  0.56477  0.90980  1.0000
  H   H2047     1.0  0.38255  0.54519  0.63627  1.0000
  Fe  Fe181     1.0  0.30193  0.54043  0.90871  1.0000
  S   S366      1.0  0.28375  0.55117  0.89375  1.0000
  S   S367      1.0  0.33476  0.52250  0.92687  1.0000
  S   S368      1.0  0.32536  0.54603  0.87840  1.0000
  Fe  Fe182     1.0  0.43725  0.64006  0.94769  1.0000
  H   H2048     1.0  0.24502  0.62994  0.93307  1.0000
  H   H2049     1.0  0.29319  0.33478  0.88906  1.0000
  C   C1193     1.0  0.24608  0.45579  0.63333  1.0000
  Fe  Fe183     1.0  0.40241  0.63020  0.97288  1.0000
  S   S369      1.0  0.27676  0.33807  0.78440  1.0000
  H   H2050     1.0  0.27169  0.36069  0.68817  1.0000
  C   C1194     1.0  0.35936  0.52699  0.97618  1.0000
  C   C1195     1.0  0.46538  0.64090  0.88990  1.0000
  H   H2051     1.0  0.34564  0.35422  0.80624  1.0000
  H   H2052     1.0  0.25533  0.46509  0.53235  1.0000
  C   C1196     1.0  0.36685  0.34739  0.88940  1.0000
  C   C1197     1.0  0.37199  0.54933  0.63644  1.0000
  C   C1198     1.0  0.36390  0.57883  0.92832  1.0000
  H   H2053     1.0  0.29487  0.34711  0.91309  1.0000
  H   H2054     1.0  0.29715  0.39079  0.84474  1.0000
  C   C1199     1.0  0.38439  0.59732  0.93783  1.0000
  C   C1200     1.0  0.37957  0.58649  0.92297  1.0000
  H   H2055     1.0  0.39648  0.60298  0.93370  1.0000
  H   H2056     1.0  0.38805  0.58395  0.90735  1.0000
  C   C1201     1.0  0.26443  0.54035  0.90079  1.0000
  C   C1202     1.0  0.25424  0.54688  0.88759  1.0000
  H   H2057     1.0  0.35475  0.56401  0.56581  1.0000
  H   H2058     1.0  0.38063  0.32563  0.83240  1.0000
  C   C1203     1.0  0.25914  0.52527  0.91859  1.0000
  H   H2059     1.0  0.25820  0.55859  0.87397  1.0000
  H   H2060     1.0  0.26682  0.52017  0.92912  1.0000
  C   C1204     1.0  0.29858  0.47323  0.83157  1.0000
  C   C1205     1.0  0.29412  0.47680  0.85751  1.0000
  C   C1206     1.0  0.30421  0.48781  0.86558  1.0000
  C   C1207     1.0  0.31886  0.49531  0.84773  1.0000
  C   C1208     1.0  0.32346  0.49151  0.82204  1.0000
  C   C1209     1.0  0.31333  0.48056  0.81390  1.0000
  H   H2061     1.0  0.28277  0.47105  0.87138  1.0000
  H   H2062     1.0  0.30066  0.49045  0.88562  1.0000
  H   H2063     1.0  0.33484  0.49711  0.80827  1.0000
  H   H2064     1.0  0.31688  0.47789  0.79388  1.0000
  C   C1210     1.0  0.30456  0.38685  0.77801  1.0000
  C   C1211     1.0  0.29056  0.38468  0.77056  1.0000
  C   C1212     1.0  0.28223  0.36967  0.77230  1.0000
  C   C1213     1.0  0.28788  0.35678  0.78124  1.0000
  C   C1214     1.0  0.30199  0.35897  0.78828  1.0000
  C   C1215     1.0  0.31032  0.37399  0.78670  1.0000
  H   H2065     1.0  0.28602  0.39455  0.76404  1.0000
  H   H2066     1.0  0.27124  0.36806  0.76738  1.0000
  H   H2067     1.0  0.30650  0.34910  0.79472  1.0000
  H   H2068     1.0  0.32121  0.37568  0.79228  1.0000
  C   C1216     1.0  0.45735  0.50663  0.65503  1.0000
  H   H2069     1.0  0.44216  0.61098  0.85916  1.0000
  H   H2070     1.0  0.26165  0.40461  0.65297  1.0000
  H   H2071     1.0  0.45288  0.63436  0.75202  1.0000
  C   C1217     1.0  0.45967  0.49184  0.65517  1.0000
  H   H2072     1.0  0.45270  0.60668  0.77377  1.0000
  C   C1218     1.0  0.25046  0.34993  0.74011  1.0000
  H   H2073     1.0  0.23634  0.32741  0.73919  1.0000
  H   H2074     1.0  0.46740  0.64883  0.96879  1.0000
  H   H2075     1.0  0.47159  0.39104  0.76034  1.0000
  H   H2076     1.0  0.46557  0.35474  0.62078  1.0000
  H   H2077     1.0  0.36175  0.33617  0.74697  1.0000
  H   H2078     1.0  0.26002  0.38052  0.72916  1.0000
  H   H2079     1.0  0.38896  0.53860  0.59302  1.0000
  C   C1219     1.0  0.27155  0.34379  0.86260  1.0000
  H   H2080     1.0  0.34804  0.51964  0.97695  1.0000
  N   N84       1.0  0.24524  0.44452  0.59012  1.0000
  C   C1220     1.0  0.35360  0.34643  0.87465  1.0000
  H   H2081     1.0  0.35434  0.54930  0.96892  1.0000
  H   H2082     1.0  0.34069  0.53423  0.61717  1.0000
  C   C1221     1.0  0.47170  0.60412  0.84168  1.0000
  C   C1222     1.0  0.41088  0.56941  0.56332  1.0000
  C   C1223     1.0  0.40381  0.57854  0.54647  1.0000
  C   C1224     1.0  0.40124  0.57533  0.52134  1.0000
  C   C1225     1.0  0.40542  0.56269  0.51319  1.0000
  C   C1226     1.0  0.41253  0.55355  0.53002  1.0000
  C   C1227     1.0  0.41533  0.55694  0.55498  1.0000
  H   H2083     1.0  0.39993  0.58788  0.55330  1.0000
  H   H2084     1.0  0.38548  0.52692  0.55468  1.0000
  H   H2085     1.0  0.41581  0.54377  0.52376  1.0000
  H   H2086     1.0  0.42083  0.54985  0.56780  1.0000
  C   C1228     1.0  0.36501  0.51102  0.71039  1.0000
  C   C1229     1.0  0.36735  0.50951  0.68272  1.0000
  C   C1230     1.0  0.35674  0.49843  0.67590  1.0000
  C   C1231     1.0  0.34375  0.48873  0.69673  1.0000
  C   C1232     1.0  0.34134  0.49031  0.72441  1.0000
  C   C1233     1.0  0.35193  0.50146  0.73119  1.0000
  H   H2087     1.0  0.37739  0.51681  0.66671  1.0000
  H   H2088     1.0  0.35872  0.49713  0.65457  1.0000
  H   H2089     1.0  0.33129  0.48298  0.74056  1.0000
  H   H2090     1.0  0.35001  0.50257  0.75267  1.0000
  C   C1234     1.0  0.45780  0.58607  0.70915  1.0000
  C   C1235     1.0  0.25545  0.42074  0.58310  1.0000
  H   H2091     1.0  0.24383  0.38575  0.71997  1.0000
  H   H2092     1.0  0.45712  0.35600  0.82612  1.0000
  H   H2093     1.0  0.42144  0.61507  0.82399  1.0000
  H   H2094     1.0  0.37013  0.51087  0.57822  1.0000
  H   H2095     1.0  0.37585  0.52260  0.61914  1.0000
  C   C1236     1.0  0.46951  0.51840  0.65580  1.0000
  H   H2096     1.0  0.23626  0.46102  0.63200  1.0000
  C   C1237     1.0  0.46034  0.37588  0.70309  1.0000
  H   H2097     1.0  0.24562  0.45191  0.65620  1.0000
  C   C1238     1.0  0.39936  0.63104  0.53465  1.0000
  C   C1239     1.0  0.24400  0.51661  0.92220  1.0000
  H   H2098     1.0  0.44903  0.36809  0.71260  1.0000
  C   C1240     1.0  0.34966  0.52769  0.61419  1.0000
  H   H2099     1.0  0.42901  0.61343  0.48364  1.0000
  C   C1241     1.0  0.25947  0.41607  0.68669  1.0000
  C   C1242     1.0  0.24936  0.42057  0.70652  1.0000
  H   H2100     1.0  0.46102  0.36445  0.76113  1.0000
  H   H2101     1.0  0.44835  0.58479  0.81456  1.0000
  H   H2102     1.0  0.27162  0.41860  0.68587  1.0000
  H   H2103     1.0  0.25506  0.43693  0.62493  1.0000
  H   H2104     1.0  0.45174  0.62943  0.51290  1.0000
  H   H2105     1.0  0.34743  0.50326  0.61396  1.0000
  H   H2106     1.0  0.33019  0.50976  0.61376  1.0000
  N   N85       1.0  0.39432  0.47658  0.70752  1.0000
  C   C1243     1.0  0.39909  0.49268  0.71122  1.0000
  C   C1244     1.0  0.39984  0.47722  0.67664  1.0000
  C   C1245     1.0  0.40142  0.46555  0.72438  1.0000
  C   C1246     1.0  0.37702  0.47085  0.71789  1.0000
  C   C1247     1.0  0.39545  0.49397  0.74205  1.0000
  C   C1248     1.0  0.39227  0.48636  0.65626  1.0000
  C   C1249     1.0  0.41906  0.47087  0.71971  1.0000
  C   C1250     1.0  0.36979  0.45531  0.71248  1.0000
  H   H2107     1.0  0.41160  0.49798  0.70140  1.0000
  H   H2108     1.0  0.39329  0.50056  0.69978  1.0000
  H   H2109     1.0  0.39836  0.46535  0.67347  1.0000
  H   H2110     1.0  0.41243  0.48271  0.66865  1.0000
  H   H2111     1.0  0.39601  0.46292  0.74749  1.0000
  H   H2112     1.0  0.39915  0.45414  0.71932  1.0000
  H   H2113     1.0  0.37316  0.46924  0.74114  1.0000
  H   H2114     1.0  0.37141  0.47962  0.70845  1.0000
  H   H2115     1.0  0.40084  0.48674  0.75570  1.0000
  H   H2116     1.0  0.40013  0.50617  0.74209  1.0000
  H   H2117     1.0  0.38285  0.49120  0.75157  1.0000
  H   H2118     1.0  0.39724  0.48583  0.63439  1.0000
  H   H2119     1.0  0.37967  0.48144  0.66110  1.0000
  H   H2120     1.0  0.39473  0.49878  0.65592  1.0000
  H   H2121     1.0  0.42539  0.47271  0.69738  1.0000
  H   H2122     1.0  0.42293  0.46166  0.73266  1.0000
  H   H2123     1.0  0.42261  0.48153  0.72655  1.0000
  H   H2124     1.0  0.37167  0.45597  0.68961  1.0000
  H   H2125     1.0  0.35710  0.45232  0.72152  1.0000
  H   H2126     1.0  0.37403  0.44564  0.72291  1.0000
  H   H2127     1.0  0.40172  0.64388  0.52781  1.0000
  H   H2128     1.0  0.24376  0.36739  0.77965  1.0000
  H   H2129     1.0  0.44841  0.65385  0.88533  1.0000
  H   H2130     1.0  0.47222  0.38166  0.62976  1.0000
  H   H2131     1.0  0.34256  0.34365  0.89124  1.0000
  H   H2132     1.0  0.31094  0.34812  0.88550  1.0000
  H   H2133     1.0  0.38928  0.51357  0.58231  1.0000
  H   H2134     1.0  0.39608  0.62702  0.55798  1.0000
  C   C1251     1.0  0.46028  0.59960  0.71864  1.0000
  C   C1252     1.0  0.47831  0.63700  0.87573  1.0000
  H   H2135     1.0  0.26165  0.44754  0.53268  1.0000
  H   H2136     1.0  0.45437  0.39456  0.71937  1.0000
  H   H2137     1.0  0.24014  0.50482  0.93541  1.0000
  C   C1253     1.0  0.35790  0.59307  0.96347  1.0000
  H   H2138     1.0  0.46649  0.38937  0.59909  1.0000
  C   C1254     1.0  0.26308  0.45824  0.54006  1.0000
  C   C1255     1.0  0.46333  0.39097  0.70662  1.0000
  H   H2139     1.0  0.26841  0.49331  0.77807  1.0000
  C   C1256     1.0  0.35307  0.58228  0.94853  1.0000
  C   C1257     1.0  0.46718  0.61071  0.81434  1.0000
  C   C1258     1.0  0.23361  0.41723  0.70726  1.0000
  N   N86       1.0  0.48114  0.37209  0.77607  1.0000
  H   H2140     1.0  0.39567  0.58238  0.50863  1.0000
  C   C1259     1.0  0.24239  0.42909  0.58304  1.0000
  C   C1260     1.0  0.23279  0.45227  0.58398  1.0000
  C   C1261     1.0  0.23797  0.40470  0.66911  1.0000
  H   H2141     1.0  0.28186  0.37134  0.82821  1.0000
  C   C1262     1.0  0.42517  0.58609  0.83118  1.0000
  N   N87       1.0  0.42779  0.62906  0.52965  1.0000
  C   C1263     1.0  0.46580  0.36099  0.77958  1.0000
  H   H2142     1.0  0.46926  0.59129  0.84696  1.0000
  C   C1264     1.0  0.42743  0.61701  0.55576  1.0000
  H   H2143     1.0  0.26475  0.63494  0.93288  1.0000
  H   H2144     1.0  0.42150  0.57322  0.83827  1.0000
  H   H2145     1.0  0.24227  0.50752  0.82635  1.0000
  H   H2146     1.0  0.41512  0.63074  0.49765  1.0000
  H   H2147     1.0  0.25331  0.33562  0.70955  1.0000
  H   H2148     1.0  0.44337  0.63903  0.48772  1.0000
  H   H2149     1.0  0.42492  0.60526  0.55222  1.0000
  H   H2150     1.0  0.43896  0.61820  0.56017  1.0000
  C   C1265     1.0  0.47934  0.32469  0.85373  1.0000
  C   C1266     1.0  0.41302  0.62539  0.52063  1.0000
  C   C1267     1.0  0.25304  0.63497  0.94441  1.0000
  H   H2151     1.0  0.45253  0.62850  0.83353  1.0000
  H   H2152     1.0  0.42159  0.64662  0.55018  1.0000
  H   H2153     1.0  0.48101  0.39211  0.55310  1.0000
  C   C1268     1.0  0.37771  0.52998  0.59739  1.0000
  H   H2154     1.0  0.32665  0.49322  0.97526  1.0000
  H   H2155     1.0  0.44400  0.58691  0.84974  1.0000
  C   C1269     1.0  0.41556  0.61575  0.58337  1.0000
  H   H2156     1.0  0.37600  0.55153  0.55277  1.0000
  C   C1270     1.0  0.47406  0.48883  0.65598  1.0000
  H   H2157     1.0  0.26630  0.53192  0.83903  1.0000
  H   H2158     1.0  0.23999  0.43030  0.56198  1.0000
  H   H2159     1.0  0.46931  0.63273  0.76499  1.0000
  H   H2160     1.0  0.25619  0.34962  0.83589  1.0000
  C   C1271     1.0  0.26856  0.35816  0.90041  1.0000
  C   C1272     1.0  0.43853  0.61425  0.49429  1.0000
  C   C1273     1.0  0.29444  0.35958  0.87062  1.0000
  H   H2161     1.0  0.35872  0.55777  0.60895  1.0000
  H   H2162     1.0  0.24532  0.38765  0.76760  1.0000
  C   C1274     1.0  0.42878  0.62204  0.83410  1.0000
  S   S370      1.0  0.39254  0.33346  0.74559  1.0000
  H   H2163     1.0  0.47256  0.60552  0.79774  1.0000
  H   H2164     1.0  0.26230  0.46658  0.57697  1.0000
  Fe  Fe184     1.0  0.41407  0.32479  0.74546  1.0000
  H   H2165     1.0  0.34053  0.54575  0.57199  1.0000
  N   N88       1.0  0.37060  0.54392  0.79353  1.0000
  C   C1275     1.0  0.36117  0.54690  0.77244  1.0000
  C   C1276     1.0  0.38663  0.55443  0.78053  1.0000
  C   C1277     1.0  0.36308  0.54781  0.82019  1.0000
  C   C1278     1.0  0.37062  0.52701  0.79950  1.0000
  C   C1279     1.0  0.34396  0.53796  0.78250  1.0000
  C   C1280     1.0  0.39562  0.55221  0.75264  1.0000
  C   C1281     1.0  0.37364  0.55404  0.83787  1.0000
  C   C1282     1.0  0.38047  0.52169  0.81919  1.0000
  H   H2166     1.0  0.36171  0.55951  0.76585  1.0000
  H   H2167     1.0  0.36582  0.54372  0.75275  1.0000
  H   H2168     1.0  0.39411  0.55313  0.79524  1.0000
  H   H2169     1.0  0.38615  0.56680  0.77628  1.0000
  H   H2170     1.0  0.35680  0.55690  0.81525  1.0000
  H   H2171     1.0  0.35412  0.53759  0.83474  1.0000
  H   H2172     1.0  0.35878  0.51950  0.80951  1.0000
  H   H2173     1.0  0.37441  0.52379  0.77944  1.0000
  H   H2174     1.0  0.33799  0.53940  0.80305  1.0000
  H   H2175     1.0  0.33795  0.54240  0.76659  1.0000
  H   H2176     1.0  0.34249  0.52543  0.78393  1.0000
  H   H2177     1.0  0.39704  0.54026  0.75494  1.0000
  H   H2178     1.0  0.39036  0.55546  0.73492  1.0000
  H   H2179     1.0  0.40742  0.56006  0.74627  1.0000
  H   H2180     1.0  0.38149  0.54676  0.84301  1.0000
  H   H2181     1.0  0.36633  0.55437  0.85828  1.0000
  H   H2182     1.0  0.38048  0.56613  0.82703  1.0000
  H   H2183     1.0  0.39279  0.52799  0.81081  1.0000
  H   H2184     1.0  0.37979  0.50921  0.82103  1.0000
  H   H2185     1.0  0.37592  0.52265  0.84087  1.0000
  C   C1283     1.0  0.44834  0.61395  0.78727  1.0000
  H   H2186     1.0  0.44323  0.34942  0.80823  1.0000
  C   C1284     1.0  0.35237  0.55274  0.56042  1.0000
  C   C1285     1.0  0.24517  0.44160  0.62098  1.0000
  H   H2187     1.0  0.26448  0.37197  0.85055  1.0000
  C   C1286     1.0  0.27668  0.37195  0.84988  1.0000
  S   S371      1.0  0.46853  0.35194  0.68315  1.0000
  C   C1287     1.0  0.29826  0.34649  0.89084  1.0000
  H   H2188     1.0  0.36278  0.53428  0.55493  1.0000
  N   N89       1.0  0.27764  0.35811  0.87157  1.0000
  C   C1288     1.0  0.46984  0.57889  0.70419  1.0000
  C   C1289     1.0  0.23392  0.52305  0.90854  1.0000
  H   H2189     1.0  0.43132  0.63452  0.82287  1.0000
  H   H2190     1.0  0.46604  0.60786  0.85994  1.0000
  N   N90       1.0  0.36493  0.53808  0.59583  1.0000
  H   H2191     1.0  0.39035  0.34447  0.81028  1.0000
  C   C1290     1.0  0.28441  0.38807  0.85246  1.0000
  C   C1291     1.0  0.26155  0.34230  0.92253  1.0000
  C   C1292     1.0  0.24824  0.36448  0.69372  1.0000
  S   S372      1.0  0.41752  0.64621  0.93143  1.0000
  H   H2192     1.0  0.36221  0.54124  0.65343  1.0000
  C   C1293     1.0  0.36846  0.55217  0.60710  1.0000
  C   C1294     1.0  0.47190  0.37099  0.68722  1.0000
  C   C1295     1.0  0.36459  0.54380  0.56540  1.0000
  H   H2193     1.0  0.35052  0.52325  0.63614  1.0000
  H   H2194     1.0  0.46808  0.56846  0.69698  1.0000
  Fe  Fe185     1.0  0.44820  0.33375  0.71480  1.0000
  H   H2195     1.0  0.37721  0.35658  0.87608  1.0000
  H   H2196     1.0  0.36302  0.33782  0.81105  1.0000
  H   H2197     1.0  0.42204  0.58945  0.81093  1.0000
  H   H2198     1.0  0.45898  0.36337  0.59084  1.0000
  H   H2199     1.0  0.36866  0.35506  0.82146  1.0000
  H   H2200     1.0  0.41394  0.62702  0.58634  1.0000
  C   C1296     1.0  0.24057  0.37611  0.76445  1.0000
  H   H2201     1.0  0.26591  0.42703  0.56580  1.0000
  H   H2202     1.0  0.46786  0.52983  0.65561  1.0000
  C   C1297     1.0  0.47222  0.38055  0.60801  1.0000
  H   H2203     1.0  0.23544  0.46444  0.58567  1.0000
  C   C1298     1.0  0.44261  0.59133  0.82816  1.0000
  H   H2204     1.0  0.47818  0.50909  0.59707  1.0000
  H   H2205     1.0  0.35278  0.55549  0.53748  1.0000
  H   H2206     1.0  0.45005  0.36364  0.62589  1.0000
  C   C1299     1.0  0.37357  0.60061  0.95835  1.0000
  H   H2207     1.0  0.25513  0.65216  0.96762  1.0000
  C   C1300     1.0  0.46131  0.36462  0.61123  1.0000
  H   H2208     1.0  0.26304  0.35503  0.73603  1.0000
  H   H2209     1.0  0.25144  0.40913  0.57960  1.0000
  C   C1301     1.0  0.36613  0.34218  0.82882  1.0000
  C   C1302     1.0  0.24730  0.37640  0.73336  1.0000
  C   C1303     1.0  0.44389  0.61742  0.83672  1.0000
  H   H2210     1.0  0.28078  0.39710  0.83851  1.0000
  H   H2211     1.0  0.27110  0.33302  0.87828  1.0000
  H   H2212     1.0  0.47327  0.62326  0.80736  1.0000
  C   C1304     1.0  0.45665  0.63102  0.77169  1.0000
  N   N91       1.0  0.27226  0.51081  0.83326  1.0000
  C   C1305     1.0  0.28945  0.51798  0.82314  1.0000
  C   C1306     1.0  0.26867  0.49817  0.81863  1.0000
  C   C1307     1.0  0.26831  0.50394  0.86489  1.0000
  C   C1308     1.0  0.26428  0.52351  0.82613  1.0000
  C   C1309     1.0  0.29615  0.52948  0.83889  1.0000
  C   C1310     1.0  0.27256  0.50344  0.78605  1.0000
  H   H2213     1.0  0.34098  0.57662  0.95270  1.0000
  H   H2214     1.0  0.42165  0.62088  0.85566  1.0000
  H   H2215     1.0  0.29587  0.50881  0.82456  1.0000
  H   H2216     1.0  0.29284  0.52446  0.80039  1.0000
  H   H2217     1.0  0.25639  0.49167  0.82588  1.0000
  H   H2218     1.0  0.27496  0.48921  0.82431  1.0000
  H   H2219     1.0  0.27750  0.49866  0.87088  1.0000
  H   H2220     1.0  0.26792  0.51318  0.87609  1.0000
  H   H2221     1.0  0.35478  0.35858  0.86286  1.0000
  C   C1311     1.0  0.25303  0.65167  0.94661  1.0000
  H   H2222     1.0  0.30875  0.53397  0.82931  1.0000
  H   H2223     1.0  0.29115  0.53964  0.83716  1.0000
  H   H2224     1.0  0.29471  0.52384  0.86150  1.0000
  H   H2225     1.0  0.26677  0.51247  0.77851  1.0000
  H   H2226     1.0  0.28517  0.50751  0.77649  1.0000
  H   H2227     1.0  0.37424  0.56054  0.64219  1.0000
  H   H2228     1.0  0.27005  0.33554  0.92565  1.0000
  H   H2229     1.0  0.27504  0.46531  0.52947  1.0000
  N   N92       1.0  0.24292  0.36135  0.72546  1.0000
  H   H2230     1.0  0.26942  0.53081  0.80399  1.0000
  S   S373      1.0  0.31195  0.54455  0.94490  1.0000
  Fe  Fe186     1.0  0.31088  0.51903  0.95379  1.0000
  H   H2231     1.0  0.44875  0.36960  0.80592  1.0000
  H   H2232     1.0  0.25398  0.48023  0.87251  1.0000
  H   H2233     1.0  0.45106  0.60529  0.72228  1.0000
  H   H2234     1.0  0.24719  0.34488  0.87350  1.0000
  H   H2235     1.0  0.41981  0.61078  0.60166  1.0000
  H   H2236     1.0  0.43616  0.61250  0.78676  1.0000
  H   H2237     1.0  0.40431  0.60790  0.58483  1.0000
  H   H2238     1.0  0.25665  0.34423  0.94335  1.0000
  H   H2239     1.0  0.27950  0.34348  0.84277  1.0000
  H   H2240     1.0  0.27024  0.45041  0.57820  1.0000
  H   H2241     1.0  0.46711  0.34908  0.78012  1.0000
  H   H2242     1.0  0.45401  0.63908  0.78464  1.0000
  C   C1312     1.0  0.44088  0.62870  0.50604  1.0000
  H   H2243     1.0  0.25867  0.36337  0.89873  1.0000
  N   N93       1.0  0.45012  0.60848  0.81680  1.0000
  H   H2244     1.0  0.33783  0.36023  0.83739  1.0000
  H   H2245     1.0  0.25195  0.33508  0.91698  1.0000
  H   H2246     1.0  0.41849  0.59024  0.84785  1.0000
  C   C1313     1.0  0.26061  0.45501  0.57250  1.0000
  H   H2247     1.0  0.25124  0.48836  0.90196  1.0000
  C   C1314     1.0  0.36105  0.32635  0.76413  1.0000
  C   C1315     1.0  0.25378  0.40816  0.66807  1.0000
  H   H2248     1.0  0.37856  0.56114  0.59216  1.0000
  C   C1316     1.0  0.26584  0.36970  0.68085  1.0000
  H   H2249     1.0  0.28109  0.38925  0.87435  1.0000
  C   C1317     1.0  0.34292  0.51315  0.60526  1.0000
  H   H2250     1.0  0.23474  0.43247  0.63438  1.0000
  S   S374      1.0  0.45809  0.63310  0.92667  1.0000
  H   H2251     1.0  0.47571  0.47740  0.65614  1.0000
  H   H2252     1.0  0.48103  0.49010  0.57561  1.0000
  C   C1318     1.0  0.38057  0.51976  0.57691  1.0000
  H   H2253     1.0  0.24061  0.51842  0.85253  1.0000
  H   H2254     1.0  0.25850  0.41871  0.60363  1.0000
  H   H2255     1.0  0.43085  0.65372  0.51390  1.0000
  C   C1319     1.0  0.25544  0.34211  0.85700  1.0000
  H   H2256     1.0  0.34478  0.51501  0.58215  1.0000
  H   H2257     1.0  0.38915  0.62642  0.52732  1.0000
  C   C1320     1.0  0.45317  0.35910  0.80665  1.0000
  H   H2258     1.0  0.26817  0.37190  0.65747  1.0000
  H   H2259     1.0  0.25711  0.46472  0.62324  1.0000
  H   H2260     1.0  0.36619  0.53032  0.95374  1.0000
  C   C1321     1.0  0.47461  0.60589  0.72322  1.0000
  H   H2261     1.0  0.25503  0.32724  0.74392  1.0000
  H   H2262     1.0  0.47645  0.61638  0.73023  1.0000
  C   C1322     1.0  0.33696  0.35062  0.82700  1.0000
  C   C1323     1.0  0.23807  0.53856  0.48150  1.0000
  C   C1324     1.0  0.33806  0.33539  0.84612  1.0000
  H   H2263     1.0  0.32551  0.34865  0.82236  1.0000
  C   C1325     1.0  0.38154  0.33815  0.83047  1.0000
  H   H2264     1.0  0.24298  0.49465  0.87378  1.0000
  H   H2265     1.0  0.25078  0.32995  0.85658  1.0000
  H   H2266     1.0  0.44703  0.64334  0.56062  1.0000
  H   H2267     1.0  0.23716  0.43287  0.51254  1.0000
  C   C1326     1.0  0.47678  0.65220  0.83078  1.0000
  C   C1327     1.0  0.23901  0.53831  0.89155  1.0000
  H   H2268     1.0  0.24179  0.53061  0.49731  1.0000
  C   C1328     1.0  0.24852  0.33426  0.73240  1.0000
  S   S375      1.0  0.40106  0.55751  0.48318  1.0000
  C   C1329     1.0  0.43086  0.64525  0.53356  1.0000
  C   C1330     1.0  0.45833  0.65070  0.87454  1.0000
  C   C1331     1.0  0.47782  0.40140  0.69387  1.0000
  H   H2269     1.0  0.38599  0.34154  0.84776  1.0000
  C   C1332     1.0  0.23919  0.65169  0.89462  1.0000
  H   H2270     1.0  0.47091  0.38752  0.79703  1.0000
  H   H2271     1.0  0.24358  0.35418  0.68653  1.0000
  H   H2272     1.0  0.25009  0.64802  0.89147  1.0000
  C   C1333     1.0  0.47818  0.38777  0.77612  1.0000
  H   H2273     1.0  0.36307  0.35029  0.90979  1.0000
  C   C1334     1.0  0.44612  0.65104  0.54100  1.0000
  H   H2274     1.0  0.34943  0.59556  0.97921  1.0000
  S   S376      1.0  0.48097  0.34234  0.95882  1.0000
  N   N94       1.0  0.35287  0.33591  0.85516  1.0000
  H   H2275     1.0  0.48081  0.32633  0.87390  1.0000
  H   H2276     1.0  0.48168  0.63167  0.96014  1.0000
  H   H2277     1.0  0.48068  0.41268  0.59709  1.0000
  H   H2278     1.0  0.37006  0.33635  0.89543  1.0000
  H   H2279     1.0  0.32793  0.33200  0.86479  1.0000
  H   H2280     1.0  0.33603  0.32635  0.83449  1.0000
  H   H2281     1.0  0.45626  0.65256  0.52324  1.0000
  H   H2282     1.0  0.23213  0.45323  0.56173  1.0000
  S   S377      1.0  0.48136  0.41966  0.70118  1.0000
  H   H2283     1.0  0.48182  0.37250  0.55876  1.0000
  H   H2284     1.0  0.48154  0.46333  0.58044  1.0000
  Fe  Fe187     1.0  0.43230  0.95937  0.24209  1.0000
  S   S378      1.0  0.42694  0.95287  0.20332  1.0000
  H   H2285     1.0  0.39263  0.74601  0.45563  1.0000
  Fe  Fe188     1.0  0.42579  0.92512  0.27414  1.0000
  S   S379      1.0  0.42049  0.91605  0.23786  1.0000
  S   S380      1.0  0.42757  0.91005  0.31517  1.0000
  Fe  Fe189     1.0  0.44082  0.93537  0.21122  1.0000
  S   S381      1.0  0.45718  0.93261  0.17325  1.0000
  Fe  Fe190     1.0  0.40685  0.93379  0.23240  1.0000
  S   S382      1.0  0.38281  0.92829  0.22441  1.0000
  S   S383      1.0  0.44750  0.94309  0.24779  1.0000
  S   S384      1.0  0.41078  0.94174  0.27090  1.0000
  S   S385      1.0  0.40590  0.79620  0.43643  1.0000
  S   S386      1.0  0.39325  0.83341  0.44788  1.0000
  H   H2286     1.0  0.46558  0.94534  0.33365  1.0000
  S   S387      1.0  0.36897  0.80828  0.42830  1.0000
  C   C1335     1.0  0.26647  0.94576  0.07277  1.0000
  Fe  Fe191     1.0  0.38720  0.80762  0.45233  1.0000
  C   C1336     1.0  0.47613  0.84740  0.02438  1.0000
  Fe  Fe192     1.0  0.37364  0.83356  0.42751  1.0000
  S   S388      1.0  0.37287  0.85200  0.38962  1.0000
  H   H2287     1.0  0.46941  0.76306  0.03394  1.0000
  C   C1337     1.0  0.46693  0.81930  0.04203  1.0000
  Fe  Fe193     1.0  0.25733  0.73329  0.44117  1.0000
  H   H2288     1.0  0.25104  0.78117  0.32252  1.0000
  H   H2289     1.0  0.25688  0.94461  0.16000  1.0000
  H   H2290     1.0  0.30523  0.82200  0.24956  1.0000
  H   H2291     1.0  0.32942  0.78513  0.42691  1.0000
  C   C1338     1.0  0.41361  0.94363  0.35105  1.0000
  S   S389      1.0  0.24716  0.72829  0.40543  1.0000
  Fe  Fe194     1.0  0.44614  0.79576  0.00498  1.0000
  S   S390      1.0  0.45610  0.80102  0.04115  1.0000
  H   H2292     1.0  0.47537  0.80930  0.07696  1.0000
  S   S391      1.0  0.42248  0.78016  0.01195  1.0000
  Fe  Fe195     1.0  0.33094  0.86758  0.15954  1.0000
  S   S392      1.0  0.33345  0.87057  0.11273  1.0000
  S   S393      1.0  0.35329  0.87395  0.17346  1.0000
  Fe  Fe196     1.0  0.29598  0.85351  0.17283  1.0000
  S   S394      1.0  0.29601  0.85602  0.12722  1.0000
  S   S395      1.0  0.27322  0.84396  0.20648  1.0000
  Fe  Fe197     1.0  0.31710  0.84692  0.12391  1.0000
  S   S396      1.0  0.32092  0.82756  0.10288  1.0000
  Fe  Fe198     1.0  0.31217  0.87944  0.11990  1.0000
  S   S397      1.0  0.31084  0.90037  0.08767  1.0000
  S   S398      1.0  0.31619  0.84296  0.17041  1.0000
  S   S399      1.0  0.31052  0.87782  0.16590  1.0000
  C   C1339     1.0  0.31214  0.82297  0.07621  1.0000
  C   C1340     1.0  0.30455  0.83280  0.06236  1.0000
  C   C1341     1.0  0.29747  0.82859  0.04164  1.0000
  C   C1342     1.0  0.29817  0.81468  0.03414  1.0000
  C   C1343     1.0  0.30602  0.80499  0.04758  1.0000
  C   C1344     1.0  0.31282  0.80905  0.06872  1.0000
  H   H2293     1.0  0.30397  0.84357  0.06784  1.0000
  H   H2294     1.0  0.30640  0.79413  0.04236  1.0000
  H   H2295     1.0  0.31838  0.80119  0.07970  1.0000
  C   C1345     1.0  0.31103  0.91800  0.09682  1.0000
  C   C1346     1.0  0.31403  0.93169  0.07527  1.0000
  C   C1347     1.0  0.31436  0.94596  0.08184  1.0000
  C   C1348     1.0  0.31158  0.94658  0.11007  1.0000
  C   C1349     1.0  0.30833  0.93288  0.13167  1.0000
  C   C1350     1.0  0.30806  0.91861  0.12507  1.0000
  H   H2296     1.0  0.31626  0.93127  0.05337  1.0000
  H   H2297     1.0  0.30601  0.93328  0.15357  1.0000
  H   H2298     1.0  0.30549  0.90810  0.14183  1.0000
  C   C1351     1.0  0.38250  0.73682  0.46970  1.0000
  H   H2299     1.0  0.38408  0.81290  0.04672  1.0000
  H   H2300     1.0  0.41999  0.87947  0.45184  1.0000
  C   C1352     1.0  0.27011  0.92770  0.11282  1.0000
  Fe  Fe199     1.0  0.29403  0.79253  0.98394  1.0000
  H   H2301     1.0  0.27099  0.91580  0.07863  1.0000
  H   H2302     1.0  0.40919  0.89608  0.46735  1.0000
  H   H2303     1.0  0.28285  0.93188  0.10542  1.0000
  H   H2304     1.0  0.26498  0.96240  0.03605  1.0000
  H   H2305     1.0  0.43509  0.96029  0.37754  1.0000
  C   C1353     1.0  0.45557  0.71936  0.03950  1.0000
  H   H2306     1.0  0.23837  0.80353  0.06507  1.0000
  H   H2307     1.0  0.39788  0.82085  0.01410  1.0000
  C   C1354     1.0  0.43514  0.97462  0.32667  1.0000
  H   H2308     1.0  0.26392  0.96992  0.06613  1.0000
  H   H2309     1.0  0.42475  0.71584  0.06424  1.0000
  H   H2310     1.0  0.38584  0.77397  0.99869  1.0000
  H   H2311     1.0  0.46273  0.70046  0.40681  1.0000
  C   C1355     1.0  0.29579  0.75616  0.44659  1.0000
  C   C1356     1.0  0.47558  0.81992  0.06216  1.0000
  H   H2312     1.0  0.45311  0.96472  0.28909  1.0000
  C   C1357     1.0  0.46603  0.90752  0.20083  1.0000
  H   H2313     1.0  0.33810  0.82542  0.02274  1.0000
  N   N95       1.0  0.44176  0.96080  0.33320  1.0000
  H   H2314     1.0  0.35626  0.77630  0.42404  1.0000
  H   H2315     1.0  0.36836  0.89151  0.46245  1.0000
  H   H2316     1.0  0.29086  0.81351  0.23418  1.0000
  C   C1358     1.0  0.37193  0.76262  0.43871  1.0000
  C   C1359     1.0  0.38840  0.86778  0.36874  1.0000
  C   C1360     1.0  0.38569  0.87900  0.34765  1.0000
  C   C1361     1.0  0.39764  0.89190  0.33085  1.0000
  C   C1362     1.0  0.41240  0.89375  0.33519  1.0000
  C   C1363     1.0  0.41516  0.88251  0.35615  1.0000
  C   C1364     1.0  0.40325  0.86948  0.37271  1.0000
  H   H2317     1.0  0.37426  0.87770  0.34431  1.0000
  H   H2318     1.0  0.39538  0.90048  0.31473  1.0000
  H   H2319     1.0  0.42661  0.88378  0.35938  1.0000
  H   H2320     1.0  0.40555  0.86073  0.38842  1.0000
  H   H2321     1.0  0.43845  0.70671  0.09819  1.0000
  C   C1365     1.0  0.39018  0.73776  0.99599  1.0000
  H   H2322     1.0  0.23690  0.79744  0.31248  1.0000
  H   H2323     1.0  0.26415  0.78940  0.08106  1.0000
  H   H2324     1.0  0.46038  0.83286  0.00794  1.0000
  C   C1366     1.0  0.37459  0.91249  0.21177  1.0000
  C   C1367     1.0  0.35884  0.90942  0.21223  1.0000
  C   C1368     1.0  0.35205  0.89759  0.20097  1.0000
  C   C1369     1.0  0.36094  0.88863  0.18909  1.0000
  C   C1370     1.0  0.37661  0.89150  0.18919  1.0000
  C   C1371     1.0  0.38341  0.90336  0.20032  1.0000
  H   H2325     1.0  0.35184  0.91627  0.22130  1.0000
  H   H2326     1.0  0.33994  0.89539  0.20150  1.0000
  H   H2327     1.0  0.38362  0.88464  0.18014  1.0000
  H   H2328     1.0  0.39554  0.90558  0.19966  1.0000
  S   S400      1.0  0.47767  0.71307  0.45753  1.0000
  C   C1372     1.0  0.25659  0.80136  0.19618  1.0000
  H   H2329     1.0  0.36782  0.88090  0.41887  1.0000
  C   C1373     1.0  0.26073  0.82673  0.20552  1.0000
  H   H2330     1.0  0.27870  0.81813  0.18409  1.0000
  C   C1374     1.0  0.24197  0.80374  0.28990  1.0000
  H   H2331     1.0  0.43119  0.73577  0.06501  1.0000
  S   S401      1.0  0.24109  0.74761  0.45322  1.0000
  H   H2332     1.0  0.34305  0.76326  0.46678  1.0000
  C   C1375     1.0  0.41143  0.90938  0.41142  1.0000
  C   C1376     1.0  0.47168  0.67386  0.05857  1.0000
  H   H2333     1.0  0.28680  0.81192  0.29803  1.0000
  S   S402      1.0  0.31186  0.96428  0.11886  1.0000
  H   H2334     1.0  0.46219  0.70084  0.07979  1.0000
  N   N96       1.0  0.35818  0.81675  0.02654  1.0000
  H   H2335     1.0  0.37573  0.84164  0.04270  1.0000
  H   H2336     1.0  0.41100  0.92130  0.41262  1.0000
  S   S403      1.0  0.42852  0.74056  0.00412  1.0000
  H   H2337     1.0  0.23821  0.79678  0.27576  1.0000
  H   H2338     1.0  0.42919  0.94723  0.31044  1.0000
  H   H2339     1.0  0.26124  0.79272  0.18801  1.0000
  H   H2340     1.0  0.26744  0.92323  0.13624  1.0000
  H   H2341     1.0  0.35590  0.83900  0.00395  1.0000
  C   C1377     1.0  0.26651  0.81574  0.19395  1.0000
  C   C1378     1.0  0.41380  0.87471  0.43752  1.0000
  C   C1379     1.0  0.24835  0.81636  0.10694  1.0000
  C   C1380     1.0  0.25335  0.77400  0.27225  1.0000
  H   H2342     1.0  0.24577  0.80494  0.47389  1.0000
  H   H2343     1.0  0.41971  0.90573  0.42290  1.0000
  H   H2344     1.0  0.26228  0.81776  0.29564  1.0000
  H   H2345     1.0  0.41640  0.91026  0.38872  1.0000
  H   H2346     1.0  0.37843  0.72838  0.45816  1.0000
  H   H2347     1.0  0.35884  0.75826  0.00859  1.0000
  N   N97       1.0  0.25465  0.80219  0.10938  1.0000
  C   C1381     1.0  0.36286  0.76916  0.99239  1.0000
  C   C1382     1.0  0.46938  0.71385  0.10805  1.0000
  C   C1383     1.0  0.43097  0.66412  0.45449  1.0000
  C   C1384     1.0  0.30921  0.76731  0.42918  1.0000
  H   H2348     1.0  0.26176  0.93603  0.06428  1.0000
  H   H2349     1.0  0.26597  0.76735  0.34539  1.0000
  H   H2350     1.0  0.45830  0.70975  0.12460  1.0000
  C   C1385     1.0  0.41070  0.78010  0.45603  1.0000
  H   H2351     1.0  0.34419  0.81741  0.06640  1.0000
  H   H2352     1.0  0.26780  0.80945  0.13792  1.0000
  H   H2353     1.0  0.45855  0.72920  0.38363  1.0000
  C   C1386     1.0  0.45389  0.72665  0.36597  1.0000
  H   H2354     1.0  0.27244  0.96150  0.15287  1.0000
  N   N98       1.0  0.39062  0.88667  0.44954  1.0000
  H   H2355     1.0  0.35677  0.84531  0.04453  1.0000
  C   C1387     1.0  0.45227  0.66739  0.03315  1.0000
  H   H2356     1.0  0.42217  0.70746  0.02107  1.0000
  H   H2357     1.0  0.41342  0.94444  0.37288  1.0000
  C   C1388     1.0  0.31633  0.77451  0.47008  1.0000
  H   H2358     1.0  0.45777  0.97181  0.38459  1.0000
  C   C1389     1.0  0.26555  0.91338  0.10162  1.0000
  H   H2359     1.0  0.27922  0.94901  0.06363  1.0000
  C   C1390     1.0  0.46625  0.74007  0.06147  1.0000
  S   S404      1.0  0.29789  0.98530  0.05525  1.0000
  H   H2360     1.0  0.46825  0.96065  0.36730  1.0000
  H   H2361     1.0  0.37636  0.71553  0.99690  1.0000
  H   H2362     1.0  0.47978  0.68798  0.35014  1.0000
  H   H2363     1.0  0.25551  0.82810  0.13825  1.0000
  H   H2364     1.0  0.23841  0.81219  0.15309  1.0000
  H   H2365     1.0  0.41916  0.68731  0.99481  1.0000
  H   H2366     1.0  0.45781  0.66670  0.36787  1.0000
  C   C1391     1.0  0.42735  0.72672  0.98418  1.0000
  C   C1392     1.0  0.34988  0.82646  0.00976  1.0000
  C   C1393     1.0  0.47146  0.91308  0.14981  1.0000
  C   C1394     1.0  0.46508  0.91644  0.17508  1.0000
  C   C1395     1.0  0.46000  0.96794  0.36486  1.0000
  C   C1396     1.0  0.39623  0.87246  0.44693  1.0000
  N   N99       1.0  0.26860  0.79739  0.28634  1.0000
  C   C1397     1.0  0.46727  0.71325  0.07841  1.0000
  C   C1398     1.0  0.26331  0.78757  0.31659  1.0000
  H   H2367     1.0  0.38566  0.80172  0.02079  1.0000
  C   C1399     1.0  0.26753  0.78800  0.26496  1.0000
  H   H2368     1.0  0.47853  0.72114  0.31801  1.0000
  C   C1400     1.0  0.27232  0.77541  0.32432  1.0000
  C   C1401     1.0  0.35215  0.78793  0.05587  1.0000
  H   H2369     1.0  0.27357  0.76832  0.30895  1.0000
  H   H2370     1.0  0.28844  0.79753  0.12932  1.0000
  C   C1402     1.0  0.47889  0.90103  0.15010  1.0000
  H   H2371     1.0  0.24330  0.77414  0.28843  1.0000
  H   H2372     1.0  0.26681  0.80939  0.06501  1.0000
  C   C1403     1.0  0.39648  0.89294  0.47204  1.0000
  Fe  Fe200     1.0  0.35234  0.80366  0.47068  1.0000
  H   H2373     1.0  0.26799  0.79560  0.24410  1.0000
  H   H2374     1.0  0.27778  0.78317  0.26108  1.0000
  H   H2375     1.0  0.29271  0.79761  0.28231  1.0000
  H   H2376     1.0  0.45999  0.73590  0.34623  1.0000
  C   C1404     1.0  0.42381  0.71092  0.99840  1.0000
  C   C1405     1.0  0.26881  0.95044  0.14718  1.0000
  H   H2377     1.0  0.38066  0.75774  0.42720  1.0000
  C   C1406     1.0  0.33750  0.73969  0.44365  1.0000
  H   H2378     1.0  0.27007  0.90393  0.11227  1.0000
  H   H2379     1.0  0.37559  0.81716  0.98978  1.0000
  H   H2380     1.0  0.28272  0.95813  0.10425  1.0000
  H   H2381     1.0  0.44754  0.72520  0.03052  1.0000
  H   H2382     1.0  0.39179  0.86332  0.46739  1.0000
  S   S405      1.0  0.43758  0.98464  0.24585  1.0000
  H   H2383     1.0  0.46668  0.74281  0.08197  1.0000
  C   C1407     1.0  0.26963  0.80620  0.11759  1.0000
  C   C1408     1.0  0.42600  0.76097  0.45672  1.0000
  H   H2384     1.0  0.35204  0.87211  0.44949  1.0000
  H   H2385     1.0  0.45705  0.67617  0.39578  1.0000
  H   H2386     1.0  0.26309  0.81669  0.26036  1.0000
  H   H2387     1.0  0.27777  0.81659  0.10178  1.0000
  H   H2388     1.0  0.33656  0.73399  0.42630  1.0000
  H   H2389     1.0  0.31173  0.76896  0.40649  1.0000
  H   H2390     1.0  0.44337  0.72510  0.10538  1.0000
  S   S406      1.0  0.29183  0.76699  0.99946  1.0000
  H   H2391     1.0  0.45002  0.70674  0.04391  1.0000
  H   H2392     1.0  0.39348  0.89253  0.40416  1.0000
  H   H2393     1.0  0.47064  0.65617  0.09552  1.0000
  C   C1409     1.0  0.39496  0.89845  0.42115  1.0000
  C   C1410     1.0  0.31934  0.77648  0.44074  1.0000
  C   C1411     1.0  0.36332  0.83753  0.05391  1.0000
  H   H2394     1.0  0.45139  0.75630  0.06060  1.0000
  C   C1412     1.0  0.45469  0.71042  0.36238  1.0000
  H   H2395     1.0  0.46642  0.69281  0.33162  1.0000
  H   H2396     1.0  0.44709  0.67071  0.01600  1.0000
  H   H2397     1.0  0.26395  0.79506  0.33149  1.0000
  H   H2398     1.0  0.40738  0.95166  0.34128  1.0000
  N   N100      1.0  0.36059  0.75034  0.46331  1.0000
  Fe  Fe201     1.0  0.45245  0.70044  0.46846  1.0000
  C   C1413     1.0  0.25845  0.79906  0.08064  1.0000
  H   H2399     1.0  0.39162  0.86728  0.43122  1.0000
  H   H2400     1.0  0.25661  0.82636  0.09021  1.0000
  H   H2401     1.0  0.24316  0.92695  0.13895  1.0000
  C   C1414     1.0  0.42213  0.77405  0.44224  1.0000
  C   C1415     1.0  0.35046  0.79986  0.03054  1.0000
  H   H2402     1.0  0.24003  0.92823  0.10471  1.0000
  N   N101      1.0  0.47010  0.70662  0.36105  1.0000
  H   H2403     1.0  0.44460  0.94586  0.37054  1.0000
  H   H2404     1.0  0.45086  0.70938  0.34294  1.0000
  H   H2405     1.0  0.28820  0.82866  0.25157  1.0000
  C   C1416     1.0  0.24396  0.78807  0.13133  1.0000
  H   H2406     1.0  0.28270  0.79044  0.10168  1.0000
  C   C1417     1.0  0.42868  0.72355  0.07719  1.0000
  C   C1418     1.0  0.43012  0.94666  0.33247  1.0000
  H   H2407     1.0  0.42800  0.77948  0.42019  1.0000
  H   H2408     1.0  0.24707  0.77733  0.12764  1.0000
  H   H2409     1.0  0.47906  0.68524  0.41321  1.0000
  S   S407      1.0  0.44767  0.67642  0.45897  1.0000
  C   C1419     1.0  0.46884  0.69151  0.35284  1.0000
  H   H2410     1.0  0.47354  0.66492  0.98197  1.0000
  H   H2411     1.0  0.35997  0.73487  0.43591  1.0000
  H   H2412     1.0  0.38689  0.90611  0.42098  1.0000
  C   C1420     1.0  0.45980  0.75268  0.04562  1.0000
  N   N102      1.0  0.42340  0.86874  0.25671  1.0000
  C   C1421     1.0  0.43618  0.86718  0.23382  1.0000
  C   C1422     1.0  0.43049  0.88144  0.26870  1.0000
  C   C1423     1.0  0.41143  0.87368  0.24268  1.0000
  C   C1424     1.0  0.41669  0.85329  0.27850  1.0000
  C   C1425     1.0  0.43156  0.85555  0.21675  1.0000
  C   C1426     1.0  0.44297  0.87814  0.28395  1.0000
  C   C1427     1.0  0.39717  0.87612  0.26189  1.0000
  C   C1428     1.0  0.40752  0.85339  0.30819  1.0000
  H   H2413     1.0  0.44187  0.87861  0.21809  1.0000
  H   H2414     1.0  0.44539  0.86347  0.24284  1.0000
  H   H2415     1.0  0.42182  0.88463  0.28367  1.0000
  H   H2416     1.0  0.43592  0.89235  0.25154  1.0000
  H   H2417     1.0  0.41679  0.88461  0.22546  1.0000
  H   H2418     1.0  0.40663  0.86488  0.23231  1.0000
  H   H2419     1.0  0.40894  0.84526  0.27040  1.0000
  H   H2420     1.0  0.42604  0.84755  0.28205  1.0000
  H   H2421     1.0  0.42516  0.84387  0.23050  1.0000
  H   H2422     1.0  0.42491  0.85989  0.20201  1.0000
  H   H2423     1.0  0.44223  0.85424  0.20326  1.0000
  H   H2424     1.0  0.45383  0.87859  0.26879  1.0000
  H   H2425     1.0  0.44580  0.88737  0.29484  1.0000
  H   H2426     1.0  0.43909  0.86693  0.30035  1.0000
  H   H2427     1.0  0.38996  0.88063  0.24838  1.0000
  H   H2428     1.0  0.40002  0.88481  0.27369  1.0000
  H   H2429     1.0  0.38981  0.86503  0.27662  1.0000
  H   H2430     1.0  0.39640  0.84438  0.31477  1.0000
  H   H2431     1.0  0.40463  0.86438  0.30981  1.0000
  H   H2432     1.0  0.41381  0.85013  0.32438  1.0000
  H   H2433     1.0  0.24810  0.97623  0.14742  1.0000
  H   H2434     1.0  0.34531  0.78890  0.07620  1.0000
  C   C1429     1.0  0.41610  0.66584  0.46385  1.0000
  H   H2435     1.0  0.33778  0.79810  0.03346  1.0000
  C   C1430     1.0  0.29302  0.75396  0.47593  1.0000
  H   H2436     1.0  0.24934  0.77357  0.25284  1.0000
  C   C1431     1.0  0.26028  0.95926  0.05942  1.0000
  C   C1432     1.0  0.37815  0.77801  0.98678  1.0000
  H   H2437     1.0  0.44166  0.72718  0.37092  1.0000
  H   H2438     1.0  0.26575  0.96436  0.10956  1.0000
  S   S408      1.0  0.44598  0.72093  0.44461  1.0000
  H   H2439     1.0  0.36096  0.76283  0.40349  1.0000
  H   H2440     1.0  0.39243  0.73217  0.01621  1.0000
  S   S409      1.0  0.35573  0.82913  0.46851  1.0000
  H   H2441     1.0  0.47473  0.88893  0.22091  1.0000
  H   H2442     1.0  0.23760  0.83021  0.13166  1.0000
  H   H2443     1.0  0.32687  0.73364  0.46085  1.0000
  Fe  Fe202     1.0  0.43435  0.76665  0.98564  1.0000
  C   C1433     1.0  0.46556  0.65933  0.07811  1.0000
  H   H2444     1.0  0.37474  0.78033  0.40027  1.0000
  C   C1434     1.0  0.44466  0.95823  0.36228  1.0000
  H   H2445     1.0  0.46577  0.97851  0.34747  1.0000
  C   C1435     1.0  0.46351  0.94907  0.31252  1.0000
  H   H2446     1.0  0.40709  0.93171  0.35235  1.0000
  H   H2447     1.0  0.25290  0.90890  0.10613  1.0000
  H   H2448     1.0  0.43220  0.97577  0.30593  1.0000
  H   H2449     1.0  0.41876  0.72165  0.09563  1.0000
  H   H2450     1.0  0.36178  0.81338  0.06902  1.0000
  H   H2451     1.0  0.28385  0.78092  0.32630  1.0000
  C   C1436     1.0  0.24492  0.82339  0.21863  1.0000
  C   C1437     1.0  0.36530  0.77083  0.41564  1.0000
  N   N103      1.0  0.36210  0.93533  0.12783  1.0000
  C   C1438     1.0  0.37506  0.92777  0.13139  1.0000
  C   C1439     1.0  0.34786  0.92257  0.13223  1.0000
  C   C1440     1.0  0.35946  0.94363  0.15080  1.0000
  C   C1441     1.0  0.36673  0.94658  0.09875  1.0000
  C   C1442     1.0  0.39021  0.93853  0.13206  1.0000
  C   C1443     1.0  0.34960  0.91107  0.11392  1.0000
  C   C1444     1.0  0.34611  0.95159  0.15235  1.0000
  C   C1445     1.0  0.35365  0.94978  0.08499  1.0000
  H   H2452     1.0  0.37141  0.91825  0.15121  1.0000
  H   H2453     1.0  0.37817  0.92217  0.11404  1.0000
  H   H2454     1.0  0.33807  0.92728  0.12831  1.0000
  H   H2455     1.0  0.34386  0.91558  0.15473  1.0000
  H   H2456     1.0  0.35744  0.93544  0.17196  1.0000
  H   H2457     1.0  0.36983  0.95298  0.14860  1.0000
  H   H2458     1.0  0.37369  0.95801  0.09911  1.0000
  H   H2459     1.0  0.37445  0.94254  0.08320  1.0000
  H   H2460     1.0  0.39944  0.93226  0.13011  1.0000
  H   H2461     1.0  0.39402  0.94924  0.11441  1.0000
  H   H2462     1.0  0.38917  0.94149  0.15270  1.0000
  H   H2463     1.0  0.35587  0.91694  0.09157  1.0000
  H   H2464     1.0  0.35555  0.90245  0.12281  1.0000
  H   H2465     1.0  0.33799  0.90446  0.11416  1.0000
  H   H2466     1.0  0.34446  0.95559  0.17199  1.0000
  H   H2467     1.0  0.24040  0.83183  0.22771  1.0000
  H   H2468     1.0  0.34890  0.96214  0.13457  1.0000
  H   H2469     1.0  0.34797  0.93955  0.07880  1.0000
  H   H2470     1.0  0.35860  0.95932  0.06523  1.0000
  H   H2471     1.0  0.34476  0.95344  0.09856  1.0000
  H   H2472     1.0  0.47620  0.85805  0.00984  1.0000
  H   H2473     1.0  0.43476  0.75638  0.44580  1.0000
  C   C1446     1.0  0.25962  0.80952  0.28264  1.0000
  H   H2474     1.0  0.33496  0.94374  0.15359  1.0000
  H   H2475     1.0  0.47601  0.73593  0.00858  1.0000
  S   S410      1.0  0.28360  0.74452  0.43088  1.0000
  H   H2476     1.0  0.43391  0.93594  0.33931  1.0000
  C   C1447     1.0  0.24078  0.79804  0.20915  1.0000
  S   S411      1.0  0.28783  0.80915  0.01004  1.0000
  S   S412      1.0  0.24172  0.71068  0.47068  1.0000
  H   H2477     1.0  0.39688  0.98747  0.23425  1.0000
  H   H2478     1.0  0.33726  0.75182  0.43532  1.0000
  H   H2479     1.0  0.46137  0.91020  0.22037  1.0000
  H   H2480     1.0  0.36423  0.78883  0.05661  1.0000
  C   C1448     1.0  0.24490  0.79458  0.06772  1.0000
  H   H2481     1.0  0.27102  0.78263  0.13795  1.0000
  C   C1449     1.0  0.29259  0.81812  0.25241  1.0000
  H   H2482     1.0  0.46706  0.72027  0.99649  1.0000
  N   N104      1.0  0.45772  0.72337  0.06645  1.0000
  H   H2483     1.0  0.29136  0.83613  0.03143  1.0000
  C   C1450     1.0  0.35654  0.82048  0.05482  1.0000
  C   C1451     1.0  0.47364  0.89554  0.20108  1.0000
  H   H2484     1.0  0.31682  0.95647  0.06503  1.0000
  H   H2485     1.0  0.36223  0.83849  0.07599  1.0000
  Fe  Fe203     1.0  0.47081  0.73378  0.43632  1.0000
  H   H2486     1.0  0.34741  0.77608  0.05405  1.0000
  C   C1452     1.0  0.44234  0.71944  0.08795  1.0000
  C   C1453     1.0  0.45632  0.67753  0.37360  1.0000
  H   H2487     1.0  0.23711  0.81399  0.28612  1.0000
  H   H2488     1.0  0.44557  0.70202  0.38042  1.0000
  H   H2489     1.0  0.36638  0.86211  0.44165  1.0000
  H   H2490     1.0  0.27675  0.94333  0.15308  1.0000
  H   H2491     1.0  0.25659  0.76293  0.27863  1.0000
  C   C1454     1.0  0.27822  0.79329  0.12172  1.0000
  C   C1455     1.0  0.28529  0.80588  0.28120  1.0000
  H   H2492     1.0  0.47912  0.71631  0.06432  1.0000
  H   H2493     1.0  0.44457  0.67840  0.37236  1.0000
  C   C1456     1.0  0.27020  0.95404  0.11508  1.0000
  H   H2494     1.0  0.41619  0.86321  0.43796  1.0000
  C   C1457     1.0  0.46718  0.83314  0.02322  1.0000
  H   H2495     1.0  0.45450  0.74933  0.02918  1.0000
  N   N105      1.0  0.26273  0.94082  0.10469  1.0000
  H   H2496     1.0  0.39172  0.65635  0.46984  1.0000
  C   C1458     1.0  0.47353  0.70571  0.38955  1.0000
  H   H2497     1.0  0.37848  0.77176  0.44653  1.0000
  H   H2498     1.0  0.24549  0.78848  0.15266  1.0000
  H   H2499     1.0  0.35460  0.79611  0.01122  1.0000
  H   H2500     1.0  0.24962  0.79344  0.04614  1.0000
  C   C1459     1.0  0.37477  0.82076  0.00979  1.0000
  S   S413      1.0  0.33391  0.76242  0.98377  1.0000
  H   H2501     1.0  0.41867  0.88178  0.41533  1.0000
  C   C1460     1.0  0.46498  0.67783  0.03612  1.0000
  C   C1461     1.0  0.23659  0.94747  0.12205  1.0000
  H   H2502     1.0  0.47483  0.95265  0.29659  1.0000
  C   C1462     1.0  0.38597  0.81345  0.02398  1.0000
  H   H2503     1.0  0.45650  0.93903  0.30768  1.0000
  C   C1463     1.0  0.45597  0.96282  0.30995  1.0000
  H   H2504     1.0  0.41452  0.67532  0.47302  1.0000
  H   H2505     1.0  0.23427  0.94806  0.14444  1.0000
  C   C1464     1.0  0.23492  0.80916  0.22012  1.0000
  H   H2506     1.0  0.46936  0.98264  0.24629  1.0000
  H   H2507     1.0  0.23765  0.81474  0.09975  1.0000
  H   H2508     1.0  0.23716  0.78310  0.07999  1.0000
  H   H2509     1.0  0.24756  0.95576  0.06349  1.0000
  S   S414      1.0  0.45790  0.78110  0.98166  1.0000
  Fe  Fe204     1.0  0.31476  0.98474  0.08206  1.0000
  C   C1465     1.0  0.24555  0.93509  0.11760  1.0000
  H   H2510     1.0  0.27149  0.79854  0.46798  1.0000
  H   H2511     1.0  0.46508  0.97331  0.30774  1.0000
  S   S415      1.0  0.46722  0.74310  0.47463  1.0000
  H   H2512     1.0  0.25079  0.77915  0.46685  1.0000
  H   H2513     1.0  0.38109  0.74375  0.00157  1.0000
  C   C1466     1.0  0.35206  0.73738  0.45347  1.0000
  H   H2514     1.0  0.42418  0.97311  0.34261  1.0000
  H   H2515     1.0  0.34108  0.81065  0.98524  1.0000
  C   C1467     1.0  0.34796  0.82268  0.98178  1.0000
  H   H2516     1.0  0.37981  0.83353  0.00218  1.0000
  C   C1468     1.0  0.36463  0.87380  0.44111  1.0000
  C   C1469     1.0  0.48026  0.89239  0.17566  1.0000
  C   C1470     1.0  0.38550  0.72517  0.98098  1.0000
  C   C1471     1.0  0.37325  0.88152  0.46004  1.0000
  C   C1472     1.0  0.47031  0.72335  0.01521  1.0000
  H   H2517     1.0  0.24191  0.95925  0.10798  1.0000
  H   H2518     1.0  0.39286  0.91643  0.45864  1.0000
  H   H2519     1.0  0.47771  0.71754  0.39195  1.0000
  H   H2520     1.0  0.34807  0.72647  0.47095  1.0000
  C   C1473     1.0  0.24804  0.98627  0.13149  1.0000
  H   H2521     1.0  0.23678  0.66633  0.98068  1.0000
  H   H2522     1.0  0.40118  0.74618  0.98345  1.0000
  H   H2523     1.0  0.46964  0.68901  0.02086  1.0000
  C   C1474     1.0  0.24482  0.82184  0.13421  1.0000
  H   H2524     1.0  0.47071  0.91991  0.12984  1.0000
  H   H2525     1.0  0.47863  0.74225  0.05036  1.0000
  H   H2526     1.0  0.35757  0.72788  0.98114  1.0000
  C   C1475     1.0  0.42209  0.69946  0.98357  1.0000
  H   H2527     1.0  0.47858  0.71659  0.02057  1.0000
  H   H2528     1.0  0.47556  0.72555  0.10831  1.0000
  H   H2529     1.0  0.47661  0.70590  0.11406  1.0000
  C   C1476     1.0  0.39121  0.90720  0.47816  1.0000
  Fe  Fe205     1.0  0.44214  0.93433  0.60282  1.0000
  S   S416      1.0  0.42826  0.92392  0.64785  1.0000
  S   S417      1.0  0.46128  0.95723  0.58835  1.0000
  Fe  Fe206     1.0  0.42623  0.90581  0.58361  1.0000
  S   S418      1.0  0.41164  0.89386  0.62777  1.0000
  S   S419      1.0  0.42668  0.89396  0.54703  1.0000
  Fe  Fe207     1.0  0.40818  0.91733  0.62957  1.0000
  S   S420      1.0  0.38557  0.92164  0.65007  1.0000
  Fe  Fe208     1.0  0.43300  0.90150  0.64190  1.0000
  S   S421      1.0  0.43814  0.88508  0.67739  1.0000
  S   S422      1.0  0.42162  0.92922  0.58441  1.0000
  S   S423      1.0  0.44809  0.91196  0.59779  1.0000
  C   C1477     1.0  0.40324  0.77303  0.48458  1.0000
  H   H2530     1.0  0.27522  0.80115  0.85346  1.0000
  N   N106      1.0  0.29420  0.84482  0.64235  1.0000
  H   H2531     1.0  0.40111  0.75435  0.52102  1.0000
  C   C1478     1.0  0.46836  0.79937  0.83307  1.0000
  S   S424      1.0  0.44791  0.70704  0.50998  1.0000
  H   H2532     1.0  0.32973  0.75318  0.51473  1.0000
  H   H2533     1.0  0.38997  0.70052  0.95812  1.0000
  H   H2534     1.0  0.45854  0.82853  0.90366  1.0000
  N   N107      1.0  0.25686  0.78122  0.50586  1.0000
  N   N108      1.0  0.27787  0.89490  0.84525  1.0000
  H   H2535     1.0  0.41047  0.86609  0.73172  1.0000
  C   C1479     1.0  0.46658  0.97253  0.60465  1.0000
  H   H2536     1.0  0.45933  0.88556  0.57095  1.0000
  S   S425      1.0  0.43249  0.78049  0.94414  1.0000
  H   H2537     1.0  0.38521  0.76338  0.92339  1.0000
  C   C1480     1.0  0.35275  0.77429  0.97713  1.0000
  Fe  Fe209     1.0  0.45512  0.79634  0.94248  1.0000
  H   H2538     1.0  0.33252  0.73613  0.50436  1.0000
  H   H2539     1.0  0.28710  0.96044  0.77689  1.0000
  H   H2540     1.0  0.48132  0.68855  0.69144  1.0000
  H   H2541     1.0  0.30661  0.82561  0.67679  1.0000
  H   H2542     1.0  0.29989  0.82295  0.63947  1.0000
  C   C1481     1.0  0.24846  0.82400  0.71261  1.0000
  Fe  Fe210     1.0  0.26964  0.86198  0.72409  1.0000
  S   S426      1.0  0.26255  0.87031  0.76260  1.0000
  H   H2543     1.0  0.24144  0.74648  0.87968  1.0000
  Fe  Fe211     1.0  0.30338  0.86960  0.72479  1.0000
  S   S427      1.0  0.29926  0.87882  0.76338  1.0000
  S   S428      1.0  0.32542  0.86604  0.70024  1.0000
  Fe  Fe212     1.0  0.27881  0.85809  0.78017  1.0000
  S   S429      1.0  0.27081  0.84490  0.82630  1.0000
  Fe  Fe213     1.0  0.28328  0.89043  0.74312  1.0000
  S   S430      1.0  0.27816  0.91371  0.74307  1.0000
  S   S431      1.0  0.28405  0.84784  0.74343  1.0000
  S   S432      1.0  0.28929  0.88311  0.70303  1.0000
  H   H2544     1.0  0.35918  0.82471  0.96632  1.0000
  C   C1482     1.0  0.28249  0.85289  0.63305  1.0000
  C   C1483     1.0  0.46934  0.89788  0.65592  1.0000
  Fe  Fe214     1.0  0.30552  0.79237  0.92229  1.0000
  S   S433      1.0  0.28196  0.78908  0.94990  1.0000
  S   S434      1.0  0.31354  0.80605  0.87625  1.0000
  H   H2545     1.0  0.35038  0.97551  0.71674  1.0000
  C   C1484     1.0  0.45938  0.87326  0.57161  1.0000
  S   S435      1.0  0.44083  0.65977  0.96781  1.0000
  N   N109      1.0  0.25896  0.77849  0.86978  1.0000
  S   S436      1.0  0.31770  0.79787  0.95501  1.0000
  S   S437      1.0  0.30497  0.76697  0.93317  1.0000
  S   S438      1.0  0.31340  0.96003  0.80064  1.0000
  C   C1485     1.0  0.25207  0.73381  0.94631  1.0000
  H   H2546     1.0  0.26334  0.65975  0.93053  1.0000
  C   C1486     1.0  0.37544  0.71580  0.94460  1.0000
  C   C1487     1.0  0.26132  0.73276  0.92113  1.0000
  C   C1488     1.0  0.39473  0.75919  0.93028  1.0000
  S   S439      1.0  0.42222  0.73668  0.50353  1.0000
  H   H2547     1.0  0.27329  0.73920  0.91411  1.0000
  S   S440      1.0  0.37047  0.80171  0.49518  1.0000
  C   C1489     1.0  0.28357  0.83538  0.84013  1.0000
  C   C1490     1.0  0.28040  0.82919  0.86947  1.0000
  C   C1491     1.0  0.28982  0.82059  0.88090  1.0000
  C   C1492     1.0  0.30237  0.81801  0.86298  1.0000
  C   C1493     1.0  0.30575  0.82457  0.83368  1.0000
  C   C1494     1.0  0.29641  0.83328  0.82226  1.0000
  H   H2548     1.0  0.27052  0.83085  0.88340  1.0000
  H   H2549     1.0  0.28728  0.81584  0.90350  1.0000
  H   H2550     1.0  0.31548  0.82265  0.81975  1.0000
  H   H2551     1.0  0.29892  0.83804  0.79960  1.0000
  C   C1495     1.0  0.28873  0.92696  0.75738  1.0000
  C   C1496     1.0  0.28358  0.94007  0.76107  1.0000
  C   C1497     1.0  0.29124  0.95045  0.77388  1.0000
  C   C1498     1.0  0.30407  0.94772  0.78314  1.0000
  C   C1499     1.0  0.30935  0.93472  0.77911  1.0000
  C   C1500     1.0  0.30176  0.92441  0.76607  1.0000
  H   H2552     1.0  0.27353  0.94211  0.75428  1.0000
  H   H2553     1.0  0.31920  0.93250  0.78640  1.0000
  H   H2554     1.0  0.30586  0.91442  0.76304  1.0000
  H   H2555     1.0  0.34992  0.74662  0.94353  1.0000
  H   H2556     1.0  0.27388  0.87350  0.63202  1.0000
  H   H2557     1.0  0.27251  0.81642  0.67311  1.0000
  Fe  Fe215     1.0  0.30577  0.98190  0.80311  1.0000
  C   C1501     1.0  0.23740  0.79351  0.48398  1.0000
  C   C1502     1.0  0.26350  0.76734  0.50617  1.0000
  C   C1503     1.0  0.28446  0.86984  0.63467  1.0000
  N   N110      1.0  0.38023  0.73012  0.95456  1.0000
  C   C1504     1.0  0.24530  0.78006  0.48831  1.0000
  H   H2558     1.0  0.28236  0.85287  0.61081  1.0000
  Fe  Fe216     1.0  0.37531  0.82779  0.48921  1.0000
  C   C1505     1.0  0.38827  0.86878  0.75509  1.0000
  H   H2559     1.0  0.26678  0.76653  0.83838  1.0000
  H   H2560     1.0  0.35915  0.96421  0.77202  1.0000
  H   H2561     1.0  0.24492  0.79912  0.72261  1.0000
  H   H2562     1.0  0.47914  0.88069  0.72604  1.0000
  C   C1506     1.0  0.35764  0.73904  0.93859  1.0000
  S   S441      1.0  0.32846  0.78587  0.48626  1.0000
  H   H2563     1.0  0.34222  0.95377  0.76607  1.0000
  Fe  Fe217     1.0  0.28178  0.76383  0.96256  1.0000
  C   C1507     1.0  0.41693  0.87207  0.51932  1.0000
  H   H2564     1.0  0.42858  0.87606  0.50592  1.0000
  H   H2565     1.0  0.31217  0.86629  0.62997  1.0000
  H   H2566     1.0  0.27083  0.87610  0.82622  1.0000
  H   H2567     1.0  0.40446  0.73946  0.93276  1.0000
  C   C1508     1.0  0.24503  0.83684  0.69678  1.0000
  H   H2568     1.0  0.47732  0.83810  0.78911  1.0000
  C   C1509     1.0  0.24866  0.78480  0.91719  1.0000
  H   H2569     1.0  0.30080  0.76116  0.51025  1.0000
  H   H2570     1.0  0.29279  0.83135  0.61172  1.0000
  H   H2571     1.0  0.40645  0.88563  0.69818  1.0000
  C   C1510     1.0  0.41271  0.87878  0.54174  1.0000
  C   C1511     1.0  0.39759  0.87336  0.55888  1.0000
  C   C1512     1.0  0.38685  0.86167  0.55329  1.0000
  C   C1513     1.0  0.39102  0.85505  0.53073  1.0000
  H   H2572     1.0  0.25602  0.82561  0.72632  1.0000
  H   H2573     1.0  0.46706  0.81119  0.83323  1.0000
  H   H2574     1.0  0.39408  0.87834  0.57619  1.0000
  H   H2575     1.0  0.37515  0.85779  0.56648  1.0000
  C   C1514     1.0  0.45747  0.88874  0.67934  1.0000
  H   H2576     1.0  0.23584  0.76937  0.49784  1.0000
  H   H2577     1.0  0.46674  0.90281  0.63639  1.0000
  C   C1515     1.0  0.36861  0.90640  0.66239  1.0000
  C   C1516     1.0  0.36823  0.89205  0.65646  1.0000
  C   C1517     1.0  0.35483  0.87982  0.66794  1.0000
  C   C1518     1.0  0.34169  0.88190  0.68520  1.0000
  C   C1519     1.0  0.34195  0.89632  0.69075  1.0000
  C   C1520     1.0  0.35539  0.90854  0.67935  1.0000
  H   H2578     1.0  0.37823  0.89036  0.64301  1.0000
  H   H2579     1.0  0.35465  0.86870  0.66344  1.0000
  H   H2580     1.0  0.33184  0.89803  0.70398  1.0000
  H   H2581     1.0  0.35559  0.91965  0.68389  1.0000
  H   H2582     1.0  0.27335  0.76804  0.51588  1.0000
  C   C1521     1.0  0.35800  0.86608  0.74222  1.0000
  C   C1522     1.0  0.24268  0.77148  0.86950  1.0000
  H   H2583     1.0  0.25015  0.79735  0.90803  1.0000
  H   H2584     1.0  0.47891  0.87709  0.60834  1.0000
  H   H2585     1.0  0.38104  0.91272  0.72180  1.0000
  H   H2586     1.0  0.25146  0.86507  0.88288  1.0000
  H   H2587     1.0  0.39882  0.71459  0.92406  1.0000
  C   C1523     1.0  0.45960  0.97169  0.63279  1.0000
  H   H2588     1.0  0.45196  0.87520  0.72268  1.0000
  C   C1524     1.0  0.25493  0.98371  0.75581  1.0000
  H   H2589     1.0  0.24304  0.92904  0.70147  1.0000
  H   H2590     1.0  0.23768  0.77212  0.54357  1.0000
  C   C1525     1.0  0.31001  0.85471  0.62551  1.0000
  H   H2591     1.0  0.34643  0.86813  0.74249  1.0000
  C   C1526     1.0  0.45650  0.87042  0.54367  1.0000
  C   C1527     1.0  0.46108  0.88233  0.70449  1.0000
  C   C1528     1.0  0.38785  0.70690  0.93839  1.0000
  H   H2592     1.0  0.37185  0.71876  0.92460  1.0000
  C   C1529     1.0  0.40701  0.75985  0.49901  1.0000
  H   H2593     1.0  0.47574  0.79911  0.77623  1.0000
  C   C1530     1.0  0.26931  0.76921  0.85788  1.0000
  C   C1531     1.0  0.25774  0.78063  0.55771  1.0000
  C   C1532     1.0  0.28678  0.77651  0.85128  1.0000
  H   H2594     1.0  0.38143  0.85736  0.75486  1.0000
  H   H2595     1.0  0.44627  0.85958  0.64372  1.0000
  H   H2596     1.0  0.39078  0.89078  0.68778  1.0000
  H   H2597     1.0  0.28320  0.74500  0.48973  1.0000
  H   H2598     1.0  0.23491  0.77877  0.87591  1.0000
  C   C1533     1.0  0.36961  0.88182  0.73705  1.0000
  H   H2599     1.0  0.29031  0.77879  0.87023  1.0000
  H   H2600     1.0  0.29313  0.76827  0.84421  1.0000
  H   H2601     1.0  0.29062  0.78736  0.83386  1.0000
  H   H2602     1.0  0.40872  0.85669  0.62528  1.0000
  H   H2603     1.0  0.25345  0.90114  0.81607  1.0000
  H   H2604     1.0  0.24309  0.74827  0.51140  1.0000
  C   C1534     1.0  0.23815  0.67027  0.95751  1.0000
  H   H2605     1.0  0.24495  0.96284  0.74532  1.0000
  C   C1535     1.0  0.26984  0.88624  0.87571  1.0000
  H   H2606     1.0  0.42190  0.86107  0.64592  1.0000
  H   H2607     1.0  0.39537  0.76195  0.95052  1.0000
  H   H2608     1.0  0.29141  0.78985  0.48617  1.0000
  H   H2609     1.0  0.45541  0.92239  0.67978  1.0000
  Fe  Fe218     1.0  0.47260  0.72153  0.49681  1.0000
  H   H2610     1.0  0.27993  0.84070  0.68473  1.0000
  H   H2611     1.0  0.24456  0.79220  0.53428  1.0000
  H   H2612     1.0  0.29245  0.80916  0.48860  1.0000
  H   H2613     1.0  0.35021  0.72803  0.93771  1.0000
  C   C1536     1.0  0.34994  0.97717  0.73832  1.0000
  H   H2614     1.0  0.30051  0.90036  0.85313  1.0000
  C   C1537     1.0  0.26340  0.79787  0.82099  1.0000
  H   H2615     1.0  0.29366  0.87273  0.82742  1.0000
  H   H2616     1.0  0.25932  0.76625  0.91188  1.0000
  H   H2617     1.0  0.40979  0.85505  0.49699  1.0000
  H   H2618     1.0  0.25866  0.74226  0.52208  1.0000
  H   H2619     1.0  0.26238  0.72259  0.88568  1.0000
  S   S442      1.0  0.25339  0.85597  0.69718  1.0000
  H   H2620     1.0  0.34451  0.74487  0.52440  1.0000
  C   C1538     1.0  0.23336  0.98879  0.91093  1.0000
  C   C1539     1.0  0.26388  0.86840  0.88231  1.0000
  H   H2621     1.0  0.30494  0.83519  0.70405  1.0000
  H   H2622     1.0  0.26634  0.78861  0.81149  1.0000
  H   H2623     1.0  0.27194  0.78497  0.89892  1.0000
  C   C1540     1.0  0.38480  0.98781  0.70674  1.0000
  H   H2624     1.0  0.23241  0.84445  0.66692  1.0000
  H   H2625     1.0  0.24655  0.88515  0.84792  1.0000
  C   C1541     1.0  0.40626  0.86019  0.51404  1.0000
  H   H2626     1.0  0.37857  0.98407  0.75176  1.0000
  H   H2627     1.0  0.35680  0.85822  0.76321  1.0000
  H   H2628     1.0  0.28314  0.91562  0.87943  1.0000
  H   H2629     1.0  0.26460  0.86306  0.90397  1.0000
  C   C1542     1.0  0.47781  0.65747  0.96880  1.0000
  C   C1543     1.0  0.24858  0.78144  0.53505  1.0000
  H   H2630     1.0  0.40466  0.85654  0.76864  1.0000
  C   C1544     1.0  0.26367  0.79512  0.85242  1.0000
  H   H2631     1.0  0.47186  0.86794  0.64519  1.0000
  C   C1545     1.0  0.29134  0.82946  0.63499  1.0000
  H   H2632     1.0  0.39885  0.91369  0.69691  1.0000
  H   H2633     1.0  0.27226  0.80868  0.80838  1.0000
  H   H2634     1.0  0.45982  0.98240  0.66743  1.0000
  H   H2635     1.0  0.31086  0.85689  0.60238  1.0000
  H   H2636     1.0  0.35983  0.95697  0.74081  1.0000
  S   S443      1.0  0.23239  0.70287  0.89267  1.0000
  C   C1546     1.0  0.24356  0.97404  0.74771  1.0000
  N   N111      1.0  0.23875  0.65705  0.94380  1.0000
  H   H2637     1.0  0.39962  0.86520  0.68023  1.0000
  C   C1547     1.0  0.48030  0.82898  0.77895  1.0000
  S   S444      1.0  0.37661  0.84090  0.52391  1.0000
  H   H2638     1.0  0.33772  0.97689  0.74761  1.0000
  C   C1548     1.0  0.23657  0.72512  0.95520  1.0000
  H   H2639     1.0  0.40720  0.89791  0.73445  1.0000
  H   H2640     1.0  0.32545  0.98285  0.92407  1.0000
  C   C1549     1.0  0.23912  0.66320  0.91311  1.0000
  C   C1550     1.0  0.46944  0.83333  0.88787  1.0000
  H   H2641     1.0  0.34154  0.83044  0.97181  1.0000
  C   C1551     1.0  0.37313  0.79751  0.95139  1.0000
  H   H2642     1.0  0.39275  0.88380  0.49249  1.0000
  C   C1552     1.0  0.42744  0.71954  0.94006  1.0000
  C   C1553     1.0  0.23954  0.71469  0.91389  1.0000
  H   H2643     1.0  0.44478  0.87082  0.54176  1.0000
  H   H2644     1.0  0.38375  0.69797  0.92769  1.0000
  H   H2645     1.0  0.24202  0.77129  0.84759  1.0000
  H   H2646     1.0  0.28480  0.79363  0.52007  1.0000
  H   H2647     1.0  0.44534  0.83908  0.62332  1.0000
  H   H2648     1.0  0.47949  0.93101  0.64310  1.0000
  C   C1554     1.0  0.25249  0.68424  0.94686  1.0000
  H   H2649     1.0  0.39208  0.74077  0.91011  1.0000
  H   H2650     1.0  0.39041  0.89699  0.76065  1.0000
  H   H2651     1.0  0.42013  0.84349  0.63413  1.0000
  H   H2652     1.0  0.39575  0.72047  0.97635  1.0000
  C   C1555     1.0  0.35332  0.96251  0.75527  1.0000
  H   H2653     1.0  0.27749  0.88872  0.88975  1.0000
  H   H2654     1.0  0.28886  0.82071  0.70414  1.0000
  H   H2655     1.0  0.47312  0.71022  0.60591  1.0000
  H   H2656     1.0  0.28201  0.93251  0.85484  1.0000
  C   C1556     1.0  0.47884  0.98555  0.58926  1.0000
  H   H2657     1.0  0.43514  0.84380  0.56826  1.0000
  H   H2658     1.0  0.35027  0.79263  0.94475  1.0000
  C   C1557     1.0  0.39460  0.89684  0.73816  1.0000
  C   C1558     1.0  0.47039  0.86697  0.62406  1.0000
  C   C1559     1.0  0.25226  0.75138  0.52202  1.0000
  C   C1560     1.0  0.42027  0.85592  0.62818  1.0000
  H   H2659     1.0  0.26834  0.76697  0.48405  1.0000
  H   H2660     1.0  0.39452  0.77767  0.49548  1.0000
  H   H2661     1.0  0.36966  0.87317  0.48150  1.0000
  H   H2662     1.0  0.26573  0.77308  0.55601  1.0000
  C   C1561     1.0  0.29475  0.89515  0.83861  1.0000
  H   H2663     1.0  0.43214  0.74317  0.94371  1.0000
  H   H2664     1.0  0.27506  0.80680  0.64556  1.0000
  H   H2665     1.0  0.47918  0.71219  0.65110  1.0000
  H   H2666     1.0  0.42779  0.82897  0.60143  1.0000
  C   C1562     1.0  0.33860  0.74722  0.50728  1.0000
  H   H2667     1.0  0.25951  0.89043  0.88310  1.0000
  H   H2668     1.0  0.41223  0.87701  0.75777  1.0000
  N   N112      1.0  0.38643  0.88195  0.73311  1.0000
  C   C1563     1.0  0.46580  0.92877  0.68460  1.0000
  H   H2669     1.0  0.25452  0.69027  0.92428  1.0000
  C   C1564     1.0  0.28526  0.79703  0.49732  1.0000
  H   H2670     1.0  0.24892  0.88162  0.81362  1.0000
  C   C1565     1.0  0.39315  0.91202  0.71949  1.0000
  H   H2671     1.0  0.39919  0.92201  0.72588  1.0000
  H   H2672     1.0  0.44658  0.66268  0.54477  1.0000
  H   H2673     1.0  0.38356  0.86987  0.77677  1.0000
  H   H2674     1.0  0.24707  0.75064  0.54447  1.0000
  H   H2675     1.0  0.27757  0.89450  0.80222  1.0000
  H   H2676     1.0  0.27032  0.86282  0.86810  1.0000
  H   H2677     1.0  0.38015  0.86670  0.68334  1.0000
  H   H2678     1.0  0.45260  0.87917  0.62320  1.0000
  H   H2679     1.0  0.28596  0.87119  0.65545  1.0000
  H   H2680     1.0  0.31143  0.88148  0.83314  1.0000
  H   H2681     1.0  0.26603  0.82239  0.64171  1.0000
  H   H2682     1.0  0.25069  0.78352  0.93861  1.0000
  H   H2683     1.0  0.46321  0.79215  0.85523  1.0000
  H   H2684     1.0  0.28072  0.91777  0.81794  1.0000
  C   C1566     1.0  0.23553  0.75469  0.88796  1.0000
  H   H2685     1.0  0.30074  0.90257  0.81684  1.0000
  H   H2686     1.0  0.39574  0.98496  0.70937  1.0000
  H   H2687     1.0  0.25194  0.79915  0.81839  1.0000
  H   H2688     1.0  0.27062  0.84662  0.64614  1.0000
  H   H2689     1.0  0.40556  0.76620  0.91438  1.0000
  H   H2690     1.0  0.39813  0.91219  0.49146  1.0000
  S   S445      1.0  0.47605  0.80508  0.90485  1.0000
  C   C1567     1.0  0.35793  0.78856  0.95669  1.0000
  C   C1568     1.0  0.27069  0.88835  0.82431  1.0000
  H   H2691     1.0  0.42881  0.72291  0.91743  1.0000
  H   H2692     1.0  0.45010  0.96187  0.64496  1.0000
  C   C1569     1.0  0.25508  0.72329  0.90506  1.0000
  H   H2693     1.0  0.26543  0.80620  0.49697  1.0000
  C   C1570     1.0  0.40492  0.86724  0.75282  1.0000
  H   H2694     1.0  0.36520  0.70739  0.96041  1.0000
  H   H2695     1.0  0.33458  0.85668  0.61625  1.0000
  S   S446      1.0  0.25912  0.74586  0.96726  1.0000
  H   H2696     1.0  0.32358  0.83706  0.62678  1.0000
  H   H2697     1.0  0.38569  0.85592  0.71236  1.0000
  C   C1571     1.0  0.29233  0.84316  0.67363  1.0000
  H   H2698     1.0  0.32511  0.84839  0.65261  1.0000
  H   H2699     1.0  0.34616  0.97769  0.79714  1.0000
  C   C1572     1.0  0.29856  0.83037  0.68991  1.0000
  H   H2700     1.0  0.29782  0.85436  0.67732  1.0000
  H   H2701     1.0  0.26706  0.75763  0.87292  1.0000
  C   C1573     1.0  0.47715  0.93901  0.65645  1.0000
  H   H2702     1.0  0.46971  0.81950  0.78500  1.0000
  C   C1574     1.0  0.39365  0.88183  0.70325  1.0000
  C   C1575     1.0  0.42372  0.70372  0.95437  1.0000
  S   S447      1.0  0.44480  0.81196  0.96543  1.0000
  S   S448      1.0  0.42017  0.68957  0.93556  1.0000
  H   H2703     1.0  0.45892  0.85936  0.54065  1.0000
  H   H2704     1.0  0.29817  0.92481  0.84669  1.0000
  H   H2705     1.0  0.46175  0.93566  0.69902  1.0000
  C   C1576     1.0  0.27529  0.81830  0.64985  1.0000
  H   H2706     1.0  0.44448  0.82885  0.57657  1.0000
  C   C1577     1.0  0.39314  0.74184  0.93145  1.0000
  H   H2707     1.0  0.36068  0.86026  0.72527  1.0000
  H   H2708     1.0  0.37703  0.80855  0.93556  1.0000
  C   C1578     1.0  0.23512  0.83457  0.67920  1.0000
  H   H2709     1.0  0.24954  0.77531  0.57894  1.0000
  C   C1579     1.0  0.42933  0.73103  0.95488  1.0000
  H   H2710     1.0  0.29555  0.87234  0.86310  1.0000
  Fe  Fe219     1.0  0.41979  0.66461  0.95548  1.0000
  H   H2711     1.0  0.36554  0.88642  0.75539  1.0000
  H   H2712     1.0  0.24950  0.67288  0.90205  1.0000
  C   C1580     1.0  0.28557  0.92146  0.85660  1.0000
  C   C1581     1.0  0.38933  0.86652  0.69473  1.0000
  N   N113      1.0  0.44849  0.86252  0.59863  1.0000
  C   C1582     1.0  0.45372  0.86725  0.62304  1.0000
  C   C1583     1.0  0.43259  0.86506  0.60053  1.0000
  H   H2713     1.0  0.36791  0.88967  0.71832  1.0000
  C   C1584     1.0  0.44886  0.84585  0.60066  1.0000
  C   C1585     1.0  0.26030  0.77822  0.89944  1.0000
  Fe  Fe220     1.0  0.44292  0.72843  0.48501  1.0000
  C   C1586     1.0  0.43838  0.83672  0.58579  1.0000
  C   C1587     1.0  0.32387  0.84855  0.63095  1.0000
  Fe  Fe221     1.0  0.31514  0.77223  0.96865  1.0000
  H   H2714     1.0  0.42794  0.86243  0.58287  1.0000
  H   H2715     1.0  0.43306  0.87757  0.59826  1.0000
  H   H2716     1.0  0.26416  0.79241  0.55727  1.0000
  H   H2717     1.0  0.47074  0.94643  0.64554  1.0000
  H   H2718     1.0  0.47318  0.85605  0.62119  1.0000
  C   C1588     1.0  0.24214  0.80901  0.71053  1.0000
  C   C1589     1.0  0.27671  0.91151  0.84078  1.0000
  C   C1590     1.0  0.29875  0.87940  0.84081  1.0000
  H   H2719     1.0  0.36899  0.74707  0.96811  1.0000
  H   H2720     1.0  0.37901  0.90390  0.49061  1.0000
  H   H2721     1.0  0.29420  0.87787  0.61744  1.0000
  H   H2722     1.0  0.36565  0.74487  0.91744  1.0000
  C   C1591     1.0  0.26926  0.79612  0.49148  1.0000
  H   H2723     1.0  0.26497  0.97996  0.75957  1.0000
  H   H2724     1.0  0.46475  0.85555  0.87365  1.0000
  H   H2725     1.0  0.46156  0.79429  0.81984  1.0000
  S   S449      1.0  0.28236  0.98379  0.82437  1.0000
  H   H2726     1.0  0.46085  0.84513  0.59225  1.0000
  H   H2727     1.0  0.47726  0.81403  0.97784  1.0000
  H   H2728     1.0  0.25602  0.80186  0.86148  1.0000
  Fe  Fe222     1.0  0.42211  0.79499  0.97015  1.0000
  H   H2729     1.0  0.26450  0.91200  0.84730  1.0000
  H   H2730     1.0  0.47144  0.87255  0.57046  1.0000
  H   H2731     1.0  0.26304  0.68093  0.95058  1.0000
  C   C1592     1.0  0.25391  0.88918  0.82593  1.0000
  H   H2732     1.0  0.46459  0.87982  0.52577  1.0000
  H   H2733     1.0  0.37750  0.97757  0.70304  1.0000
  C   C1593     1.0  0.46514  0.98338  0.64550  1.0000
  H   H2734     1.0  0.23656  0.77833  0.92053  1.0000
  C   C1594     1.0  0.46404  0.65636  0.84503  1.0000
  H   H2735     1.0  0.23859  0.65768  0.87323  1.0000
  C   C1595     1.0  0.23562  0.92092  0.72161  1.0000
  H   H2736     1.0  0.47066  0.91986  0.69576  1.0000
  C   C1596     1.0  0.23911  0.97362  0.82889  1.0000
  C   C1597     1.0  0.47294  0.84861  0.87078  1.0000
  S   S450      1.0  0.40213  0.80420  0.95958  1.0000
  C   C1598     1.0  0.47646  0.88539  0.70642  1.0000
  C   C1599     1.0  0.38335  0.79222  0.96618  1.0000
  C   C1600     1.0  0.41838  0.75374  0.48513  1.0000
  H   H2737     1.0  0.45840  0.66375  0.83316  1.0000
  C   C1601     1.0  0.36615  0.73609  0.96205  1.0000
  H   H2738     1.0  0.23918  0.96121  0.83211  1.0000
  C   C1602     1.0  0.47996  0.82430  0.88418  1.0000
  H   H2739     1.0  0.47677  0.96084  0.67941  1.0000
  H   H2740     1.0  0.24239  0.92162  0.73759  1.0000
  H   H2741     1.0  0.47513  0.67315  0.93207  1.0000
  C   C1603     1.0  0.31611  0.98834  0.92815  1.0000
  H   H2742     1.0  0.36650  0.98707  0.79179  1.0000
  H   H2743     1.0  0.24216  0.97234  0.87056  1.0000
  H   H2744     1.0  0.36187  0.73424  0.50106  1.0000
  H   H2745     1.0  0.23332  0.97638  0.91396  1.0000
  H   H2746     1.0  0.48027  0.69439  0.64331  1.0000
  H   H2747     1.0  0.25078  0.98057  0.81644  1.0000
  H   H2748     1.0  0.25058  0.69296  0.95886  1.0000
  C   C1604     1.0  0.30316  0.76306  0.48752  1.0000
  H   H2749     1.0  0.23554  0.75343  0.91049  1.0000
  H   H2750     1.0  0.23359  0.90883  0.71972  1.0000
  C   C1605     1.0  0.23464  0.97707  0.85794  1.0000
  H   H2751     1.0  0.35678  0.76784  0.48538  1.0000
  H   H2752     1.0  0.37497  0.75274  0.49240  1.0000
  H   H2753     1.0  0.31099  0.98838  0.88794  1.0000
  C   C1606     1.0  0.36961  0.74375  0.48288  1.0000
  H   H2754     1.0  0.38675  0.73057  0.48690  1.0000
  C   C1607     1.0  0.23222  0.80676  0.69292  1.0000
  C   C1608     1.0  0.35505  0.98889  0.79061  1.0000
  C   C1609     1.0  0.34999  0.75792  0.47966  1.0000
  Fe  Fe223     1.0  0.50268  0.05555  0.26678  1.0000
  S   S451      1.0  0.50714  0.07233  0.22422  1.0000
  H   H2755     1.0  0.67887  0.17760  0.99405  1.0000
  Fe  Fe224     1.0  0.51722  0.08200  0.29236  1.0000
  S   S452      1.0  0.52232  0.09993  0.25110  1.0000
  S   S453      1.0  0.52108  0.09025  0.33165  1.0000
  Fe  Fe225     1.0  0.49884  0.08837  0.24855  1.0000
  C   C1610     1.0  0.70695  0.08511  0.13544  1.0000
  Fe  Fe226     1.0  0.53021  0.08225  0.23077  1.0000
  S   S454      1.0  0.55079  0.08995  0.19265  1.0000
  H   H2756     1.0  0.54734  0.28425  0.46145  1.0000
  S   S455      1.0  0.52664  0.06467  0.27206  1.0000
  Fe  Fe227     1.0  0.57345  0.15385  0.38852  1.0000
  S   S456      1.0  0.55135  0.15887  0.40803  1.0000
  S   S457      1.0  0.57434  0.13603  0.36207  1.0000
  Fe  Fe228     1.0  0.59264  0.17571  0.41739  1.0000
  S   S458      1.0  0.57125  0.18172  0.43845  1.0000
  S   S459      1.0  0.61512  0.18238  0.43150  1.0000
  Fe  Fe229     1.0  0.55956  0.15639  0.44763  1.0000
  H   H2757     1.0  0.53621  0.26611  0.36804  1.0000
  Fe  Fe230     1.0  0.56516  0.18369  0.39682  1.0000
  S   S460      1.0  0.55560  0.20254  0.37457  1.0000
  S   S461      1.0  0.58097  0.14995  0.42919  1.0000
  S   S462      1.0  0.58718  0.17902  0.37463  1.0000
  Fe  Fe231     1.0  0.49505  0.24870  0.42051  1.0000
  S   S463      1.0  0.50219  0.26367  0.37582  1.0000
  S   S464      1.0  0.50879  0.23337  0.44081  1.0000
  H   H2758     1.0  0.66448  0.18580  0.42766  1.0000
  H   H2759     1.0  0.61523  0.10800  0.26887  1.0000
  Fe  Fe232     1.0  0.49744  0.28311  0.39516  1.0000
  S   S465      1.0  0.51454  0.30737  0.37957  1.0000
  C   C1611     1.0  0.51664  0.17870  0.42452  1.0000
  H   H2760     1.0  0.66988  0.20112  0.00541  1.0000
  H   H2761     1.0  0.55553  0.11430  0.43503  1.0000
  Fe  Fe233     1.0  0.68929  0.24989  0.43657  1.0000
  S   S466      1.0  0.71199  0.26417  0.40581  1.0000
  S   S467      1.0  0.66776  0.24391  0.41944  1.0000
  H   H2762     1.0  0.61015  0.14788  0.18746  1.0000
  H   H2763     1.0  0.72844  0.01025  0.99166  1.0000
  H   H2764     1.0  0.48386  0.28922  0.06111  1.0000
  S   S468      1.0  0.62859  0.01983  0.12645  1.0000
  H   H2765     1.0  0.70805  0.20895  0.40982  1.0000
  Fe  Fe234     1.0  0.67268  0.12456  0.16161  1.0000
  S   S469      1.0  0.67543  0.12967  0.11463  1.0000
  S   S470      1.0  0.69243  0.12771  0.18257  1.0000
  Fe  Fe235     1.0  0.63799  0.11003  0.17482  1.0000
  S   S471      1.0  0.63791  0.11397  0.12898  1.0000
  S   S472      1.0  0.61752  0.09782  0.21227  1.0000
  Fe  Fe236     1.0  0.65964  0.10585  0.12378  1.0000
  S   S473      1.0  0.66540  0.09053  0.09502  1.0000
  Fe  Fe237     1.0  0.65355  0.13732  0.12380  1.0000
  S   S474      1.0  0.65035  0.15966  0.09891  1.0000
  S   S475      1.0  0.65855  0.10004  0.17002  1.0000
  S   S476      1.0  0.65193  0.13405  0.17031  1.0000
  C   C1612     1.0  0.64564  0.16082  0.00945  1.0000
  C   C1613     1.0  0.64819  0.14763  0.02607  1.0000
  C   C1614     1.0  0.64949  0.14708  0.05374  1.0000
  C   C1615     1.0  0.64800  0.15965  0.06497  1.0000
  C   C1616     1.0  0.64501  0.17266  0.04862  1.0000
  C   C1617     1.0  0.64397  0.17330  0.02083  1.0000
  H   H2766     1.0  0.64945  0.13791  0.01738  1.0000
  H   H2767     1.0  0.65181  0.13700  0.06624  1.0000
  H   H2768     1.0  0.64370  0.18234  0.05738  1.0000
  H   H2769     1.0  0.64183  0.18341  0.00831  1.0000
  C   C1618     1.0  0.63980  0.03913  0.11791  1.0000
  C   C1619     1.0  0.64939  0.04650  0.09077  1.0000
  C   C1620     1.0  0.65723  0.06226  0.08404  1.0000
  C   C1621     1.0  0.65555  0.07074  0.10436  1.0000
  C   C1622     1.0  0.64637  0.06326  0.13174  1.0000
  C   C1623     1.0  0.63850  0.04751  0.13846  1.0000
  H   H2770     1.0  0.65044  0.04016  0.07478  1.0000
  H   H2771     1.0  0.66443  0.06797  0.06287  1.0000
  H   H2772     1.0  0.64528  0.06963  0.14768  1.0000
  H   H2773     1.0  0.63138  0.04178  0.15967  1.0000
  H   H2774     1.0  0.61648  0.12377  0.28473  1.0000
  C   C1624     1.0  0.68845  0.20936  0.39157  1.0000
  H   H2775     1.0  0.59101  0.13608  0.20210  1.0000
  C   C1625     1.0  0.62884  0.19999  0.42933  1.0000
  C   C1626     1.0  0.62989  0.21426  0.41084  1.0000
  C   C1627     1.0  0.64166  0.22753  0.40854  1.0000
  C   C1628     1.0  0.65261  0.22686  0.42461  1.0000
  C   C1629     1.0  0.65137  0.21265  0.44350  1.0000
  C   C1630     1.0  0.63959  0.19939  0.44583  1.0000
  H   H2776     1.0  0.62182  0.21504  0.39791  1.0000
  H   H2777     1.0  0.64239  0.23841  0.39391  1.0000
  H   H2778     1.0  0.55416  0.27865  0.36577  1.0000
  H   H2779     1.0  0.61360  0.17646  0.03369  1.0000
  C   C1631     1.0  0.54391  0.21252  0.39249  1.0000
  C   C1632     1.0  0.54275  0.21203  0.42101  1.0000
  C   C1633     1.0  0.53223  0.21888  0.43530  1.0000
  C   C1634     1.0  0.52281  0.22626  0.42125  1.0000
  C   C1635     1.0  0.52441  0.22729  0.39248  1.0000
  C   C1636     1.0  0.53496  0.22047  0.37816  1.0000
  H   H2780     1.0  0.54980  0.20619  0.43208  1.0000
  N   N114      1.0  0.59241  0.13450  0.26061  1.0000
  H   H2781     1.0  0.51727  0.23301  0.38142  1.0000
  H   H2782     1.0  0.53587  0.22097  0.35605  1.0000
  H   H2783     1.0  0.65960  0.20713  0.38540  1.0000
  H   H2784     1.0  0.48761  0.19160  0.45629  1.0000
  H   H2785     1.0  0.68550  0.04943  0.09179  1.0000
  C   C1637     1.0  0.58960  0.15377  0.03427  1.0000
  H   H2786     1.0  0.70901  0.18490  0.15174  1.0000
  H   H2787     1.0  0.65903  0.16702  0.42179  1.0000
  S   S477      1.0  0.65483  0.00167  0.99836  1.0000
  Fe  Fe238     1.0  0.71696  0.27648  0.43917  1.0000
  H   H2788     1.0  0.56647  0.10680  0.26875  1.0000
  C   C1638     1.0  0.58018  0.17587  0.01314  1.0000
  H   H2789     1.0  0.69836  0.21664  0.33437  1.0000
  C   C1639     1.0  0.68496  0.19016  0.03997  1.0000
  H   H2790     1.0  0.61533  0.20044  0.99522  1.0000
  H   H2791     1.0  0.48600  0.16017  0.44069  1.0000
  S   S478      1.0  0.65906  0.00752  0.07190  1.0000
  C   C1640     1.0  0.53648  0.10452  0.33548  1.0000
  C   C1641     1.0  0.53316  0.11658  0.34729  1.0000
  C   C1642     1.0  0.54458  0.12648  0.35516  1.0000
  C   C1643     1.0  0.55944  0.12422  0.35197  1.0000
  C   C1644     1.0  0.56270  0.11207  0.34044  1.0000
  C   C1645     1.0  0.55138  0.10238  0.33211  1.0000
  H   H2792     1.0  0.52160  0.11813  0.35075  1.0000
  H   H2793     1.0  0.54182  0.13575  0.36397  1.0000
  H   H2794     1.0  0.57398  0.10989  0.33846  1.0000
  H   H2795     1.0  0.55400  0.09279  0.32421  1.0000
  H   H2796     1.0  0.69449  0.00503  0.05553  1.0000
  C   C1646     1.0  0.56913  0.09283  0.19902  1.0000
  C   C1647     1.0  0.57118  0.08618  0.22541  1.0000
  C   C1648     1.0  0.58611  0.08786  0.22932  1.0000
  C   C1649     1.0  0.59899  0.09633  0.20698  1.0000
  C   C1650     1.0  0.59689  0.10331  0.18084  1.0000
  C   C1651     1.0  0.58200  0.10146  0.17682  1.0000
  H   H2797     1.0  0.56131  0.07948  0.24260  1.0000
  H   H2798     1.0  0.58768  0.08245  0.24961  1.0000
  H   H2799     1.0  0.60672  0.11008  0.16368  1.0000
  H   H2800     1.0  0.58043  0.10671  0.15644  1.0000
  H   H2801     1.0  0.60741  0.12867  0.20802  1.0000
  H   H2802     1.0  0.57768  0.15511  0.28743  1.0000
  C   C1652     1.0  0.70275  0.14634  0.18277  1.0000
  C   C1653     1.0  0.71300  0.14754  0.20009  1.0000
  H   H2803     1.0  0.50483  0.07776  0.40565  1.0000
  C   C1654     1.0  0.72036  0.17569  0.18269  1.0000
  C   C1655     1.0  0.71011  0.17449  0.16537  1.0000
  C   C1656     1.0  0.70125  0.15991  0.16556  1.0000
  C   C1657     1.0  0.49020  0.13352  0.08418  1.0000
  S   S479      1.0  0.71650  0.27788  0.98760  1.0000
  H   H2804     1.0  0.69342  0.15915  0.15211  1.0000
  H   H2805     1.0  0.55545  0.11844  0.25307  1.0000
  C   C1658     1.0  0.71416  0.00619  0.14539  1.0000
  C   C1659     1.0  0.69179  0.02794  0.01231  1.0000
  H   H2806     1.0  0.70269  0.18365  0.35262  1.0000
  H   H2807     1.0  0.68410  0.23448  0.03758  1.0000
  H   H2808     1.0  0.59795  0.15603  0.22775  1.0000
  H   H2809     1.0  0.68372  0.17859  0.03549  1.0000
  H   H2810     1.0  0.67399  0.04675  0.12652  1.0000
  C   C1660     1.0  0.51389  0.17208  0.39952  1.0000
  C   C1661     1.0  0.61352  0.11988  0.26652  1.0000
  H   H2811     1.0  0.67452  0.07503  0.14706  1.0000
  C   C1662     1.0  0.67444  0.18427  0.38448  1.0000
  H   H2812     1.0  0.69071  0.19593  0.43184  1.0000
  H   H2813     1.0  0.48209  0.16237  0.47543  1.0000
  H   H2814     1.0  0.70626  0.06920  0.09710  1.0000
  H   H2815     1.0  0.67299  0.19061  0.04903  1.0000
  H   H2816     1.0  0.68709  0.19997  0.32850  1.0000
  C   C1663     1.0  0.56931  0.16738  0.99836  1.0000
  H   H2817     1.0  0.62171  0.12720  0.24638  1.0000
  C   C1664     1.0  0.49597  0.09620  0.15647  1.0000
  H   H2818     1.0  0.68313  0.17802  0.38926  1.0000
  C   C1665     1.0  0.59571  0.14209  0.28357  1.0000
  H   H2819     1.0  0.50546  0.07717  0.45323  1.0000
  H   H2820     1.0  0.61672  0.17263  0.98844  1.0000
  H   H2821     1.0  0.54101  0.25254  0.44195  1.0000
  H   H2822     1.0  0.52562  0.12501  0.44448  1.0000
  C   C1666     1.0  0.53286  0.07669  0.47232  1.0000
  H   H2823     1.0  0.69923  0.09882  0.10143  1.0000
  H   H2824     1.0  0.69191  0.04093  0.12124  1.0000
  H   H2825     1.0  0.59593  0.17839  0.05317  1.0000
  H   H2826     1.0  0.50208  0.17137  0.39696  1.0000
  H   H2827     1.0  0.67931  0.23308  0.36262  1.0000
  H   H2828     1.0  0.62147  0.99151  0.01033  1.0000
  C   C1667     1.0  0.59033  0.15706  0.28399  1.0000
  H   H2829     1.0  0.71566  0.20163  0.01424  1.0000
  C   C1668     1.0  0.56742  0.11788  0.25328  1.0000
  H   H2830     1.0  0.68536  0.06446  0.20119  1.0000
  C   C1669     1.0  0.60246  0.13885  0.20639  1.0000
  S   S480      1.0  0.62259  0.99234  0.07390  1.0000
  Fe  Fe239     1.0  0.63574  0.00310  0.10162  1.0000
  H   H2831     1.0  0.69422  0.20041  0.07140  1.0000
  C   C1670     1.0  0.69486  0.06639  0.11259  1.0000
  H   H2832     1.0  0.57322  0.11744  0.23195  1.0000
  H   H2833     1.0  0.59424  0.11287  0.25037  1.0000
  C   C1671     1.0  0.71786  0.00070  0.99617  1.0000
  C   C1672     1.0  0.68919  0.99368  0.01330  1.0000
  H   H2834     1.0  0.51023  0.30539  0.44044  1.0000
  H   H2835     1.0  0.61419  0.14928  0.23324  1.0000
  C   C1673     1.0  0.68607  0.04988  0.11359  1.0000
  C   C1674     1.0  0.62643  0.99094  0.98911  1.0000
  H   H2836     1.0  0.68007  0.22871  0.32857  1.0000
  H   H2837     1.0  0.59032  0.13385  0.30486  1.0000
  C   C1675     1.0  0.55814  0.10359  0.43049  1.0000
  S   S481      1.0  0.49392  0.02925  0.27153  1.0000
  C   C1676     1.0  0.66848  0.20856  0.36559  1.0000
  H   H2838     1.0  0.68861  0.07435  0.10264  1.0000
  H   H2839     1.0  0.72975  0.99288  0.13172  1.0000
  C   C1677     1.0  0.69967  0.00909  0.14547  1.0000
  H   H2840     1.0  0.67191  0.22254  0.02270  1.0000
  H   H2841     1.0  0.65050  0.18171  0.40749  1.0000
  H   H2842     1.0  0.59319  0.16123  0.30211  1.0000
  N   N115      1.0  0.54655  0.27729  0.42261  1.0000
  H   H2843     1.0  0.56223  0.12350  0.47823  1.0000
  C   C1678     1.0  0.56067  0.29055  0.40831  1.0000
  C   C1679     1.0  0.55129  0.26240  0.43090  1.0000
  C   C1680     1.0  0.53516  0.27565  0.40484  1.0000
  H   H2844     1.0  0.69613  0.01756  0.15576  1.0000
  H   H2845     1.0  0.57101  0.26538  0.39416  1.0000
  C   C1681     1.0  0.56011  0.25688  0.40685  1.0000
  H   H2846     1.0  0.56227  0.09736  0.44778  1.0000
  H   H2847     1.0  0.59810  0.13584  0.47517  1.0000
  H   H2848     1.0  0.68617  0.25940  0.99342  1.0000
  H   H2849     1.0  0.56795  0.28860  0.38956  1.0000
  H   H2850     1.0  0.56841  0.29164  0.42271  1.0000
  C   C1682     1.0  0.70081  0.09887  0.12280  1.0000
  H   H2851     1.0  0.57317  0.17548  0.03443  1.0000
  H   H2852     1.0  0.52636  0.26440  0.41392  1.0000
  H   H2853     1.0  0.52840  0.28448  0.40576  1.0000
  H   H2854     1.0  0.66235  0.20250  0.35233  1.0000
  C   C1683     1.0  0.60201  0.14530  0.23252  1.0000
  C   C1684     1.0  0.52328  0.11442  0.43676  1.0000
  Fe  Fe240     1.0  0.72196  0.24591  0.42717  1.0000
  H   H2855     1.0  0.50605  0.14737  0.44571  1.0000
  H   H2856     1.0  0.48858  0.13660  0.06247  1.0000
  H   H2857     1.0  0.55275  0.25341  0.39309  1.0000
  H   H2858     1.0  0.56332  0.24622  0.41641  1.0000
  H   H2859     1.0  0.67837  0.00310  0.13323  1.0000
  C   C1685     1.0  0.52571  0.26747  0.47070  1.0000
  H   H2860     1.0  0.58345  0.18820  0.00061  1.0000
  H   H2861     1.0  0.71356  0.19891  0.32259  1.0000
  C   C1686     1.0  0.66140  0.17965  0.41195  1.0000
  C   C1687     1.0  0.69751  0.20057  0.40940  1.0000
  H   H2862     1.0  0.70016  0.22806  0.99913  1.0000
  H   H2863     1.0  0.70142  0.19117  0.40176  1.0000
  C   C1688     1.0  0.68077  0.06778  0.15882  1.0000
  H   H2864     1.0  0.67934  0.21190  0.40708  1.0000
  Fe  Fe241     1.0  0.64616  0.99478  0.04627  1.0000
  H   H2865     1.0  0.60828  0.14529  0.28201  1.0000
  H   H2866     1.0  0.57294  0.14245  0.24987  1.0000
  H   H2867     1.0  0.52157  0.15463  0.45848  1.0000
  C   C1689     1.0  0.69293  0.20408  0.34404  1.0000
  C   C1690     1.0  0.60297  0.18004  0.03123  1.0000
  H   H2868     1.0  0.59634  0.16652  0.26455  1.0000
  C   C1691     1.0  0.59659  0.11917  0.26628  1.0000
  H   H2869     1.0  0.50709  0.09293  0.15205  1.0000
  C   C1692     1.0  0.70792  0.20075  0.99989  1.0000
  N   N116      1.0  0.68135  0.20146  0.37191  1.0000
  H   H2870     1.0  0.71618  0.04420  0.13155  1.0000
  H   H2871     1.0  0.59525  0.05139  0.22767  1.0000
  C   C1693     1.0  0.54435  0.09322  0.42447  1.0000
  H   H2872     1.0  0.51740  0.26194  0.46036  1.0000
  C   C1694     1.0  0.60296  0.14631  0.03851  1.0000
  H   H2873     1.0  0.71848  0.01331  0.06848  1.0000
  H   H2874     1.0  0.63895  0.18850  0.46030  1.0000
  C   C1695     1.0  0.67314  0.22610  0.35075  1.0000
  H   H2875     1.0  0.49369  0.31073  0.07353  1.0000
  H   H2876     1.0  0.66253  0.23008  0.34980  1.0000
  H   H2877     1.0  0.66973  0.17900  0.36883  1.0000
  C   C1696     1.0  0.57535  0.13196  0.26231  1.0000
  H   H2878     1.0  0.59858  0.20320  0.01812  1.0000
  C   C1697     1.0  0.49388  0.10552  0.12848  1.0000
  H   H2879     1.0  0.49422  0.09800  0.11362  1.0000
  H   H2880     1.0  0.56857  0.13016  0.28447  1.0000
  H   H2881     1.0  0.69507  0.04578  0.16372  1.0000
  C   C1698     1.0  0.71900  0.01522  0.04558  1.0000
  H   H2882     1.0  0.69291  0.02870  0.03364  1.0000
  H   H2883     1.0  0.66817  0.07029  0.19870  1.0000
  H   H2884     1.0  0.50448  0.11519  0.11917  1.0000
  H   H2885     1.0  0.71905  0.24543  0.36929  1.0000
  C   C1699     1.0  0.70643  0.19644  0.34465  1.0000
  H   H2886     1.0  0.58922  0.11144  0.28703  1.0000
  H   H2887     1.0  0.71729  0.24379  0.32132  1.0000
  H   H2888     1.0  0.51801  0.06628  0.44033  1.0000
  H   H2889     1.0  0.67994  0.02152  0.01367  1.0000
  S   S482      1.0  0.69316  0.26420  0.46780  1.0000
  C   C1700     1.0  0.53880  0.28074  0.44952  1.0000
  H   H2890     1.0  0.49654  0.10303  0.17228  1.0000
  H   H2891     1.0  0.71415  0.20154  0.35651  1.0000
  H   H2892     1.0  0.70621  0.06040  0.17493  1.0000
  H   H2893     1.0  0.53179  0.11737  0.41609  1.0000
  H   H2894     1.0  0.68613  0.17999  0.08255  1.0000
  C   C1701     1.0  0.50910  0.15399  0.46092  1.0000
  H   H2895     1.0  0.67346  0.05572  0.16432  1.0000
  C   C1702     1.0  0.68073  0.22257  0.03493  1.0000
  N   N117      1.0  0.50629  0.16988  0.45338  1.0000
  H   H2896     1.0  0.70693  0.18879  0.99730  1.0000
  C   C1703     1.0  0.68196  0.20238  0.99368  1.0000
  C   C1704     1.0  0.68037  0.07202  0.18721  1.0000
  H   H2897     1.0  0.50220  0.13254  0.08204  1.0000
  H   H2898     1.0  0.65956  0.21186  0.45618  1.0000
  H   H2899     1.0  0.70598  0.99184  0.05243  1.0000
  H   H2900     1.0  0.53370  0.29077  0.44460  1.0000
  C   C1705     1.0  0.72509  0.23838  0.33098  1.0000
  H   H2901     1.0  0.51550  0.09682  0.40321  1.0000
  C   C1706     1.0  0.71854  0.05514  0.13812  1.0000
  H   H2902     1.0  0.61582  0.20322  0.02919  1.0000
  C   C1707     1.0  0.51689  0.07837  0.43885  1.0000
  H   H2903     1.0  0.70397  0.22013  0.03147  1.0000
  H   H2904     1.0  0.52893  0.17949  0.42422  1.0000
  H   H2905     1.0  0.49064  0.00004  0.25720  1.0000
  N   N118      1.0  0.69252  0.20301  0.01317  1.0000
  H   H2906     1.0  0.69623  0.22091  0.37956  1.0000
  H   H2907     1.0  0.70428  0.30733  0.98195  1.0000
  C   C1708     1.0  0.68956  0.00088  0.13278  1.0000
  C   C1709     1.0  0.72168  0.16214  0.20024  1.0000
  H   H2908     1.0  0.54974  0.30646  0.38429  1.0000
  H   H2909     1.0  0.56854  0.31517  0.38651  1.0000
  N   N119      1.0  0.52970  0.08757  0.44810  1.0000
  N   N120      1.0  0.59345  0.05994  0.15664  1.0000
  C   C1710     1.0  0.58890  0.05827  0.18815  1.0000
  C   C1711     1.0  0.58133  0.06592  0.14453  1.0000
  C   C1712     1.0  0.60870  0.07192  0.14448  1.0000
  C   C1713     1.0  0.59471  0.04436  0.15200  1.0000
  C   C1714     1.0  0.60083  0.05460  0.20458  1.0000
  C   C1715     1.0  0.56466  0.05586  0.15754  1.0000
  C   C1716     1.0  0.61554  0.07586  0.11226  1.0000
  C   C1717     1.0  0.59312  0.04150  0.12318  1.0000
  H   H2910     1.0  0.58614  0.06900  0.19239  1.0000
  H   H2911     1.0  0.57815  0.04889  0.19869  1.0000
  H   H2912     1.0  0.58369  0.06752  0.12137  1.0000
  H   H2913     1.0  0.58139  0.07774  0.14731  1.0000
  H   H2914     1.0  0.60786  0.08299  0.15000  1.0000
  H   H2915     1.0  0.61773  0.06815  0.15386  1.0000
  H   H2916     1.0  0.60584  0.04214  0.15497  1.0000
  H   H2917     1.0  0.58564  0.03489  0.16837  1.0000
  H   H2918     1.0  0.60530  0.04477  0.19980  1.0000
  H   H2919     1.0  0.61052  0.06497  0.20054  1.0000
  C   C1718     1.0  0.49224  0.30294  0.01748  1.0000
  H   H2920     1.0  0.55993  0.05728  0.17888  1.0000
  H   H2921     1.0  0.55717  0.05985  0.14419  1.0000
  H   H2922     1.0  0.56371  0.04342  0.15882  1.0000
  H   H2923     1.0  0.62627  0.08535  0.10632  1.0000
  H   H2924     1.0  0.60780  0.08014  0.09995  1.0000
  H   H2925     1.0  0.61908  0.06591  0.10584  1.0000
  H   H2926     1.0  0.60117  0.03449  0.11667  1.0000
  H   H2927     1.0  0.59585  0.05197  0.10544  1.0000
  H   H2928     1.0  0.58142  0.03428  0.12537  1.0000
  H   H2929     1.0  0.48686  0.08520  0.16603  1.0000
  H   H2930     1.0  0.68616  0.08438  0.18424  1.0000
  H   H2931     1.0  0.54269  0.10001  0.40468  1.0000
  S   S483      1.0  0.69936  0.23117  0.45637  1.0000
  S   S484      1.0  0.49285  0.07120  0.29112  1.0000
  H   H2932     1.0  0.53501  0.18049  0.46448  1.0000
  H   H2933     1.0  0.60939  0.15134  0.05235  1.0000
  H   H2934     1.0  0.67561  0.21464  0.05644  1.0000
  S   S485      1.0  0.72843  0.25889  0.45830  1.0000
  H   H2935     1.0  0.70462  0.18733  0.05814  1.0000
  C   C1719     1.0  0.52484  0.10058  0.45879  1.0000
  C   C1720     1.0  0.69517  0.21869  0.01921  1.0000
  C   C1721     1.0  0.48500  0.18332  0.44350  1.0000
  N   N121      1.0  0.59432  0.17022  0.01580  1.0000
  H   H2936     1.0  0.48816  0.30691  0.99845  1.0000
  N   N122      1.0  0.70405  0.00471  0.01224  1.0000
  H   H2937     1.0  0.48853  0.14328  0.09341  1.0000
  C   C1722     1.0  0.52326  0.31944  0.39892  1.0000
  H   H2938     1.0  0.56795  0.10736  0.41123  1.0000
  C   C1723     1.0  0.50995  0.17895  0.47422  1.0000
  H   H2939     1.0  0.71826  0.08648  0.12065  1.0000
  H   H2940     1.0  0.53840  0.28655  0.35980  1.0000
  S   S486      1.0  0.73164  0.19428  0.18093  1.0000
  C   C1724     1.0  0.70353  0.05735  0.15576  1.0000
  H   H2941     1.0  0.58958  0.15049  0.98191  1.0000
  H   H2942     1.0  0.49262  0.13271  0.13808  1.0000
  H   H2943     1.0  0.68666  0.99519  0.99217  1.0000
  C   C1725     1.0  0.72607  0.23932  0.35818  1.0000
  H   H2944     1.0  0.49994  0.29544  0.01198  1.0000
  C   C1726     1.0  0.55751  0.30657  0.39857  1.0000
  H   H2945     1.0  0.70979  0.08695  0.15529  1.0000
  C   C1727     1.0  0.51569  0.08450  0.40840  1.0000
  H   H2946     1.0  0.68993  0.09933  0.13670  1.0000
  H   H2947     1.0  0.61113  0.14716  0.01822  1.0000
  H   H2948     1.0  0.49943  0.31305  0.02176  1.0000
  H   H2949     1.0  0.53119  0.21822  0.45749  1.0000
  C   C1728     1.0  0.60834  0.19767  0.01731  1.0000
  S   S487      1.0  0.49153  0.26838  0.43971  1.0000
  C   C1729     1.0  0.51895  0.31591  0.42851  1.0000
  N   N123      1.0  0.69654  0.06916  0.14062  1.0000
  H   H2950     1.0  0.54809  0.08319  0.41852  1.0000
  H   H2951     1.0  0.59817  0.13376  0.04933  1.0000
  C   C1730     1.0  0.69318  0.18971  0.06403  1.0000
  H   H2952     1.0  0.70935  0.10990  0.12046  1.0000
  H   H2953     1.0  0.52520  0.08272  0.39267  1.0000
  H   H2954     1.0  0.58261  0.15319  0.05570  1.0000
  C   C1731     1.0  0.70517  0.00364  0.04218  1.0000
  H   H2955     1.0  0.71424  0.13711  0.21346  1.0000
  H   H2956     1.0  0.51656  0.16065  0.40110  1.0000
  C   C1732     1.0  0.54160  0.27689  0.37304  1.0000
  H   H2957     1.0  0.55273  0.31090  0.41672  1.0000
  S   S488      1.0  0.73003  0.30250  0.42601  1.0000
  C   C1733     1.0  0.71855  0.99510  0.13222  1.0000
  H   H2958     1.0  0.72662  0.05367  0.15169  1.0000
  H   H2959     1.0  0.72479  0.06484  0.11930  1.0000
  C   C1734     1.0  0.48957  0.16809  0.45363  1.0000
  C   C1735     1.0  0.70396  0.02088  0.99724  1.0000
  H   H2960     1.0  0.55850  0.26330  0.44621  1.0000
  S   S489      1.0  0.72627  0.01653  0.16228  1.0000
  S   S490      1.0  0.48440  0.10431  0.23425  1.0000
  H   H2961     1.0  0.72954  0.16290  0.21361  1.0000
  C   C1736     1.0  0.60467  0.17208  0.98701  1.0000
  H   H2962     1.0  0.58181  0.14580  0.02643  1.0000
  H   H2963     1.0  0.53257  0.10522  0.47113  1.0000
  H   H2964     1.0  0.56470  0.15484  0.00883  1.0000
  H   H2965     1.0  0.52192  0.18006  0.37967  1.0000
  H   H2966     1.0  0.51579  0.19090  0.41918  1.0000
  H   H2967     1.0  0.51148  0.11238  0.43360  1.0000
  H   H2968     1.0  0.71874  0.02743  0.03765  1.0000
  H   H2969     1.0  0.51073  0.19145  0.46561  1.0000
  H   H2970     1.0  0.72049  0.99051  0.00908  1.0000
  H   H2971     1.0  0.73014  0.01340  0.03516  1.0000
  C   C1737     1.0  0.69383  0.98954  0.12021  1.0000
  H   H2972     1.0  0.69332  0.03997  0.99962  1.0000
  H   H2973     1.0  0.71542  0.02913  0.99300  1.0000
  H   H2974     1.0  0.48446  0.14965  0.99343  1.0000
  H   H2975     1.0  0.53737  0.06734  0.46501  1.0000
  H   H2976     1.0  0.55919  0.17240  0.99909  1.0000
  H   H2977     1.0  0.67926  0.99639  0.02645  1.0000
  H   H2978     1.0  0.49059  0.18910  0.42079  1.0000
  C   C1738     1.0  0.48397  0.31587  0.07972  1.0000
  H   H2979     1.0  0.51344  0.09615  0.47459  1.0000
  Fe  Fe242     1.0  0.50028  0.03493  0.63721  1.0000
  S   S491      1.0  0.49791  0.05565  0.60608  1.0000
  H   H2980     1.0  0.56229  0.26465  0.93251  1.0000
  Fe  Fe243     1.0  0.52379  0.05614  0.65951  1.0000
  S   S492      1.0  0.52286  0.07784  0.62980  1.0000
  S   S493      1.0  0.53705  0.05663  0.69373  1.0000
  Fe  Fe244     1.0  0.49732  0.06750  0.64138  1.0000
  Fe  Fe245     1.0  0.52365  0.06428  0.59727  1.0000
  S   S494      1.0  0.53987  0.07513  0.55336  1.0000
  S   S495      1.0  0.49800  0.04650  0.67321  1.0000
  S   S496      1.0  0.52634  0.04284  0.62621  1.0000
  Fe  Fe246     1.0  0.50034  0.17964  0.89338  1.0000
  S   S497      1.0  0.50415  0.16744  0.93437  1.0000
  H   H2981     1.0  0.72519  0.26678  0.53747  1.0000
  Fe  Fe247     1.0  0.51044  0.21178  0.90434  1.0000
  S   S498      1.0  0.51508  0.20181  0.94590  1.0000
  S   S499      1.0  0.51571  0.23758  0.88328  1.0000
  Fe  Fe248     1.0  0.52606  0.18629  0.92348  1.0000
  S   S500      1.0  0.54841  0.17920  0.92344  1.0000
  H   H2982     1.0  0.67494  0.27502  0.94576  1.0000
  S   S501      1.0  0.52304  0.19750  0.88127  1.0000
  H   H2983     1.0  0.66763  0.16862  0.84060  1.0000
  S   S502      1.0  0.51843  0.28838  0.95304  1.0000
  C   C1739     1.0  0.69769  0.16995  0.71198  1.0000
  S   S503      1.0  0.63146  0.01409  0.78236  1.0000
  Fe  Fe249     1.0  0.64706  0.18479  0.94540  1.0000
  S   S504      1.0  0.66749  0.19529  0.90796  1.0000
  Fe  Fe250     1.0  0.63133  0.21012  0.92889  1.0000
  S   S505      1.0  0.65082  0.22304  0.89029  1.0000
  S   S506      1.0  0.60928  0.21723  0.94387  1.0000
  Fe  Fe251     1.0  0.65023  0.19934  0.88300  1.0000
  S   S507      1.0  0.65252  0.19468  0.83951  1.0000
  Fe  Fe252     1.0  0.66659  0.21801  0.91856  1.0000
  S   S508      1.0  0.69029  0.23347  0.91559  1.0000
  S   S509      1.0  0.62994  0.18697  0.91967  1.0000
  S   S510      1.0  0.64710  0.20704  0.95777  1.0000
  Fe  Fe253     1.0  0.60379  0.11269  0.73435  1.0000
  S   S511      1.0  0.59448  0.10608  0.78156  1.0000
  S   S512      1.0  0.58953  0.11228  0.70163  1.0000
  Fe  Fe254     1.0  0.63726  0.11975  0.73898  1.0000
  S   S513      1.0  0.63041  0.11285  0.78659  1.0000
  S   S514      1.0  0.66228  0.12609  0.71372  1.0000
  Fe  Fe255     1.0  0.61275  0.09303  0.78263  1.0000
  S   S515      1.0  0.60514  0.06914  0.81310  1.0000
  Fe  Fe256     1.0  0.61285  0.12653  0.78199  1.0000
  S   S516      1.0  0.60657  0.13989  0.81448  1.0000
  S   S517      1.0  0.62112  0.09846  0.73543  1.0000
  S   S518      1.0  0.62065  0.13465  0.73430  1.0000
  C   C1740     1.0  0.63962  0.17939  0.83288  1.0000
  C   C1741     1.0  0.62731  0.16917  0.85440  1.0000
  C   C1742     1.0  0.61744  0.15702  0.84846  1.0000
  C   C1743     1.0  0.61989  0.15477  0.82112  1.0000
  C   C1744     1.0  0.63229  0.16487  0.79962  1.0000
  C   C1745     1.0  0.64201  0.17719  0.80545  1.0000
  H   H2984     1.0  0.62537  0.17063  0.87560  1.0000
  H   H2985     1.0  0.60800  0.14916  0.86525  1.0000
  H   H2986     1.0  0.63419  0.16338  0.77839  1.0000
  H   H2987     1.0  0.65139  0.18512  0.78856  1.0000
  C   C1746     1.0  0.69728  0.24540  0.93653  1.0000
  H   H2988     1.0  0.64400  0.98908  0.91261  1.0000
  H   H2989     1.0  0.57724  0.21562  0.96600  1.0000
  H   H2990     1.0  0.60612  0.02576  0.74052  1.0000
  C   C1747     1.0  0.71924  0.26257  0.94482  1.0000
  C   C1748     1.0  0.71312  0.25277  0.92926  1.0000
  H   H2991     1.0  0.73143  0.26823  0.93878  1.0000
  C   C1749     1.0  0.54217  0.12502  0.50752  1.0000
  H   H2992     1.0  0.72071  0.25097  0.91129  1.0000
  C   C1750     1.0  0.62377  0.02924  0.79062  1.0000
  C   C1751     1.0  0.63068  0.04451  0.77406  1.0000
  C   C1752     1.0  0.62484  0.05686  0.78027  1.0000
  C   C1753     1.0  0.61207  0.05396  0.80319  1.0000
  C   C1754     1.0  0.60498  0.03867  0.81943  1.0000
  C   C1755     1.0  0.61083  0.02633  0.81321  1.0000
  H   H2993     1.0  0.64070  0.04679  0.75653  1.0000
  H   H2994     1.0  0.63041  0.06863  0.76773  1.0000
  H   H2995     1.0  0.59497  0.03638  0.83696  1.0000
  H   H2996     1.0  0.60530  0.01458  0.82584  1.0000
  C   C1756     1.0  0.56507  0.19090  0.92795  1.0000
  C   C1757     1.0  0.56427  0.20035  0.94662  1.0000
  C   C1758     1.0  0.57790  0.20851  0.95124  1.0000
  C   C1759     1.0  0.59236  0.20726  0.93721  1.0000
  C   C1760     1.0  0.59309  0.19795  0.91836  1.0000
  C   C1761     1.0  0.57952  0.18974  0.91393  1.0000
  H   H2997     1.0  0.55315  0.20095  0.95814  1.0000
  C   C1762     1.0  0.71524  0.23090  0.54468  1.0000
  H   H2998     1.0  0.60412  0.19719  0.90688  1.0000
  H   H2999     1.0  0.58026  0.18255  0.89937  1.0000
  C   C1763     1.0  0.51610  0.25148  0.90312  1.0000
  C   C1764     1.0  0.52156  0.26730  0.88877  1.0000
  C   C1765     1.0  0.52193  0.27873  0.90379  1.0000
  C   C1766     1.0  0.51725  0.27439  0.93340  1.0000
  C   C1767     1.0  0.51202  0.25856  0.94777  1.0000
  C   C1768     1.0  0.51128  0.24714  0.93270  1.0000
  H   H3000     1.0  0.52558  0.27074  0.86593  1.0000
  H   H3001     1.0  0.52611  0.29089  0.89252  1.0000
  C   C1769     1.0  0.55777  0.26291  0.91406  1.0000
  H   H3002     1.0  0.50704  0.23499  0.94401  1.0000
  H   H3003     1.0  0.65900  0.04548  0.81587  1.0000
  H   H3004     1.0  0.62922  0.01184  0.88923  1.0000
  C   C1770     1.0  0.58444  0.18231  0.50411  1.0000
  H   H3005     1.0  0.67438  0.17977  0.63959  1.0000
  H   H3006     1.0  0.56704  0.04723  0.66733  1.0000
  H   H3007     1.0  0.68514  0.19122  0.83994  1.0000
  C   C1771     1.0  0.54084  0.09450  0.53660  1.0000
  C   C1772     1.0  0.55257  0.10240  0.51189  1.0000
  H   H3008     1.0  0.71444  0.15990  0.69079  1.0000
  C   C1773     1.0  0.53059  0.11722  0.53248  1.0000
  C   C1774     1.0  0.52991  0.10200  0.54696  1.0000
  H   H3009     1.0  0.56113  0.09669  0.50392  1.0000
  H   H3010     1.0  0.52206  0.12292  0.54064  1.0000
  H   H3011     1.0  0.52082  0.09599  0.56600  1.0000
  C   C1775     1.0  0.63796  0.02908  0.92540  1.0000
  C   C1776     1.0  0.55080  0.07276  0.69612  1.0000
  C   C1777     1.0  0.55801  0.08565  0.67300  1.0000
  C   C1778     1.0  0.56968  0.09769  0.67523  1.0000
  C   C1779     1.0  0.57443  0.09694  0.70042  1.0000
  C   C1780     1.0  0.56699  0.08419  0.72374  1.0000
  C   C1781     1.0  0.55515  0.07227  0.72163  1.0000
  H   H3012     1.0  0.55484  0.08618  0.65320  1.0000
  H   H3013     1.0  0.57528  0.10752  0.65711  1.0000
  H   H3014     1.0  0.57035  0.08354  0.74339  1.0000
  H   H3015     1.0  0.54946  0.06247  0.73977  1.0000
  C   C1782     1.0  0.68199  0.16780  0.72475  1.0000
  C   C1783     1.0  0.67103  0.15429  0.72590  1.0000
  C   C1784     1.0  0.67569  0.14288  0.71402  1.0000
  C   C1785     1.0  0.69139  0.14504  0.70125  1.0000
  C   C1786     1.0  0.70237  0.15847  0.70034  1.0000
  H   H3016     1.0  0.67827  0.17666  0.73371  1.0000
  H   H3017     1.0  0.65896  0.15280  0.73561  1.0000
  H   H3018     1.0  0.69508  0.13623  0.69210  1.0000
  C   C1787     1.0  0.56122  0.23406  0.86697  1.0000
  C   C1788     1.0  0.70655  0.16796  0.61473  1.0000
  C   C1789     1.0  0.62575  0.02166  0.87707  1.0000
  N   N124      1.0  0.69808  0.17993  0.62105  1.0000
  C   C1790     1.0  0.70746  0.19003  0.63505  1.0000
  H   H3019     1.0  0.50918  0.06173  0.49313  1.0000
  S   S519      1.0  0.48739  0.19495  0.91260  1.0000
  C   C1791     1.0  0.69659  0.19024  0.59441  1.0000
  C   C1792     1.0  0.69982  0.20172  0.64714  1.0000
  H   H3020     1.0  0.58075  0.06603  0.68767  1.0000
  Fe  Fe257     1.0  0.70471  0.24612  0.48537  1.0000
  H   H3021     1.0  0.71059  0.18278  0.65273  1.0000
  H   H3022     1.0  0.71864  0.19691  0.62018  1.0000
  H   H3023     1.0  0.68330  0.17037  0.66386  1.0000
  H   H3024     1.0  0.70009  0.15977  0.60514  1.0000
  H   H3025     1.0  0.62482  0.08456  0.68494  1.0000
  H   H3026     1.0  0.56423  0.16312  0.51712  1.0000
  H   H3027     1.0  0.69018  0.19887  0.59939  1.0000
  H   H3028     1.0  0.53627  0.12278  0.64633  1.0000
  H   H3029     1.0  0.70786  0.20829  0.65685  1.0000
  H   H3030     1.0  0.69746  0.21038  0.63053  1.0000
  H   H3031     1.0  0.68913  0.19594  0.66424  1.0000
  C   C1793     1.0  0.54817  0.23468  0.92646  1.0000
  H   H3032     1.0  0.51514  0.06763  0.74165  1.0000
  H   H3033     1.0  0.56085  0.23610  0.84445  1.0000
  H   H3034     1.0  0.69424  0.17364  0.56822  1.0000
  H   H3035     1.0  0.50842  0.25512  0.97067  1.0000
  N   N125      1.0  0.58289  0.15344  0.52650  1.0000
  C   C1794     1.0  0.57152  0.13919  0.54712  1.0000
  S   S520      1.0  0.64461  0.16144  0.97456  1.0000
  C   C1795     1.0  0.57496  0.16646  0.52407  1.0000
  C   C1796     1.0  0.59693  0.15728  0.53758  1.0000
  C   C1797     1.0  0.56504  0.14063  0.57721  1.0000
  H   H3036     1.0  0.49211  0.08990  0.74700  1.0000
  H   H3037     1.0  0.59341  0.26814  0.89968  1.0000
  C   C1798     1.0  0.61216  0.16700  0.51565  1.0000
  C   C1799     1.0  0.49736  0.11463  0.73781  1.0000
  H   H3038     1.0  0.57677  0.12917  0.55008  1.0000
  H   H3039     1.0  0.49886  0.12475  0.71979  1.0000
  H   H3040     1.0  0.72299  0.18123  0.57350  1.0000
  H   H3041     1.0  0.52273  0.06053  0.51393  1.0000
  H   H3042     1.0  0.57127  0.16886  0.54494  1.0000
  H   H3043     1.0  0.59462  0.16349  0.55430  1.0000
  H   H3044     1.0  0.59947  0.14638  0.54810  1.0000
  H   H3045     1.0  0.59443  0.15969  0.48141  1.0000
  H   H3046     1.0  0.59926  0.16507  0.95014  1.0000
  C   C1800     1.0  0.71703  0.21263  0.97142  1.0000
  C   C1801     1.0  0.71680  0.99748  0.96746  1.0000
  H   H3047     1.0  0.50921  0.10975  0.67250  1.0000
  H   H3048     1.0  0.69319  0.28992  0.96006  1.0000
  H   H3049     1.0  0.49443  0.29485  0.87753  1.0000
  C   C1802     1.0  0.56415  0.27827  0.89054  1.0000
  H   H3050     1.0  0.61865  0.17508  0.52548  1.0000
  H   H3051     1.0  0.67336  0.31836  0.92296  1.0000
  H   H3052     1.0  0.61978  0.15946  0.51008  1.0000
  H   H3053     1.0  0.56777  0.25862  0.86090  1.0000
  C   C1803     1.0  0.65734  0.03417  0.83117  1.0000
  H   H3054     1.0  0.51293  0.28987  0.80864  1.0000
  H   H3055     1.0  0.71482  0.00742  0.95286  1.0000
  S   S521      1.0  0.71108  0.18690  0.71182  1.0000
  H   H3056     1.0  0.58461  0.12463  0.50758  1.0000
  H   H3057     1.0  0.70812  0.19720  0.58094  1.0000
  H   H3058     1.0  0.71362  0.15792  0.76057  1.0000
  C   C1804     1.0  0.71548  0.30524  0.91578  1.0000
  H   H3059     1.0  0.52384  0.16667  0.49738  1.0000
  H   H3060     1.0  0.64280  0.07096  0.86305  1.0000
  H   H3061     1.0  0.55161  0.22376  0.87889  1.0000
  H   H3062     1.0  0.61091  0.17427  0.49602  1.0000
  H   H3063     1.0  0.50339  0.08223  0.69133  1.0000
  H   H3064     1.0  0.54339  0.11444  0.67497  1.0000
  C   C1805     1.0  0.65401  0.14163  0.82675  1.0000
  H   H3065     1.0  0.64909  0.02597  0.92030  1.0000
  H   H3066     1.0  0.51887  0.12288  0.68879  1.0000
  C   C1806     1.0  0.55322  0.11760  0.49734  1.0000
  C   C1807     1.0  0.68243  0.17217  0.64159  1.0000
  H   H3067     1.0  0.60172  0.00881  0.89245  1.0000
  C   C1808     1.0  0.68763  0.24778  0.95990  1.0000
  H   H3068     1.0  0.67376  0.17887  0.80456  1.0000
  C   C1809     1.0  0.67412  0.15592  0.64034  1.0000
  C   C1810     1.0  0.53378  0.11257  0.66475  1.0000
  H   H3069     1.0  0.70610  0.17106  0.79472  1.0000
  H   H3070     1.0  0.49915  0.29722  0.82758  1.0000
  C   C1811     1.0  0.51805  0.11125  0.68480  1.0000
  H   H3071     1.0  0.62176  0.05069  0.86041  1.0000
  C   C1812     1.0  0.65313  0.03515  0.86219  1.0000
  N   N126      1.0  0.68218  0.15832  0.81396  1.0000
  C   C1813     1.0  0.69619  0.16441  0.78897  1.0000
  C   C1814     1.0  0.63906  0.98961  0.93386  1.0000
  C   C1815     1.0  0.66933  0.14960  0.80423  1.0000
  C   C1816     1.0  0.52076  0.09301  0.76040  1.0000
  H   H3072     1.0  0.52263  0.08257  0.69233  1.0000
  H   H3073     1.0  0.54169  0.24355  0.96407  1.0000
  H   H3074     1.0  0.57544  0.03237  0.68169  1.0000
  H   H3075     1.0  0.66439  0.14321  0.87180  1.0000
  H   H3076     1.0  0.69391  0.17279  0.77159  1.0000
  H   H3077     1.0  0.50048  0.17538  0.49402  1.0000
  C   C1817     1.0  0.59350  0.13576  0.49757  1.0000
  C   C1818     1.0  0.59057  0.25793  0.89118  1.0000
  H   H3078     1.0  0.66675  0.15748  0.78650  1.0000
  H   H3079     1.0  0.67266  0.14012  0.79568  1.0000
  H   H3080     1.0  0.68446  0.13588  0.83500  1.0000
  H   H3081     1.0  0.50913  0.08506  0.76869  1.0000
  H   H3082     1.0  0.67224  0.18888  0.96765  1.0000
  H   H3083     1.0  0.60035  0.25238  0.88980  1.0000
  H   H3084     1.0  0.64955  0.14953  0.83838  1.0000
  H   H3085     1.0  0.56144  0.13550  0.53870  1.0000
  H   H3086     1.0  0.72759  0.16430  0.59102  1.0000
  H   H3087     1.0  0.62564  0.01911  0.85635  1.0000
  N   N127      1.0  0.51319  0.09869  0.71237  1.0000
  C   C1819     1.0  0.71428  0.29372  0.89737  1.0000
  C   C1820     1.0  0.58650  0.14976  0.49823  1.0000
  H   H3088     1.0  0.69239  0.19102  0.96259  1.0000
  H   H3089     1.0  0.49354  0.26750  0.82065  1.0000
  H   H3090     1.0  0.51524  0.07712  0.50951  1.0000
  S   S522      1.0  0.70044  0.23766  0.53284  1.0000
  H   H3091     1.0  0.59618  0.04100  0.76587  1.0000
  N   N128      1.0  0.56064  0.24832  0.90660  1.0000
  H   H3092     1.0  0.56233  0.28800  0.89988  1.0000
  C   C1821     1.0  0.49990  0.14346  0.49055  1.0000
  H   H3093     1.0  0.49381  0.00713  0.58980  1.0000
  H   H3094     1.0  0.70758  0.16066  0.63485  1.0000
  H   H3095     1.0  0.57484  0.16935  0.97557  1.0000
  H   H3096     1.0  0.66842  0.03082  0.82679  1.0000
  C   C1822     1.0  0.68603  0.14784  0.83779  1.0000
  S   S523      1.0  0.64130  0.99137  0.84794  1.0000
  H   H3097     1.0  0.63341  0.04607  0.83228  1.0000
  H   H3098     1.0  0.67612  0.17660  0.58633  1.0000
  H   H3099     1.0  0.62839  0.01846  0.93201  1.0000
  H   H3100     1.0  0.52989  0.11374  0.72602  1.0000
  H   H3101     1.0  0.72564  0.29104  0.89162  1.0000
  C   C1823     1.0  0.63613  0.04132  0.90068  1.0000
  C   C1824     1.0  0.64871  0.99430  0.95069  1.0000
  H   H3102     1.0  0.53559  0.09731  0.71857  1.0000
  C   C1825     1.0  0.49766  0.09972  0.72804  1.0000
  H   H3103     1.0  0.63769  0.03385  0.94412  1.0000
  H   H3104     1.0  0.57712  0.23421  0.90964  1.0000
  H   H3105     1.0  0.66684  0.29034  0.93370  1.0000
  H   H3106     1.0  0.57423  0.14522  0.58685  1.0000
  H   H3107     1.0  0.52163  0.10179  0.77276  1.0000
  H   H3108     1.0  0.52902  0.08607  0.76530  1.0000
  H   H3109     1.0  0.67311  0.15535  0.61894  1.0000
  H   H3110     1.0  0.57667  0.24615  0.93259  1.0000
  H   H3111     1.0  0.53373  0.10242  0.65594  1.0000
  S   S524      1.0  0.72464  0.99879  0.73679  1.0000
  H   H3112     1.0  0.49038  0.26493  0.89456  1.0000
  H   H3113     1.0  0.64138  0.07333  0.82747  1.0000
  C   C1826     1.0  0.69460  0.99302  0.76682  1.0000
  H   H3114     1.0  0.61239  0.07912  0.66379  1.0000
  N   N129      1.0  0.63713  0.03690  0.87312  1.0000
  H   H3115     1.0  0.60399  0.02910  0.88032  1.0000
  C   C1827     1.0  0.49474  0.27145  0.83987  1.0000
  H   H3116     1.0  0.60988  0.15364  0.96761  1.0000
  C   C1828     1.0  0.54560  0.23360  0.95843  1.0000
  H   H3117     1.0  0.66108  0.99742  0.94225  1.0000
  C   C1829     1.0  0.67767  0.17216  0.82185  1.0000
  H   H3118     1.0  0.64865  0.02535  0.82671  1.0000
  C   C1830     1.0  0.67799  0.28718  0.93258  1.0000
  H   H3119     1.0  0.58911  0.18178  0.48222  1.0000
  C   C1831     1.0  0.52541  0.10112  0.72827  1.0000
  C   C1832     1.0  0.57592  0.24598  0.91075  1.0000
  C   C1833     1.0  0.50534  0.28805  0.83007  1.0000
  C   C1834     1.0  0.50622  0.06860  0.72989  1.0000
  H   H3120     1.0  0.48795  0.23921  0.86311  1.0000
  H   H3121     1.0  0.52769  0.18698  0.49461  1.0000
  H   H3122     1.0  0.48535  0.14177  0.83534  1.0000
  C   C1835     1.0  0.67703  0.14647  0.86836  1.0000
  H   H3123     1.0  0.67997  0.14704  0.64851  1.0000
  H   H3124     1.0  0.62420  0.06660  0.67591  1.0000
  Fe  Fe258     1.0  0.52005  0.31338  0.93111  1.0000
  C   C1836     1.0  0.64438  0.06572  0.84492  1.0000
  H   H3125     1.0  0.68304  0.28689  0.91076  1.0000
  H   H3126     1.0  0.64525  0.05200  0.89795  1.0000
  H   H3127     1.0  0.55866  0.12889  0.59106  1.0000
  H   H3128     1.0  0.57682  0.19035  0.50268  1.0000
  H   H3129     1.0  0.58954  0.05840  0.76582  1.0000
  H   H3130     1.0  0.66227  0.15251  0.65452  1.0000
  H   H3131     1.0  0.57680  0.03978  0.78302  1.0000
  H   H3132     1.0  0.65500  0.13123  0.84170  1.0000
  H   H3133     1.0  0.60537  0.18345  0.97257  1.0000
  H   H3134     1.0  0.70797  0.23424  0.58623  1.0000
  N   N130      1.0  0.56448  0.15398  0.84909  1.0000
  C   C1837     1.0  0.56998  0.14332  0.87009  1.0000
  C   C1838     1.0  0.55701  0.14429  0.83216  1.0000
  C   C1839     1.0  0.55281  0.16055  0.86560  1.0000
  C   C1840     1.0  0.57829  0.16673  0.83087  1.0000
  C   C1841     1.0  0.57598  0.15028  0.89260  1.0000
  C   C1842     1.0  0.56763  0.13689  0.81413  1.0000
  C   C1843     1.0  0.54075  0.16589  0.85111  1.0000
  C   C1844     1.0  0.57571  0.17831  0.80610  1.0000
  H   H3135     1.0  0.56057  0.13270  0.88182  1.0000
  H   H3136     1.0  0.57955  0.13917  0.85911  1.0000
  H   H3137     1.0  0.55178  0.15100  0.81732  1.0000
  H   H3138     1.0  0.54717  0.13474  0.84655  1.0000
  H   H3139     1.0  0.54589  0.15184  0.88573  1.0000
  H   H3140     1.0  0.55873  0.17061  0.87208  1.0000
  H   H3141     1.0  0.58314  0.17398  0.84383  1.0000
  H   H3142     1.0  0.58807  0.16206  0.82240  1.0000
  H   H3143     1.0  0.56701  0.15387  0.90638  1.0000
  H   H3144     1.0  0.57956  0.14128  0.90663  1.0000
  H   H3145     1.0  0.58631  0.16016  0.88296  1.0000
  H   H3146     1.0  0.56102  0.13074  0.80170  1.0000
  H   H3147     1.0  0.57756  0.14571  0.79865  1.0000
  H   H3148     1.0  0.57178  0.12806  0.82733  1.0000
  H   H3149     1.0  0.54592  0.17442  0.83032  1.0000
  H   H3150     1.0  0.53394  0.17156  0.86484  1.0000
  H   H3151     1.0  0.53233  0.15590  0.84893  1.0000
  H   H3152     1.0  0.57178  0.18793  0.81327  1.0000
  H   H3153     1.0  0.56762  0.17295  0.79522  1.0000
  H   H3154     1.0  0.58677  0.18329  0.78950  1.0000
  H   H3155     1.0  0.53691  0.23471  0.92147  1.0000
  C   C1845     1.0  0.60883  0.02033  0.89186  1.0000
  S   S525      1.0  0.49533  0.16463  0.86364  1.0000
  C   C1846     1.0  0.71621  0.23033  0.57248  1.0000
  H   H3156     1.0  0.68058  0.30227  0.95966  1.0000
  C   C1847     1.0  0.52503  0.17813  0.48291  1.0000
  C   C1848     1.0  0.68841  0.18214  0.57558  1.0000
  H   H3157     1.0  0.57241  0.23149  0.86815  1.0000
  H   H3158     1.0  0.65483  0.02442  0.87527  1.0000
  H   H3159     1.0  0.48949  0.09884  0.71447  1.0000
  H   H3160     1.0  0.51272  0.29000  0.84466  1.0000
  C   C1849     1.0  0.48448  0.28657  0.89367  1.0000
  H   H3161     1.0  0.66206  0.04481  0.86419  1.0000
  H   H3162     1.0  0.71161  0.29845  0.87719  1.0000
  H   H3163     1.0  0.71897  0.29927  0.93430  1.0000
  H   H3164     1.0  0.69736  0.17810  0.84049  1.0000
  H   H3165     1.0  0.55657  0.14777  0.57747  1.0000
  H   H3166     1.0  0.64514  0.13742  0.81605  1.0000
  N   N131      1.0  0.59334  0.05173  0.70920  1.0000
  C   C1850     1.0  0.58532  0.05574  0.68610  1.0000
  C   C1851     1.0  0.60415  0.06659  0.70916  1.0000
  C   C1852     1.0  0.58120  0.04540  0.73711  1.0000
  C   C1853     1.0  0.60162  0.03966  0.70276  1.0000
  H   H3167     1.0  0.69360  0.31051  0.88683  1.0000
  C   C1854     1.0  0.61703  0.07446  0.68167  1.0000
  C   C1855     1.0  0.58647  0.04626  0.76421  1.0000
  C   C1856     1.0  0.61245  0.03524  0.72118  1.0000
  H   H3168     1.0  0.48897  0.13602  0.48940  1.0000
  H   H3169     1.0  0.59351  0.05911  0.66477  1.0000
  H   H3170     1.0  0.60994  0.06496  0.72655  1.0000
  H   H3171     1.0  0.59753  0.07524  0.71338  1.0000
  H   H3172     1.0  0.57204  0.05176  0.73756  1.0000
  H   H3173     1.0  0.57527  0.03306  0.73990  1.0000
  H   H3174     1.0  0.59318  0.02858  0.70499  1.0000
  H   H3175     1.0  0.60826  0.04287  0.68016  1.0000
  C   C1857     1.0  0.57178  0.04281  0.68528  1.0000
  H   H3176     1.0  0.56212  0.03954  0.70464  1.0000
  H   H3177     1.0  0.54792  0.25042  0.87471  1.0000
  H   H3178     1.0  0.68874  0.19105  0.55631  1.0000
  H   H3179     1.0  0.69826  0.19175  0.80782  1.0000
  H   H3180     1.0  0.62501  0.04427  0.90782  1.0000
  C   C1858     1.0  0.72598  0.22599  0.52685  1.0000
  C   C1859     1.0  0.51904  0.06869  0.49840  1.0000
  C   C1860     1.0  0.69677  0.31856  0.89964  1.0000
  H   H3181     1.0  0.68028  0.15734  0.87476  1.0000
  H   H3182     1.0  0.49494  0.06747  0.74436  1.0000
  S   S526      1.0  0.49927  0.31803  0.91773  1.0000
  H   H3183     1.0  0.60730  0.02090  0.91413  1.0000
  H   H3184     1.0  0.65666  0.06591  0.83740  1.0000
  H   H3185     1.0  0.54517  0.26187  0.92089  1.0000
  H   H3186     1.0  0.62156  0.03111  0.70882  1.0000
  C   C1861     1.0  0.63351  0.04934  0.85238  1.0000
  C   C1862     1.0  0.69046  0.18384  0.82792  1.0000
  H   H3187     1.0  0.57661  0.28066  0.88073  1.0000
  H   H3188     1.0  0.55595  0.23239  0.96597  1.0000
  H   H3189     1.0  0.67996  0.13731  0.88326  1.0000
  H   H3190     1.0  0.55050  0.22352  0.92371  1.0000
  H   H3191     1.0  0.69843  0.15170  0.83732  1.0000
  C   C1863     1.0  0.51151  0.08334  0.70501  1.0000
  C   C1864     1.0  0.55932  0.24864  0.87691  1.0000
  C   C1865     1.0  0.72291  0.17425  0.59458  1.0000
  H   H3192     1.0  0.55774  0.27852  0.87394  1.0000
  C   C1866     1.0  0.70957  0.26511  0.96795  1.0000
  H   H3193     1.0  0.54194  0.08282  0.48061  1.0000
  H   H3194     1.0  0.69392  0.00262  0.75062  1.0000
  Fe  Fe259     1.0  0.49282  0.18391  0.95289  1.0000
  N   N132      1.0  0.70131  0.31076  0.92527  1.0000
  Fe  Fe260     1.0  0.62673  0.99187  0.81681  1.0000
  H   H3195     1.0  0.59385  0.18765  0.51258  1.0000
  H   H3196     1.0  0.61885  0.04509  0.72715  1.0000
  H   H3197     1.0  0.58997  0.26178  0.86905  1.0000
  H   H3198     1.0  0.67543  0.24218  0.96580  1.0000
  H   H3199     1.0  0.70432  0.14291  0.79248  1.0000
  C   C1867     1.0  0.68847  0.29761  0.94558  1.0000
  C   C1868     1.0  0.48424  0.99737  0.60187  1.0000
  H   H3200     1.0  0.50694  0.13590  0.49897  1.0000
  H   H3201     1.0  0.72527  0.22637  0.50539  1.0000
  H   H3202     1.0  0.50597  0.11727  0.74984  1.0000
  H   H3203     1.0  0.70597  0.28250  0.90927  1.0000
  C   C1869     1.0  0.70235  0.15211  0.77627  1.0000
  H   H3204     1.0  0.57587  0.14747  0.49070  1.0000
  H   H3205     1.0  0.50471  0.05832  0.72122  1.0000
  H   H3206     1.0  0.50159  0.26400  0.84935  1.0000
  S   S527      1.0  0.54272  0.14417  0.49019  1.0000
  H   H3207     1.0  0.69473  0.14685  0.76440  1.0000
  H   H3208     1.0  0.53629  0.22304  0.97049  1.0000
  S   S528      1.0  0.48222  0.08389  0.64828  1.0000
  C   C1870     1.0  0.71204  0.31791  0.96624  1.0000
  H   H3209     1.0  0.53032  0.25849  0.48243  1.0000
  H   H3210     1.0  0.48383  0.14093  0.92191  1.0000
  H   H3211     1.0  0.72367  0.31609  0.95968  1.0000
  H   H3212     1.0  0.70188  0.02116  0.97602  1.0000
  C   C1871     1.0  0.64243  0.99500  0.97835  1.0000
  H   H3213     1.0  0.48580  0.11300  0.75211  1.0000
  H   H3214     1.0  0.48342  0.12093  0.93075  1.0000
  H   H3215     1.0  0.72469  0.22272  0.97501  1.0000
  H   H3216     1.0  0.72789  0.99551  0.95702  1.0000
  H   H3217     1.0  0.48727  0.28577  0.91444  1.0000
  H   H3218     1.0  0.72413  0.20697  0.95816  1.0000
  H   H3219     1.0  0.60313  0.13610  0.50782  1.0000
  C   C1872     1.0  0.60041  0.15949  0.97137  1.0000
  C   C1873     1.0  0.69376  0.25756  0.97551  1.0000
  H   H3220     1.0  0.70961  0.21708  0.95852  1.0000
  H   H3221     1.0  0.72538  0.06005  0.70520  1.0000
  H   H3222     1.0  0.72545  0.31530  0.90379  1.0000
  H   H3223     1.0  0.73104  0.18107  0.60371  1.0000
  C   C1874     1.0  0.72802  0.22503  0.58233  1.0000
  H   H3224     1.0  0.72893  0.22501  0.60352  1.0000
  H   H3225     1.0  0.73150  0.29851  0.48527  1.0000
  H   H3226     1.0  0.51919  0.27220  0.48668  1.0000
  H   H3227     1.0  0.49708  0.14993  0.50643  1.0000
  S   S529      1.0  0.48485  0.00988  0.64853  1.0000
  H   H3228     1.0  0.68482  0.21344  0.97688  1.0000
  C   C1875     1.0  0.68150  0.18914  0.97888  1.0000
  H   H3229     1.0  0.66963  0.43215  0.99900  1.0000
  H   H3230     1.0  0.51930  0.37280  0.10562  1.0000
  S   S530      1.0  0.55288  0.42978  0.38448  1.0000
  Fe  Fe261     1.0  0.51509  0.42676  0.26053  1.0000
  S   S531      1.0  0.52402  0.42539  0.21602  1.0000
  S   S532      1.0  0.51873  0.40854  0.29544  1.0000
  Fe  Fe262     1.0  0.50337  0.45510  0.24025  1.0000
  S   S533      1.0  0.51216  0.45620  0.19442  1.0000
  C   C1876     1.0  0.54134  0.34354  0.39823  1.0000
  H   H3231     1.0  0.50011  0.39194  0.39089  1.0000
  Fe  Fe263     1.0  0.53341  0.45120  0.20628  1.0000
  S   S534      1.0  0.55817  0.45964  0.17936  1.0000
  S   S535      1.0  0.52553  0.45231  0.25121  1.0000
  S   S536      1.0  0.57471  0.39697  0.40607  1.0000
  Fe  Fe264     1.0  0.66616  0.53479  0.15693  1.0000
  S   S537      1.0  0.64645  0.54587  0.16463  1.0000
  S   S538      1.0  0.68320  0.53474  0.18458  1.0000
  Fe  Fe265     1.0  0.65498  0.52150  0.11085  1.0000
  S   S539      1.0  0.63455  0.53158  0.11549  1.0000
  S   S540      1.0  0.66102  0.51113  0.07371  1.0000
  Fe  Fe266     1.0  0.65087  0.55298  0.11739  1.0000
  S   S541      1.0  0.64711  0.57464  0.09138  1.0000
  Fe  Fe267     1.0  0.63161  0.52360  0.16217  1.0000
  S   S542      1.0  0.60758  0.51567  0.19181  1.0000
  S   S543      1.0  0.67174  0.54363  0.10943  1.0000
  S   S544      1.0  0.65091  0.51169  0.15789  1.0000
  H   H3232     1.0  0.70709  0.40942  0.01918  1.0000
  H   H3233     1.0  0.58808  0.52197  0.11063  1.0000
  Fe  Fe268     1.0  0.62614  0.44739  0.00483  1.0000
  S   S545      1.0  0.62293  0.45149  0.04883  1.0000
  S   S546      1.0  0.56963  0.38433  0.47378  1.0000
  H   H3234     1.0  0.66743  0.49486  0.42617  1.0000
  H   H3235     1.0  0.72999  0.47798  0.00779  1.0000
  H   H3236     1.0  0.52327  0.36210  0.38615  1.0000
  C   C1877     1.0  0.63898  0.42372  0.44898  1.0000
  H   H3237     1.0  0.57550  0.65167  0.12820  1.0000
  S   S547      1.0  0.72878  0.49967  0.38717  1.0000
  H   H3238     1.0  0.58480  0.50239  0.12981  1.0000
  C   C1878     1.0  0.67719  0.46460  0.04194  1.0000
  H   H3239     1.0  0.62261  0.55856  0.14242  1.0000
  H   H3240     1.0  0.71198  0.33688  0.44694  1.0000
  S   S548      1.0  0.67390  0.64194  0.10307  1.0000
  H   H3241     1.0  0.66009  0.43376  0.45894  1.0000
  H   H3242     1.0  0.73090  0.39409  0.45589  1.0000
  H   H3243     1.0  0.71885  0.48160  0.98314  1.0000
  H   H3244     1.0  0.58078  0.48785  0.02307  1.0000
  C   C1879     1.0  0.72011  0.52690  0.38694  1.0000
  H   H3245     1.0  0.48874  0.63681  0.02335  1.0000
  H   H3246     1.0  0.62880  0.59161  0.17138  1.0000
  C   C1880     1.0  0.61154  0.55844  0.15678  1.0000
  C   C1881     1.0  0.68963  0.48684  0.00124  1.0000
  C   C1882     1.0  0.57801  0.48096  0.04544  1.0000
  H   H3247     1.0  0.70879  0.47154  0.04840  1.0000
  C   C1883     1.0  0.64920  0.49506  0.06740  1.0000
  C   C1884     1.0  0.65052  0.49420  0.03931  1.0000
  C   C1885     1.0  0.64246  0.48098  0.03330  1.0000
  C   C1886     1.0  0.63313  0.46839  0.05541  1.0000
  C   C1887     1.0  0.63165  0.46932  0.08351  1.0000
  C   C1888     1.0  0.63962  0.48262  0.08953  1.0000
  H   H3248     1.0  0.65791  0.50381  0.02211  1.0000
  H   H3249     1.0  0.64356  0.48048  0.01159  1.0000
  H   H3250     1.0  0.62442  0.45963  0.10073  1.0000
  H   H3251     1.0  0.63867  0.48308  0.11124  1.0000
  C   C1889     1.0  0.65531  0.59319  0.09432  1.0000
  C   C1890     1.0  0.66430  0.59535  0.11331  1.0000
  C   C1891     1.0  0.67007  0.61038  0.11577  1.0000
  C   C1892     1.0  0.66681  0.62324  0.09936  1.0000
  C   C1893     1.0  0.65794  0.62102  0.08025  1.0000
  C   C1894     1.0  0.65223  0.60605  0.07772  1.0000
  H   H3252     1.0  0.66681  0.58548  0.12606  1.0000
  H   H3253     1.0  0.67704  0.61203  0.13042  1.0000
  H   H3254     1.0  0.65562  0.63083  0.06712  1.0000
  H   H3255     1.0  0.64538  0.60444  0.06285  1.0000
  C   C1895     1.0  0.63153  0.45163  0.45115  1.0000
  H   H3256     1.0  0.63094  0.60604  0.12879  1.0000
  C   C1896     1.0  0.51764  0.35756  0.33665  1.0000
  C   C1897     1.0  0.57167  0.47501  0.18398  1.0000
  C   C1898     1.0  0.58744  0.47668  0.17276  1.0000
  C   C1899     1.0  0.59855  0.48928  0.17448  1.0000
  C   C1900     1.0  0.59396  0.50006  0.18825  1.0000
  C   C1901     1.0  0.57822  0.49816  0.20023  1.0000
  C   C1902     1.0  0.56709  0.48575  0.19787  1.0000
  H   H3257     1.0  0.59107  0.46817  0.16265  1.0000
  H   H3258     1.0  0.61067  0.49053  0.16557  1.0000
  H   H3259     1.0  0.57461  0.50641  0.21110  1.0000
  H   H3260     1.0  0.55496  0.48457  0.20661  1.0000
  C   C1903     1.0  0.54300  0.42345  0.36058  1.0000
  C   C1904     1.0  0.54303  0.40912  0.35473  1.0000
  C   C1905     1.0  0.53578  0.40480  0.33434  1.0000
  C   C1906     1.0  0.52823  0.41462  0.32005  1.0000
  C   C1907     1.0  0.52815  0.42890  0.32600  1.0000
  C   C1908     1.0  0.53562  0.43334  0.34604  1.0000
  H   H3261     1.0  0.54890  0.40153  0.36552  1.0000
  H   H3262     1.0  0.53618  0.39388  0.32943  1.0000
  H   H3263     1.0  0.52225  0.43649  0.31534  1.0000
  H   H3264     1.0  0.53556  0.44444  0.35048  1.0000
  Fe  Fe269     1.0  0.55927  0.41239  0.41680  1.0000
  C   C1909     1.0  0.48611  0.61987  0.16351  1.0000
  S   S549      1.0  0.72289  0.44189  0.00701  1.0000
  C   C1910     1.0  0.48802  0.39864  0.09430  1.0000
  H   H3265     1.0  0.72876  0.55721  0.16287  1.0000
  N   N133      1.0  0.48858  0.64939  0.98144  1.0000
  S   S550      1.0  0.65765  0.46470  0.46578  1.0000
  C   C1911     1.0  0.71657  0.57658  0.19645  1.0000
  C   C1912     1.0  0.70881  0.57866  0.17493  1.0000
  C   C1913     1.0  0.69820  0.56610  0.17153  1.0000
  C   C1914     1.0  0.69534  0.55124  0.18949  1.0000
  C   C1915     1.0  0.70295  0.54919  0.21123  1.0000
  C   C1916     1.0  0.71340  0.56180  0.21487  1.0000
  C   C1917     1.0  0.71476  0.55216  0.46321  1.0000
  H   H3266     1.0  0.69250  0.56785  0.15464  1.0000
  H   H3267     1.0  0.70081  0.53776  0.22524  1.0000
  H   H3268     1.0  0.72305  0.54240  0.14712  1.0000
  H   H3269     1.0  0.55003  0.35409  0.38635  1.0000
  H   H3270     1.0  0.68221  0.39763  0.01643  1.0000
  H   H3271     1.0  0.59766  0.46144  0.08263  1.0000
  C   C1918     1.0  0.59764  0.50799  0.08488  1.0000
  H   H3272     1.0  0.60343  0.50796  0.01790  1.0000
  H   H3273     1.0  0.69920  0.51146  0.05506  1.0000
  H   H3274     1.0  0.65109  0.47845  0.40078  1.0000
  H   H3275     1.0  0.69001  0.43300  0.02502  1.0000
  N   N134      1.0  0.69100  0.47843  0.02968  1.0000
  H   H3276     1.0  0.66623  0.44437  0.07759  1.0000
  H   H3277     1.0  0.70278  0.51158  0.01878  1.0000
  H   H3278     1.0  0.56951  0.48793  0.08321  1.0000
  H   H3279     1.0  0.70240  0.38910  0.03438  1.0000
  H   H3280     1.0  0.49685  0.40793  0.12513  1.0000
  H   H3281     1.0  0.72227  0.40189  0.05238  1.0000
  S   S551      1.0  0.72652  0.48551  0.46853  1.0000
  C   C1919     1.0  0.51398  0.36792  0.39139  1.0000
  C   C1920     1.0  0.70890  0.44146  0.98738  1.0000
  C   C1921     1.0  0.48260  0.33530  0.38242  1.0000
  C   C1922     1.0  0.72520  0.37260  0.99902  1.0000
  C   C1923     1.0  0.53457  0.33328  0.38394  1.0000
  S   S552      1.0  0.69551  0.49556  0.45524  1.0000
  C   C1924     1.0  0.48351  0.60422  0.17792  1.0000
  H   H3282     1.0  0.72731  0.53435  0.43450  1.0000
  H   H3283     1.0  0.53232  0.41049  0.15339  1.0000
  H   H3284     1.0  0.52231  0.32323  0.46568  1.0000
  C   C1925     1.0  0.67523  0.45541  0.07267  1.0000
  C   C1926     1.0  0.49814  0.37894  0.14556  1.0000
  H   H3285     1.0  0.48909  0.32783  0.08057  1.0000
  N   N135      1.0  0.50872  0.39021  0.11868  1.0000
  H   H3286     1.0  0.59937  0.51813  0.06664  1.0000
  H   H3287     1.0  0.52886  0.36202  0.34092  1.0000
  C   C1927     1.0  0.62658  0.57010  0.20044  1.0000
  Fe  Fe270     1.0  0.50203  0.43033  0.20829  1.0000
  C   C1928     1.0  0.64561  0.44959  0.45646  1.0000
  C   C1929     1.0  0.62122  0.43981  0.44500  1.0000
  H   H3288     1.0  0.71336  0.54827  0.38602  1.0000
  N   N136      1.0  0.50036  0.36156  0.38099  1.0000
  C   C1930     1.0  0.71137  0.39886  0.01849  1.0000
  H   H3289     1.0  0.49380  0.62706  0.98231  1.0000
  H   H3290     1.0  0.71719  0.37791  0.47899  1.0000
  H   H3291     1.0  0.60750  0.59463  0.19473  1.0000
  C   C1931     1.0  0.69433  0.63785  0.15889  1.0000
  C   C1932     1.0  0.52399  0.39169  0.06815  1.0000
  S   S553      1.0  0.54110  0.39363  0.45075  1.0000
  H   H3292     1.0  0.60754  0.48232  0.04795  1.0000
  H   H3293     1.0  0.71917  0.56003  0.23165  1.0000
  C   C1933     1.0  0.52579  0.32612  0.44279  1.0000
  H   H3294     1.0  0.51120  0.65418  0.98901  1.0000
  H   H3295     1.0  0.49114  0.60083  0.19057  1.0000
  C   C1934     1.0  0.58515  0.50983  0.10895  1.0000
  H   H3296     1.0  0.63661  0.57862  0.15521  1.0000
  H   H3297     1.0  0.50534  0.35346  0.98446  1.0000
  C   C1935     1.0  0.49357  0.35718  0.02362  1.0000
  H   H3298     1.0  0.50486  0.37277  0.15818  1.0000
  S   S554      1.0  0.63038  0.42494  0.99702  1.0000
  S   S555      1.0  0.48839  0.42125  0.17937  1.0000
  H   H3299     1.0  0.61101  0.63891  0.06855  1.0000
  S   S556      1.0  0.60686  0.44611  0.98352  1.0000
  H   H3300     1.0  0.64489  0.47413  0.37117  1.0000
  Fe  Fe271     1.0  0.68286  0.47012  0.46917  1.0000
  N   N137      1.0  0.71336  0.39626  0.98923  1.0000
  H   H3301     1.0  0.67970  0.49220  0.00398  1.0000
  C   C1936     1.0  0.68394  0.39356  0.99689  1.0000
  H   H3302     1.0  0.71198  0.35588  0.42828  1.0000
  H   H3303     1.0  0.71380  0.50284  0.04138  1.0000
  C   C1937     1.0  0.50146  0.40292  0.10774  1.0000
  H   H3304     1.0  0.70357  0.46096  0.02483  1.0000
  N   N138      1.0  0.57505  0.45156  0.26689  1.0000
  C   C1938     1.0  0.56079  0.45757  0.26932  1.0000
  C   C1939     1.0  0.57472  0.44166  0.24622  1.0000
  C   C1940     1.0  0.58896  0.46539  0.25576  1.0000
  C   C1941     1.0  0.57458  0.44232  0.29602  1.0000
  C   C1942     1.0  0.55967  0.46961  0.28675  1.0000
  C   C1943     1.0  0.56058  0.42767  0.25381  1.0000
  C   C1944     1.0  0.60375  0.46321  0.23756  1.0000
  C   C1945     1.0  0.58738  0.43389  0.29820  1.0000
  H   H3305     1.0  0.55965  0.46291  0.24792  1.0000
  H   H3306     1.0  0.55026  0.44795  0.27940  1.0000
  H   H3307     1.0  0.58497  0.43691  0.24312  1.0000
  H   H3308     1.0  0.57523  0.44889  0.22491  1.0000
  H   H3309     1.0  0.58634  0.47523  0.24177  1.0000
  H   H3310     1.0  0.59208  0.46988  0.27344  1.0000
  H   H3311     1.0  0.57512  0.44982  0.31086  1.0000
  H   H3312     1.0  0.56344  0.43342  0.30529  1.0000
  H   H3313     1.0  0.54890  0.47332  0.28604  1.0000
  H   H3314     1.0  0.55886  0.46461  0.30939  1.0000
  H   H3315     1.0  0.56932  0.48022  0.27803  1.0000
  H   H3316     1.0  0.56219  0.42098  0.23776  1.0000
  H   H3317     1.0  0.55912  0.41959  0.27467  1.0000
  H   H3318     1.0  0.54982  0.43132  0.25301  1.0000
  H   H3319     1.0  0.60747  0.45312  0.24766  1.0000
  H   H3320     1.0  0.61329  0.47373  0.23355  1.0000
  H   H3321     1.0  0.60229  0.46213  0.21650  1.0000
  H   H3322     1.0  0.58750  0.42546  0.28520  1.0000
  H   H3323     1.0  0.58518  0.42714  0.32057  1.0000
  H   H3324     1.0  0.59880  0.44219  0.29285  1.0000
  N   N139      1.0  0.59428  0.49298  0.07628  1.0000
  H   H3325     1.0  0.68451  0.62736  0.16783  1.0000
  H   H3326     1.0  0.67538  0.46949  0.98620  1.0000
  C   C1946     1.0  0.59180  0.47991  0.10225  1.0000
  H   H3327     1.0  0.49519  0.36225  0.34031  1.0000
  C   C1947     1.0  0.68739  0.47679  0.98042  1.0000
  C   C1948     1.0  0.72619  0.35504  0.45935  1.0000
  C   C1949     1.0  0.70551  0.47281  0.02794  1.0000
  H   H3328     1.0  0.67842  0.65162  0.15294  1.0000
  C   C1950     1.0  0.49436  0.35333  0.99767  1.0000
  H   H3329     1.0  0.60637  0.62981  0.04210  1.0000
  C   C1951     1.0  0.72579  0.40129  0.03009  1.0000
  H   H3330     1.0  0.64196  0.41290  0.44824  1.0000
  H   H3331     1.0  0.60202  0.48155  0.11121  1.0000
  H   H3332     1.0  0.52183  0.37099  0.42834  1.0000
  C   C1952     1.0  0.71224  0.37941  0.99041  1.0000
  H   H3333     1.0  0.57355  0.50752  0.10505  1.0000
  H   H3334     1.0  0.61054  0.44166  0.44077  1.0000
  H   H3335     1.0  0.58174  0.47982  0.11907  1.0000
  C   C1953     1.0  0.58007  0.49177  0.06525  1.0000
  H   H3336     1.0  0.72849  0.34805  0.41945  1.0000
  H   H3337     1.0  0.61396  0.64454  0.98492  1.0000
  H   H3338     1.0  0.65517  0.50230  0.40508  1.0000
  H   H3339     1.0  0.57990  0.50345  0.05305  1.0000
  C   C1954     1.0  0.51083  0.36627  0.42351  1.0000
  C   C1955     1.0  0.68837  0.65213  0.16257  1.0000
  H   H3340     1.0  0.62509  0.55754  0.20242  1.0000
  C   C1956     1.0  0.73144  0.55070  0.34907  1.0000
  H   H3341     1.0  0.68599  0.45242  0.07594  1.0000
  H   H3342     1.0  0.49018  0.35726  0.13391  1.0000
  H   H3343     1.0  0.51920  0.38036  0.38039  1.0000
  C   C1957     1.0  0.68166  0.43598  0.98745  1.0000
  H   H3344     1.0  0.62202  0.50407  0.01114  1.0000
  H   H3345     1.0  0.68076  0.38072  0.00240  1.0000
  H   H3346     1.0  0.56052  0.38584  0.98706  1.0000
  H   H3347     1.0  0.61776  0.57181  0.21749  1.0000
  H   H3348     1.0  0.61849  0.49417  0.06386  1.0000
  S   S557      1.0  0.50117  0.63382  0.16786  1.0000
  C   C1958     1.0  0.69323  0.43648  0.00211  1.0000
  C   C1959     1.0  0.52095  0.40604  0.14954  1.0000
  H   H3349     1.0  0.68343  0.65006  0.18576  1.0000
  C   C1960     1.0  0.62473  0.42561  0.44432  1.0000
  H   H3350     1.0  0.72669  0.36318  0.98863  1.0000
  C   C1961     1.0  0.69008  0.48890  0.04928  1.0000
  C   C1962     1.0  0.52320  0.39762  0.12580  1.0000
  H   H3351     1.0  0.50334  0.37471  0.09230  1.0000
  C   C1963     1.0  0.61249  0.58518  0.13376  1.0000
  C   C1964     1.0  0.50526  0.36525  0.34912  1.0000
  C   C1965     1.0  0.71296  0.38363  0.43839  1.0000
  H   H3352     1.0  0.70990  0.39489  0.43757  1.0000
  H   H3353     1.0  0.66745  0.51474  0.41870  1.0000
  H   H3354     1.0  0.67109  0.46182  0.08801  1.0000
  N   N140      1.0  0.61191  0.57432  0.16160  1.0000
  C   C1966     1.0  0.72087  0.54249  0.37500  1.0000
  H   H3355     1.0  0.60862  0.50965  0.09158  1.0000
  S   S558      1.0  0.48995  0.47104  0.25710  1.0000
  H   H3356     1.0  0.70306  0.63596  0.17076  1.0000
  Fe  Fe272     1.0  0.58596  0.40448  0.43928  1.0000
  H   H3357     1.0  0.69983  0.49669  0.99015  1.0000
  C   C1967     1.0  0.58848  0.46330  0.09873  1.0000
  H   H3358     1.0  0.51890  0.40077  0.05818  1.0000
  H   H3359     1.0  0.51638  0.41627  0.14341  1.0000
  C   C1968     1.0  0.49140  0.38674  0.38083  1.0000
  H   H3360     1.0  0.59263  0.63823  0.06145  1.0000
  H   H3361     1.0  0.53129  0.40646  0.10701  1.0000
  H   H3362     1.0  0.69100  0.48309  0.07056  1.0000
  H   H3363     1.0  0.71012  0.53941  0.46791  1.0000
  H   H3364     1.0  0.66633  0.46817  0.04126  1.0000
  C   C1969     1.0  0.60495  0.63962  0.05138  1.0000
  C   C1970     1.0  0.60246  0.64675  0.99208  1.0000
  H   H3365     1.0  0.51022  0.41304  0.09228  1.0000
  H   H3366     1.0  0.49232  0.38520  0.15948  1.0000
  Fe  Fe273     1.0  0.55693  0.37830  0.44168  1.0000
  S   S559      1.0  0.49215  0.42945  0.25370  1.0000
  C   C1971     1.0  0.64934  0.43558  0.45498  1.0000
  C   C1972     1.0  0.60846  0.49324  0.05451  1.0000
  S   S560      1.0  0.57159  0.42104  0.44743  1.0000
  H   H3367     1.0  0.72239  0.36771  0.02232  1.0000
  H   H3368     1.0  0.71772  0.38405  0.41602  1.0000
  C   C1973     1.0  0.61321  0.50658  0.02718  1.0000
  H   H3369     1.0  0.51962  0.36056  0.31326  1.0000
  S   S561      1.0  0.70217  0.46295  0.44393  1.0000
  C   C1974     1.0  0.62637  0.57930  0.17088  1.0000
  H   H3370     1.0  0.56568  0.47461  0.05077  1.0000
  H   H3371     1.0  0.59500  0.63561  0.00670  1.0000
  H   H3372     1.0  0.50397  0.36016  0.03045  1.0000
  H   H3373     1.0  0.71287  0.55805  0.44293  1.0000
  S   S562      1.0  0.73067  0.59255  0.19847  1.0000
  H   H3374     1.0  0.49537  0.39167  0.35755  1.0000
  H   H3375     1.0  0.63799  0.57445  0.20424  1.0000
  H   H3376     1.0  0.65867  0.46519  0.38357  1.0000
  H   H3377     1.0  0.57958  0.64911  0.02841  1.0000
  H   H3378     1.0  0.53813  0.33612  0.36107  1.0000
  H   H3379     1.0  0.59544  0.56281  0.20235  1.0000
  H   H3380     1.0  0.67866  0.49156  0.05284  1.0000
  H   H3381     1.0  0.57709  0.45992  0.09432  1.0000
  H   H3382     1.0  0.58968  0.58340  0.21761  1.0000
  H   H3383     1.0  0.59015  0.59450  0.18294  1.0000
  H   H3384     1.0  0.58458  0.47204  0.04673  1.0000
  H   H3385     1.0  0.62856  0.46245  0.45189  1.0000
  H   H3386     1.0  0.48975  0.34167  0.41730  1.0000
  H   H3387     1.0  0.52956  0.38880  0.13215  1.0000
  H   H3388     1.0  0.58784  0.45514  0.11913  1.0000
  H   H3389     1.0  0.52551  0.38418  0.05349  1.0000
  H   H3390     1.0  0.61026  0.54968  0.17685  1.0000
  C   C1975     1.0  0.72443  0.38218  0.45679  1.0000
  C   C1976     1.0  0.53688  0.34012  0.42783  1.0000
  C   C1977     1.0  0.61846  0.60276  0.12991  1.0000
  S   S563      1.0  0.54503  0.35250  0.44731  1.0000
  C   C1978     1.0  0.59630  0.58728  0.19500  1.0000
  H   H3391     1.0  0.51345  0.39827  0.16998  1.0000
  H   H3392     1.0  0.70140  0.37199  0.00584  1.0000
  C   C1979     1.0  0.59748  0.57293  0.18381  1.0000
  H   H3393     1.0  0.50466  0.33882  0.39212  1.0000
  H   H3394     1.0  0.51413  0.34473  0.34424  1.0000
  H   H3395     1.0  0.50269  0.37297  0.43075  1.0000
  S   S564      1.0  0.61194  0.41001  0.43751  1.0000
  H   H3396     1.0  0.62005  0.58257  0.11585  1.0000
  H   H3397     1.0  0.53567  0.39698  0.06971  1.0000
  H   H3398     1.0  0.67754  0.45604  0.02911  1.0000
  C   C1980     1.0  0.70232  0.50451  0.04000  1.0000
  H   H3399     1.0  0.71115  0.59004  0.16057  1.0000
  C   C1981     1.0  0.71931  0.34889  0.43697  1.0000
  Fe  Fe274     1.0  0.71519  0.48805  0.43250  1.0000
  H   H3400     1.0  0.71215  0.52079  0.40715  1.0000
  C   C1982     1.0  0.59866  0.55161  0.14393  1.0000
  H   H3401     1.0  0.60089  0.58338  0.12954  1.0000
  H   H3402     1.0  0.58715  0.57014  0.17560  1.0000
  H   H3403     1.0  0.59968  0.55873  0.12238  1.0000
  H   H3404     1.0  0.59979  0.53998  0.14177  1.0000
  H   H3405     1.0  0.58701  0.54982  0.15781  1.0000
  H   H3406     1.0  0.61726  0.60911  0.10924  1.0000
  H   H3407     1.0  0.61198  0.60712  0.14631  1.0000
  C   C1983     1.0  0.51340  0.38160  0.09704  1.0000
  N   N141      1.0  0.68189  0.49582  0.36870  1.0000
  C   C1984     1.0  0.69574  0.50245  0.34342  1.0000
  C   C1985     1.0  0.68570  0.48336  0.38913  1.0000
  C   C1986     1.0  0.67969  0.50875  0.38236  1.0000
  C   C1987     1.0  0.66793  0.48975  0.35875  1.0000
  C   C1988     1.0  0.69522  0.51692  0.32145  1.0000
  C   C1989     1.0  0.69100  0.47065  0.37657  1.0000
  C   C1990     1.0  0.66663  0.50460  0.40958  1.0000
  C   C1991     1.0  0.65506  0.47619  0.38001  1.0000
  H   H3408     1.0  0.70647  0.50558  0.35038  1.0000
  H   H3409     1.0  0.69752  0.49367  0.33150  1.0000
  H   H3410     1.0  0.67585  0.47741  0.40781  1.0000
  H   H3411     1.0  0.69502  0.48857  0.39807  1.0000
  H   H3412     1.0  0.69049  0.51392  0.38745  1.0000
  H   H3413     1.0  0.67722  0.51835  0.36762  1.0000
  H   H3414     1.0  0.66247  0.49926  0.35184  1.0000
  H   H3415     1.0  0.67126  0.48557  0.33955  1.0000
  H   H3416     1.0  0.68416  0.51545  0.31538  1.0000
  H   H3417     1.0  0.69750  0.52748  0.32925  1.0000
  H   H3418     1.0  0.70457  0.51905  0.30194  1.0000
  H   H3419     1.0  0.68430  0.46709  0.36190  1.0000
  H   H3420     1.0  0.70344  0.47467  0.36529  1.0000
  H   H3421     1.0  0.68954  0.46019  0.39395  1.0000
  H   H3422     1.0  0.51009  0.37793  0.33972  1.0000
  H   H3423     1.0  0.50665  0.35399  0.43610  1.0000
  H   H3424     1.0  0.69864  0.63814  0.13643  1.0000
  H   H3425     1.0  0.61869  0.51772  0.03090  1.0000
  C   C1992     1.0  0.71999  0.48260  0.00437  1.0000
  H   H3426     1.0  0.48695  0.33585  0.35977  1.0000
  C   C1993     1.0  0.48732  0.36881  0.38939  1.0000
  H   H3427     1.0  0.70224  0.37412  0.44750  1.0000
  C   C1994     1.0  0.61227  0.65541  0.02926  1.0000
  C   C1995     1.0  0.73180  0.55651  0.46394  1.0000
  H   H3428     1.0  0.67567  0.39752  0.98540  1.0000
  H   H3429     1.0  0.72294  0.49497  0.00416  1.0000
  H   H3430     1.0  0.48883  0.47666  0.19789  1.0000
  H   H3431     1.0  0.48904  0.38979  0.08254  1.0000
  C   C1996     1.0  0.72965  0.51929  0.37273  1.0000
  C   C1997     1.0  0.49486  0.34429  0.39411  1.0000
  H   H3432     1.0  0.48785  0.40902  0.07819  1.0000
  C   C1998     1.0  0.48537  0.36606  0.14248  1.0000
  H   H3433     1.0  0.71656  0.35245  0.47870  1.0000
  H   H3434     1.0  0.69543  0.46924  0.97941  1.0000
  H   H3435     1.0  0.73164  0.39184  0.03009  1.0000
  H   H3436     1.0  0.62431  0.65551  0.01920  1.0000
  H   H3437     1.0  0.48212  0.36482  0.41267  1.0000
  C   C1999     1.0  0.50886  0.51108  0.72131  1.0000
  Fe  Fe275     1.0  0.53418  0.45792  0.67259  1.0000
  S   S565      1.0  0.53486  0.47581  0.63371  1.0000
  S   S566      1.0  0.55254  0.45896  0.69706  1.0000
  Fe  Fe276     1.0  0.50205  0.43922  0.67517  1.0000
  S   S567      1.0  0.50015  0.45598  0.63680  1.0000
  C   C2000     1.0  0.58991  0.65291  0.81514  1.0000
  Fe  Fe277     1.0  0.52457  0.45565  0.61829  1.0000
  S   S568      1.0  0.53141  0.45703  0.57137  1.0000
  Fe  Fe278     1.0  0.51044  0.47463  0.65530  1.0000
  S   S569      1.0  0.50487  0.49780  0.65500  1.0000
  S   S570      1.0  0.52583  0.43757  0.65557  1.0000
  S   S571      1.0  0.51039  0.45801  0.69531  1.0000
  C   C2001     1.0  0.73179  0.40551  0.93892  1.0000
  S   S572      1.0  0.69155  0.46663  0.50867  1.0000
  H   H3438     1.0  0.54254  0.50345  0.57901  1.0000
  H   H3439     1.0  0.58342  0.46521  0.82116  1.0000
  S   S573      1.0  0.53664  0.32791  0.89017  1.0000
  H   H3440     1.0  0.58791  0.42569  0.83627  1.0000
  H   H3441     1.0  0.50129  0.38904  0.51675  1.0000
  S   S574      1.0  0.70668  0.50902  0.51960  1.0000
  H   H3442     1.0  0.52265  0.51518  0.75035  1.0000
  Fe  Fe279     1.0  0.64175  0.65535  0.86575  1.0000
  H   H3443     1.0  0.51494  0.49561  0.52725  1.0000
  H   H3444     1.0  0.57119  0.41033  0.56085  1.0000
  H   H3445     1.0  0.57714  0.61921  0.76605  1.0000
  H   H3446     1.0  0.72496  0.44953  0.94620  1.0000
  S   S575      1.0  0.54528  0.39971  0.52677  1.0000
  H   H3447     1.0  0.61985  0.62370  0.73517  1.0000
  H   H3448     1.0  0.59522  0.65065  0.83249  1.0000
  C   C2002     1.0  0.58907  0.44884  0.49306  1.0000
  H   H3449     1.0  0.60408  0.42734  0.90019  1.0000
  H   H3450     1.0  0.72258  0.53121  0.65083  1.0000
  H   H3451     1.0  0.49338  0.52466  0.65642  1.0000
  C   C2003     1.0  0.49507  0.37026  0.60227  1.0000
  Fe  Fe280     1.0  0.51571  0.33371  0.87799  1.0000
  N   N142      1.0  0.50568  0.50068  0.56703  1.0000
  S   S576      1.0  0.51122  0.33198  0.83544  1.0000
  Fe  Fe281     1.0  0.50310  0.33857  0.93560  1.0000
  H   H3452     1.0  0.55339  0.49985  0.72101  1.0000
  Fe  Fe282     1.0  0.53776  0.34787  0.91082  1.0000
  S   S577      1.0  0.56129  0.36518  0.90279  1.0000
  S   S578      1.0  0.51820  0.35492  0.89464  1.0000
  Fe  Fe283     1.0  0.64588  0.54642  0.71156  1.0000
  S   S579      1.0  0.62354  0.55342  0.71585  1.0000
  S   S580      1.0  0.66641  0.56117  0.67585  1.0000
  Fe  Fe284     1.0  0.63174  0.51754  0.76037  1.0000
  S   S581      1.0  0.60826  0.52213  0.76859  1.0000
  S   S582      1.0  0.63814  0.49675  0.78385  1.0000
  Fe  Fe285     1.0  0.61237  0.52824  0.72118  1.0000
  S   S583      1.0  0.59476  0.52369  0.69576  1.0000
  Fe  Fe286     1.0  0.62133  0.54684  0.76252  1.0000
  S   S584      1.0  0.61229  0.56055  0.79225  1.0000
  S   S585      1.0  0.63496  0.52180  0.71327  1.0000
  S   S586      1.0  0.64457  0.54175  0.75800  1.0000
  S   S587      1.0  0.50375  0.64955  0.72681  1.0000
  H   H3453     1.0  0.57742  0.41291  0.51032  1.0000
  H   H3454     1.0  0.62304  0.61534  0.76791  1.0000
  C   C2004     1.0  0.58323  0.41603  0.56045  1.0000
  S   S588      1.0  0.67149  0.43872  0.93866  1.0000
  Fe  Fe287     1.0  0.62488  0.45975  0.94377  1.0000
  S   S589      1.0  0.61760  0.47913  0.91774  1.0000
  S   S590      1.0  0.62960  0.43868  0.93094  1.0000
  H   H3455     1.0  0.67911  0.32896  0.88644  1.0000
  H   H3456     1.0  0.50041  0.40343  0.74884  1.0000
  S   S591      1.0  0.50873  0.62797  0.78427  1.0000
  C   C2005     1.0  0.59258  0.62867  0.72502  1.0000
  Fe  Fe288     1.0  0.53335  0.64238  0.77096  1.0000
  S   S592      1.0  0.54877  0.63644  0.79980  1.0000
  Fe  Fe289     1.0  0.51168  0.62791  0.73856  1.0000
  C   C2006     1.0  0.53378  0.50872  0.57115  1.0000
  S   S593      1.0  0.59066  0.40546  0.97871  1.0000
  H   H3457     1.0  0.51074  0.36209  0.78944  1.0000
  S   S594      1.0  0.65712  0.62201  0.79762  1.0000
  S   S595      1.0  0.62764  0.64271  0.84131  1.0000
  H   H3458     1.0  0.72177  0.57234  0.63465  1.0000
  H   H3459     1.0  0.71105  0.37687  0.97003  1.0000
  Fe  Fe290     1.0  0.61239  0.42495  0.97194  1.0000
  H   H3460     1.0  0.69523  0.57435  0.63463  1.0000
  H   H3461     1.0  0.50007  0.32587  0.78838  1.0000
  H   H3462     1.0  0.56844  0.63598  0.83740  1.0000
  H   H3463     1.0  0.54867  0.37002  0.95848  1.0000
  C   C2007     1.0  0.70135  0.44486  0.94310  1.0000
  H   H3464     1.0  0.58943  0.61803  0.71797  1.0000
  H   H3465     1.0  0.49114  0.41502  0.56065  1.0000
  H   H3466     1.0  0.70453  0.44802  0.92019  1.0000
  C   C2008     1.0  0.63180  0.49125  0.82102  1.0000
  C   C2009     1.0  0.63853  0.48116  0.83675  1.0000
  C   C2010     1.0  0.63416  0.47719  0.86650  1.0000
  C   C2011     1.0  0.62296  0.48325  0.88060  1.0000
  C   C2012     1.0  0.61597  0.49304  0.86486  1.0000
  C   C2013     1.0  0.62037  0.49704  0.83514  1.0000
  H   H3467     1.0  0.64738  0.47665  0.82588  1.0000
  H   H3468     1.0  0.63964  0.46967  0.87849  1.0000
  H   H3469     1.0  0.60723  0.49769  0.87570  1.0000
  H   H3470     1.0  0.61504  0.50471  0.82314  1.0000
  C   C2014     1.0  0.62467  0.57780  0.79324  1.0000
  C   C2015     1.0  0.62020  0.58511  0.81449  1.0000
  C   C2016     1.0  0.62996  0.59879  0.81597  1.0000
  C   C2017     1.0  0.64426  0.60518  0.79623  1.0000
  C   C2018     1.0  0.64875  0.59778  0.77515  1.0000
  C   C2019     1.0  0.63894  0.58422  0.77346  1.0000
  H   H3471     1.0  0.60919  0.58014  0.82995  1.0000
  H   H3472     1.0  0.62653  0.60431  0.83252  1.0000
  H   H3473     1.0  0.65984  0.60263  0.75991  1.0000
  H   H3474     1.0  0.64248  0.57869  0.75698  1.0000
  C   C2020     1.0  0.56917  0.37630  0.92431  1.0000
  C   C2021     1.0  0.56054  0.37671  0.95056  1.0000
  H   H3475     1.0  0.56525  0.54197  0.73034  1.0000
  C   C2022     1.0  0.58276  0.39457  0.95690  1.0000
  C   C2023     1.0  0.59139  0.39418  0.93063  1.0000
  C   C2024     1.0  0.58463  0.38510  0.91451  1.0000
  H   H3476     1.0  0.48361  0.51915  0.55979  1.0000
  H   H3477     1.0  0.60337  0.40057  0.92302  1.0000
  H   H3478     1.0  0.59149  0.38472  0.89444  1.0000
  H   H3479     1.0  0.54071  0.50126  0.75158  1.0000
  H   H3480     1.0  0.71451  0.33333  0.92564  1.0000
  H   H3481     1.0  0.57472  0.41536  0.60452  1.0000
  H   H3482     1.0  0.68699  0.33724  0.91123  1.0000
  Fe  Fe291     1.0  0.71174  0.46096  0.48214  1.0000
  H   H3483     1.0  0.52220  0.48656  0.56821  1.0000
  S   S596      1.0  0.64384  0.46283  0.96595  1.0000
  H   H3484     1.0  0.71222  0.61544  0.67237  1.0000
  H   H3485     1.0  0.51589  0.36292  0.60620  1.0000
  C   C2025     1.0  0.68567  0.44013  0.95784  1.0000
  H   H3486     1.0  0.48383  0.62946  0.88757  1.0000
  C   C2026     1.0  0.61630  0.62281  0.75815  1.0000
  C   C2027     1.0  0.48411  0.58507  0.70916  1.0000
  H   H3487     1.0  0.60351  0.60889  0.81186  1.0000
  H   H3488     1.0  0.57806  0.60558  0.84167  1.0000
  H   H3489     1.0  0.70777  0.55589  0.48020  1.0000
  H   H3490     1.0  0.61644  0.64765  0.75196  1.0000
  H   H3491     1.0  0.57834  0.44566  0.94684  1.0000
  H   H3492     1.0  0.48754  0.52917  0.58551  1.0000
  C   C2028     1.0  0.55233  0.52831  0.70808  1.0000
  H   H3493     1.0  0.49919  0.51320  0.73613  1.0000
  C   C2029     1.0  0.49794  0.50830  0.51975  1.0000
  C   C2030     1.0  0.68326  0.32613  0.90582  1.0000
  H   H3494     1.0  0.51568  0.38105  0.61413  1.0000
  H   H3495     1.0  0.55053  0.53950  0.69706  1.0000
  C   C2031     1.0  0.49165  0.48715  0.57969  1.0000
  H   H3496     1.0  0.50806  0.37201  0.81591  1.0000
  C   C2032     1.0  0.53576  0.44119  0.55918  1.0000
  C   C2033     1.0  0.53653  0.42774  0.57779  1.0000
  C   C2034     1.0  0.53976  0.41525  0.56742  1.0000
  C   C2035     1.0  0.54208  0.41601  0.53846  1.0000
  C   C2036     1.0  0.54155  0.42953  0.51976  1.0000
  C   C2037     1.0  0.53842  0.44208  0.53012  1.0000
  H   H3497     1.0  0.53460  0.42696  0.60018  1.0000
  H   H3498     1.0  0.54028  0.40486  0.58199  1.0000
  N   N143      1.0  0.59927  0.61542  0.77046  1.0000
  H   H3499     1.0  0.53791  0.45247  0.51556  1.0000
  H   H3500     1.0  0.49705  0.35066  0.75999  1.0000
  H   H3501     1.0  0.57044  0.61210  0.81271  1.0000
  C   C2038     1.0  0.56549  0.47667  0.69501  1.0000
  C   C2039     1.0  0.56771  0.48996  0.67318  1.0000
  C   C2040     1.0  0.57735  0.50411  0.67301  1.0000
  C   C2041     1.0  0.58484  0.50515  0.69466  1.0000
  C   C2042     1.0  0.58306  0.49174  0.71600  1.0000
  C   C2043     1.0  0.57344  0.47755  0.71610  1.0000
  H   H3502     1.0  0.56190  0.48936  0.65656  1.0000
  H   H3503     1.0  0.57878  0.51440  0.65630  1.0000
  H   H3504     1.0  0.58875  0.49238  0.73280  1.0000
  H   H3505     1.0  0.57188  0.46728  0.73294  1.0000
  C   C2044     1.0  0.51029  0.50474  0.53513  1.0000
  Fe  Fe292     1.0  0.55483  0.40075  0.48041  1.0000
  H   H3506     1.0  0.54630  0.53128  0.75145  1.0000
  H   H3507     1.0  0.70778  0.53236  0.55009  1.0000
  C   C2045     1.0  0.71551  0.55860  0.67782  1.0000
  C   C2046     1.0  0.70332  0.55140  0.70213  1.0000
  C   C2047     1.0  0.68818  0.55220  0.70196  1.0000
  C   C2048     1.0  0.68523  0.56044  0.67758  1.0000
  C   C2049     1.0  0.69748  0.56798  0.65356  1.0000
  C   C2050     1.0  0.71253  0.56689  0.65354  1.0000
  H   H3508     1.0  0.70555  0.54494  0.72099  1.0000
  H   H3509     1.0  0.67880  0.54635  0.72058  1.0000
  H   H3510     1.0  0.51129  0.38257  0.78014  1.0000
  H   H3511     1.0  0.49547  0.37771  0.66221  1.0000
  C   C2051     1.0  0.53811  0.51298  0.68293  1.0000
  H   H3512     1.0  0.59667  0.63955  0.95617  1.0000
  H   H3513     1.0  0.51026  0.40055  0.53632  1.0000
  H   H3514     1.0  0.49218  0.36039  0.59278  1.0000
  H   H3515     1.0  0.73103  0.37355  0.50994  1.0000
  H   H3516     1.0  0.61269  0.42313  0.54251  1.0000
  H   H3517     1.0  0.62653  0.44935  0.53527  1.0000
  C   C2052     1.0  0.71949  0.53161  0.54297  1.0000
  C   C2053     1.0  0.53080  0.48487  0.73146  1.0000
  H   H3518     1.0  0.50300  0.35988  0.72280  1.0000
  H   H3519     1.0  0.61360  0.45744  0.51850  1.0000
  H   H3520     1.0  0.71198  0.50842  0.63497  1.0000
  C   C2054     1.0  0.49013  0.32453  0.80551  1.0000
  C   C2055     1.0  0.48629  0.50067  0.65627  1.0000
  C   C2056     1.0  0.70043  0.40067  0.97751  1.0000
  H   H3521     1.0  0.48241  0.36955  0.81962  1.0000
  H   H3522     1.0  0.70679  0.32778  0.88493  1.0000
  C   C2057     1.0  0.54146  0.50063  0.72938  1.0000
  H   H3523     1.0  0.59124  0.63623  0.76302  1.0000
  N   N144      1.0  0.48851  0.38347  0.59037  1.0000
  C   C2058     1.0  0.59564  0.61457  0.80169  1.0000
  H   H3524     1.0  0.50489  0.51341  0.59910  1.0000
  C   C2059     1.0  0.60869  0.43187  0.52864  1.0000
  C   C2060     1.0  0.72937  0.61182  0.61206  1.0000
  H   H3525     1.0  0.61677  0.59571  0.74332  1.0000
  Fe  Fe293     1.0  0.65033  0.64114  0.81613  1.0000
  H   H3526     1.0  0.59605  0.42292  0.48871  1.0000
  C   C2061     1.0  0.71294  0.44570  0.95778  1.0000
  C   C2062     1.0  0.48772  0.36626  0.80040  1.0000
  H   H3527     1.0  0.58869  0.40644  0.56660  1.0000
  H   H3528     1.0  0.60554  0.60357  0.72099  1.0000
  C   C2063     1.0  0.57471  0.64469  0.81792  1.0000
  H   H3529     1.0  0.49839  0.40026  0.78694  1.0000
  C   C2064     1.0  0.49126  0.37303  0.74757  1.0000
  N   N145      1.0  0.64654  0.54558  0.84584  1.0000
  C   C2065     1.0  0.64863  0.56291  0.83646  1.0000
  C   C2066     1.0  0.63162  0.53806  0.84037  1.0000
  C   C2067     1.0  0.65996  0.54173  0.82801  1.0000
  C   C2068     1.0  0.64632  0.54128  0.87676  1.0000
  C   C2069     1.0  0.66397  0.57319  0.83756  1.0000
  C   C2070     1.0  0.61682  0.54028  0.85832  1.0000
  C   C2071     1.0  0.65769  0.52499  0.82497  1.0000
  C   C2072     1.0  0.64228  0.52383  0.89190  1.0000
  H   H3530     1.0  0.64779  0.56635  0.81425  1.0000
  H   H3531     1.0  0.63938  0.56663  0.84937  1.0000
  H   H3532     1.0  0.62989  0.52541  0.84391  1.0000
  H   H3533     1.0  0.63187  0.54232  0.81766  1.0000
  H   H3534     1.0  0.66326  0.54922  0.80584  1.0000
  H   H3535     1.0  0.67037  0.54427  0.83614  1.0000
  H   H3536     1.0  0.65781  0.54623  0.87971  1.0000
  H   H3537     1.0  0.63855  0.54675  0.88927  1.0000
  H   H3538     1.0  0.66519  0.57175  0.85949  1.0000
  H   H3539     1.0  0.67412  0.57120  0.82384  1.0000
  H   H3540     1.0  0.60675  0.53381  0.85274  1.0000
  H   H3541     1.0  0.61530  0.53554  0.88131  1.0000
  H   H3542     1.0  0.61629  0.55256  0.85372  1.0000
  H   H3543     1.0  0.64994  0.52283  0.81109  1.0000
  H   H3544     1.0  0.65327  0.51602  0.84538  1.0000
  H   H3545     1.0  0.66894  0.52338  0.81439  1.0000
  H   H3546     1.0  0.65275  0.51937  0.88996  1.0000
  H   H3547     1.0  0.63362  0.51654  0.88459  1.0000
  H   H3548     1.0  0.63687  0.52202  0.91476  1.0000
  H   H3549     1.0  0.48931  0.48384  0.60322  1.0000
  C   C2073     1.0  0.61419  0.44757  0.53517  1.0000
  C   C2074     1.0  0.50344  0.38876  0.53789  1.0000
  C   C2075     1.0  0.55643  0.53078  0.73551  1.0000
  H   H3550     1.0  0.72914  0.55008  0.56029  1.0000
  C   C2076     1.0  0.52423  0.51853  0.72700  1.0000
  H   H3551     1.0  0.53876  0.51413  0.54819  1.0000
  H   H3552     1.0  0.57866  0.41761  0.90120  1.0000
  C   C2077     1.0  0.70569  0.32299  0.94047  1.0000
  H   H3553     1.0  0.59556  0.39643  0.49785  1.0000
  H   H3554     1.0  0.50025  0.42350  0.58393  1.0000
  H   H3555     1.0  0.60716  0.40354  0.51915  1.0000
  C   C2078     1.0  0.49365  0.35751  0.74239  1.0000
  H   H3556     1.0  0.48610  0.50148  0.53124  1.0000
  H   H3557     1.0  0.50287  0.38083  0.74321  1.0000
  H   H3558     1.0  0.71954  0.58711  0.70798  1.0000
  C   C2079     1.0  0.48656  0.59856  0.71878  1.0000
  H   H3559     1.0  0.63477  0.64354  0.75015  1.0000
  C   C2080     1.0  0.58970  0.41632  0.51074  1.0000
  H   H3560     1.0  0.72075  0.54443  0.61970  1.0000
  C   C2081     1.0  0.49227  0.32661  0.83163  1.0000
  S   S597      1.0  0.52255  0.33265  0.95303  1.0000
  H   H3561     1.0  0.54811  0.50886  0.67374  1.0000
  H   H3562     1.0  0.51689  0.64308  0.94843  1.0000
  H   H3563     1.0  0.59657  0.59057  0.78578  1.0000
  H   H3564     1.0  0.64203  0.64136  0.96811  1.0000
  H   H3565     1.0  0.58581  0.44746  0.53729  1.0000
  H   H3566     1.0  0.50661  0.65203  0.92533  1.0000
  H   H3567     1.0  0.62164  0.63921  0.78381  1.0000
  N   N146      1.0  0.59124  0.44119  0.87842  1.0000
  C   C2082     1.0  0.58477  0.44831  0.90138  1.0000
  C   C2083     1.0  0.59418  0.45294  0.85041  1.0000
  C   C2084     1.0  0.60625  0.43810  0.88297  1.0000
  C   C2085     1.0  0.57967  0.42629  0.88115  1.0000
  C   C2086     1.0  0.58278  0.43905  0.93215  1.0000
  C   C2087     1.0  0.57988  0.45741  0.84297  1.0000
  C   C2088     1.0  0.61799  0.43673  0.85730  1.0000
  C   C2089     1.0  0.58279  0.41786  0.85774  1.0000
  H   H3568     1.0  0.59220  0.46011  0.89858  1.0000
  H   H3569     1.0  0.57319  0.44995  0.90028  1.0000
  H   H3570     1.0  0.59986  0.44906  0.83237  1.0000
  H   H3571     1.0  0.60252  0.46383  0.84975  1.0000
  H   H3572     1.0  0.61256  0.44764  0.89021  1.0000
  H   H3573     1.0  0.56778  0.42787  0.88362  1.0000
  H   H3574     1.0  0.57488  0.46400  0.85711  1.0000
  S   S598      1.0  0.50453  0.60556  0.72567  1.0000
  H   H3575     1.0  0.52522  0.53124  0.72155  1.0000
  C   C2090     1.0  0.72243  0.52088  0.52734  1.0000
  H   H3576     1.0  0.61306  0.42820  0.84676  1.0000
  H   H3577     1.0  0.59013  0.40986  0.86256  1.0000
  H   H3578     1.0  0.57164  0.41082  0.85662  1.0000
  H   H3579     1.0  0.49345  0.47456  0.54642  1.0000
  C   C2091     1.0  0.53811  0.52769  0.66097  1.0000
  H   H3580     1.0  0.70241  0.59353  0.71354  1.0000
  H   H3581     1.0  0.50016  0.50506  0.49936  1.0000
  H   H3582     1.0  0.57433  0.42760  0.93797  1.0000
  C   C2092     1.0  0.71515  0.59768  0.70540  1.0000
  H   H3583     1.0  0.48636  0.37832  0.73059  1.0000
  H   H3584     1.0  0.56173  0.52165  0.74472  1.0000
  C   C2093     1.0  0.51259  0.37394  0.59966  1.0000
  C   C2094     1.0  0.56755  0.64770  0.79577  1.0000
  H   H3585     1.0  0.72345  0.40939  0.92762  1.0000
  H   H3586     1.0  0.68946  0.48440  0.95879  1.0000
  H   H3587     1.0  0.70034  0.39742  0.95731  1.0000
  H   H3588     1.0  0.58289  0.59536  0.76739  1.0000
  C   C2095     1.0  0.58219  0.42395  0.58482  1.0000
  N   N147      1.0  0.53864  0.51496  0.71190  1.0000
  C   C2096     1.0  0.48788  0.38402  0.56027  1.0000
  H   H3589     1.0  0.53013  0.53413  0.66981  1.0000
  H   H3590     1.0  0.49836  0.52086  0.51512  1.0000
  S   S599      1.0  0.63532  0.64868  0.91397  1.0000
  H   H3591     1.0  0.50188  0.46750  0.57471  1.0000
  C   C2097     1.0  0.58402  0.43919  0.52418  1.0000
  N   N148      1.0  0.59166  0.42619  0.53113  1.0000
  C   C2098     1.0  0.50542  0.37124  0.79545  1.0000
  S   S600      1.0  0.71985  0.43992  0.50064  1.0000
  H   H3592     1.0  0.51968  0.37991  0.57793  1.0000
  C   C2099     1.0  0.59531  0.40136  0.51637  1.0000
  Fe  Fe294     1.0  0.70593  0.49150  0.49246  1.0000
  C   C2100     1.0  0.48402  0.64264  0.84620  1.0000
  N   N149      1.0  0.69320  0.51971  0.63589  1.0000
  C   C2101     1.0  0.70981  0.51961  0.62480  1.0000
  C   C2102     1.0  0.68333  0.50533  0.63208  1.0000
  C   C2103     1.0  0.69065  0.51884  0.66703  1.0000
  C   C2104     1.0  0.69057  0.53452  0.61984  1.0000
  H   H3593     1.0  0.54338  0.43026  0.49739  1.0000
  C   C2105     1.0  0.68516  0.50426  0.60120  1.0000
  C   C2106     1.0  0.67418  0.51770  0.68372  1.0000
  C   C2107     1.0  0.67370  0.53493  0.62035  1.0000
  C   C2108     1.0  0.57898  0.60595  0.81903  1.0000
  H   H3594     1.0  0.71253  0.52048  0.60177  1.0000
  H   H3595     1.0  0.67091  0.50388  0.64108  1.0000
  H   H3596     1.0  0.68579  0.49475  0.64417  1.0000
  H   H3597     1.0  0.69424  0.50874  0.67807  1.0000
  H   H3598     1.0  0.69793  0.52928  0.67026  1.0000
  H   H3599     1.0  0.69559  0.54441  0.62762  1.0000
  H   H3600     1.0  0.69691  0.53745  0.59710  1.0000
  H   H3601     1.0  0.70208  0.41345  0.97210  1.0000
  H   H3602     1.0  0.48319  0.35052  0.73877  1.0000
  H   H3603     1.0  0.71411  0.59787  0.66361  1.0000
  H   H3604     1.0  0.69631  0.50187  0.59238  1.0000
  H   H3605     1.0  0.67602  0.49436  0.60065  1.0000
  H   H3606     1.0  0.68392  0.51480  0.58707  1.0000
  H   H3607     1.0  0.67056  0.52844  0.67666  1.0000
  H   H3608     1.0  0.67405  0.51660  0.70634  1.0000
  H   H3609     1.0  0.66558  0.50738  0.68334  1.0000
  H   H3610     1.0  0.67169  0.54582  0.62520  1.0000
  H   H3611     1.0  0.66467  0.52538  0.63606  1.0000
  H   H3612     1.0  0.67170  0.53535  0.59907  1.0000
  C   C2109     1.0  0.50314  0.51460  0.57746  1.0000
  C   C2110     1.0  0.49184  0.63688  0.96713  1.0000
  H   H3613     1.0  0.57675  0.43377  0.58157  1.0000
  H   H3614     1.0  0.48464  0.35338  0.80639  1.0000
  H   H3615     1.0  0.53087  0.48270  0.71048  1.0000
  S   S601      1.0  0.53685  0.64066  0.72607  1.0000
  C   C2111     1.0  0.72219  0.53275  0.62840  1.0000
  H   H3616     1.0  0.66409  0.58556  0.82940  1.0000
  H   H3617     1.0  0.57132  0.43455  0.52947  1.0000
  H   H3618     1.0  0.50977  0.40140  0.58040  1.0000
  H   H3619     1.0  0.52792  0.50380  0.68394  1.0000
  H   H3620     1.0  0.59759  0.62634  0.80523  1.0000
  C   C2112     1.0  0.48931  0.39671  0.67722  1.0000
  H   H3621     1.0  0.60780  0.44820  0.55598  1.0000
  H   H3622     1.0  0.59384  0.43743  0.93627  1.0000
  H   H3623     1.0  0.57098  0.44715  0.84314  1.0000
  H   H3624     1.0  0.56287  0.52688  0.69426  1.0000
  H   H3625     1.0  0.69559  0.32728  0.94867  1.0000
  H   H3626     1.0  0.48841  0.41227  0.76907  1.0000
  H   H3627     1.0  0.53444  0.52431  0.64282  1.0000
  H   H3628     1.0  0.58521  0.45972  0.49145  1.0000
  C   C2113     1.0  0.72826  0.40683  0.96969  1.0000
  H   H3629     1.0  0.71918  0.60499  0.71884  1.0000
  H   H3630     1.0  0.59359  0.42755  0.58901  1.0000
  H   H3631     1.0  0.71663  0.60967  0.61803  1.0000
  H   H3632     1.0  0.62325  0.44817  0.84162  1.0000
  C   C2114     1.0  0.62234  0.63921  0.76143  1.0000
  Fe  Fe295     1.0  0.64719  0.44044  0.95677  1.0000
  C   C2115     1.0  0.49765  0.39864  0.59275  1.0000
  H   H3633     1.0  0.50667  0.49841  0.72444  1.0000
  H   H3634     1.0  0.58725  0.39232  0.53482  1.0000
  H   H3635     1.0  0.58351  0.64907  0.97201  1.0000
  H   H3636     1.0  0.54989  0.53553  0.65243  1.0000
  H   H3637     1.0  0.57571  0.59378  0.81784  1.0000
  C   C2116     1.0  0.49241  0.47243  0.56947  1.0000
  C   C2117     1.0  0.73159  0.54167  0.54882  1.0000
  H   H3638     1.0  0.51519  0.49075  0.60078  1.0000
  C   C2118     1.0  0.58965  0.62499  0.75738  1.0000
  H   H3639     1.0  0.58503  0.63611  0.71841  1.0000
  H   H3640     1.0  0.59966  0.58361  0.74052  1.0000
  H   H3641     1.0  0.61569  0.43314  0.50688  1.0000
  H   H3642     1.0  0.51031  0.38022  0.54163  1.0000
  H   H3643     1.0  0.49330  0.57934  0.70561  1.0000
  H   H3644     1.0  0.49389  0.63945  0.83536  1.0000
  C   C2119     1.0  0.60490  0.59554  0.74135  1.0000
  C   C2120     1.0  0.59524  0.59903  0.76734  1.0000
  H   H3645     1.0  0.50057  0.40463  0.66758  1.0000
  H   H3646     1.0  0.50820  0.51638  0.69964  1.0000
  C   C2121     1.0  0.49237  0.40147  0.76983  1.0000
  H   H3647     1.0  0.53521  0.47554  0.74279  1.0000
  H   H3648     1.0  0.51897  0.48336  0.74417  1.0000
  H   H3649     1.0  0.62756  0.43285  0.86469  1.0000
  C   C2122     1.0  0.48717  0.51800  0.57975  1.0000
  C   C2123     1.0  0.71904  0.60660  0.67402  1.0000
  H   H3650     1.0  0.48432  0.60852  0.83828  1.0000
  H   H3651     1.0  0.60459  0.63528  0.71392  1.0000
  H   H3652     1.0  0.60171  0.45201  0.48446  1.0000
  H   H3653     1.0  0.53212  0.51773  0.58247  1.0000
  C   C2124     1.0  0.56731  0.38574  0.96672  1.0000
  H   H3654     1.0  0.51184  0.52536  0.56396  1.0000
  H   H3655     1.0  0.49813  0.39778  0.61508  1.0000
  H   H3656     1.0  0.48974  0.36534  0.62543  1.0000
  Fe  Fe296     1.0  0.50271  0.65065  0.77160  1.0000
  S   S602      1.0  0.66393  0.65164  0.84299  1.0000
  H   H3657     1.0  0.73163  0.63208  0.62793  1.0000
  C   C2125     1.0  0.50606  0.64147  0.94149  1.0000
  H   H3658     1.0  0.72835  0.41915  0.96894  1.0000
  H   H3659     1.0  0.50569  0.63189  0.93090  1.0000
  C   C2126     1.0  0.51880  0.49583  0.57743  1.0000
  H   H3660     1.0  0.52017  0.51519  0.52653  1.0000
  C   C2127     1.0  0.48638  0.38147  0.67416  1.0000
  C   C2128     1.0  0.49186  0.41311  0.58291  1.0000
  C   C2129     1.0  0.59588  0.64931  0.96600  1.0000
  C   C2130     1.0  0.48395  0.51543  0.65627  1.0000
  C   C2131     1.0  0.64568  0.65384  0.95975  1.0000
  H   H3661     1.0  0.71333  0.32732  0.97718  1.0000
  H   H3662     1.0  0.58355  0.44249  0.47962  1.0000
  Fe  Fe297     1.0  0.59159  0.78538  0.25095  1.0000
  S   S603      1.0  0.57189  0.78814  0.28273  1.0000
  S   S604      1.0  0.61708  0.79725  0.24441  1.0000
  Fe  Fe298     1.0  0.56946  0.76568  0.22470  1.0000
  S   S605      1.0  0.54829  0.76735  0.25447  1.0000
  S   S606      1.0  0.56945  0.75421  0.18830  1.0000
  Fe  Fe299     1.0  0.56086  0.79234  0.24662  1.0000
  S   S607      1.0  0.54913  0.81193  0.24239  1.0000
  Fe  Fe300     1.0  0.56113  0.76301  0.28779  1.0000
  S   S608      1.0  0.54992  0.74625  0.33087  1.0000
  S   S609      1.0  0.58112  0.79115  0.21427  1.0000
  S   S610      1.0  0.58173  0.75965  0.25861  1.0000
  Fe  Fe301     1.0  0.53030  0.86053  0.11373  1.0000
  S   S611      1.0  0.53502  0.87488  0.06890  1.0000
  S   S612      1.0  0.54432  0.84289  0.11986  1.0000
  Fe  Fe302     1.0  0.50629  0.87670  0.13587  1.0000
  S   S613      1.0  0.50931  0.89213  0.09269  1.0000
  H   H3663     1.0  0.67290  0.68978  0.16504  1.0000
  Fe  Fe303     1.0  0.50924  0.87049  0.07752  1.0000
  S   S614      1.0  0.49682  0.86613  0.04354  1.0000
  Fe  Fe304     1.0  0.53477  0.89501  0.08810  1.0000
  S   S615      1.0  0.55151  0.91894  0.06806  1.0000
  S   S616      1.0  0.50452  0.85478  0.12123  1.0000
  S   S617      1.0  0.53180  0.88097  0.13234  1.0000
  S   S618      1.0  0.51190  0.70794  0.17156  1.0000
  S   S619      1.0  0.52075  0.70081  0.09395  1.0000
  H   H3664     1.0  0.71773  0.91389  0.30379  1.0000
  H   H3665     1.0  0.58938  0.72060  0.19683  1.0000
  H   H3666     1.0  0.49606  0.82995  0.99606  1.0000
  C   C2132     1.0  0.57891  0.66202  0.11074  1.0000
  H   H3667     1.0  0.68308  0.80890  0.26607  1.0000
  C   C2133     1.0  0.72042  0.83071  0.45302  1.0000
  Fe  Fe305     1.0  0.62546  0.96968  0.09780  1.0000
  S   S620      1.0  0.60778  0.94622  0.11510  1.0000
  H   H3668     1.0  0.59094  0.69901  0.04824  1.0000
  S   S621      1.0  0.64822  0.97154  0.06846  1.0000
  C   C2134     1.0  0.52989  0.75612  0.46394  1.0000
  H   H3669     1.0  0.50375  0.71770  0.34965  1.0000
  Fe  Fe306     1.0  0.65921  0.68292  0.03345  1.0000
  S   S622      1.0  0.64541  0.69471  0.06081  1.0000
  H   H3670     1.0  0.70717  0.65712  0.09195  1.0000
  Fe  Fe307     1.0  0.66318  0.69407  0.08599  1.0000
  S   S623      1.0  0.66982  0.71366  0.10649  1.0000
  C   C2135     1.0  0.49862  0.71745  0.33150  1.0000
  H   H3671     1.0  0.52392  0.91097  0.19782  1.0000
  S   S624      1.0  0.67804  0.68426  0.05649  1.0000
  H   H3672     1.0  0.70940  0.96672  0.26829  1.0000
  Fe  Fe308     1.0  0.67226  0.84734  0.31772  1.0000
  S   S625      1.0  0.68351  0.83385  0.34665  1.0000
  S   S626      1.0  0.64697  0.83686  0.31998  1.0000
  Fe  Fe309     1.0  0.70084  0.87512  0.29672  1.0000
  S   S627      1.0  0.71397  0.86323  0.32437  1.0000
  S   S628      1.0  0.71080  0.89768  0.26100  1.0000
  Fe  Fe310     1.0  0.70471  0.84208  0.31030  1.0000
  Fe  Fe311     1.0  0.63357  0.67063  0.08783  1.0000
  Fe  Fe312     1.0  0.69179  0.85585  0.35910  1.0000
  S   S629      1.0  0.68799  0.85139  0.40774  1.0000
  S   S630      1.0  0.69299  0.85422  0.28053  1.0000
  S   S631      1.0  0.67908  0.86901  0.33220  1.0000
  H   H3673     1.0  0.56866  0.67056  0.01699  1.0000
  C   C2136     1.0  0.67661  0.68038  0.15669  1.0000
  C   C2137     1.0  0.71455  0.82189  0.25094  1.0000
  H   H3674     1.0  0.70181  0.80448  0.40222  1.0000
  C   C2138     1.0  0.68669  0.78014  0.28226  1.0000
  C   C2139     1.0  0.72412  0.80363  0.22678  1.0000
  H   H3675     1.0  0.68274  0.97304  0.04948  1.0000
  C   C2140     1.0  0.69516  0.85835  0.43472  1.0000
  C   C2141     1.0  0.71211  0.87682  0.45101  1.0000
  C   C2142     1.0  0.70689  0.87193  0.42878  1.0000
  H   H3676     1.0  0.71190  0.87874  0.40708  1.0000
  H   H3677     1.0  0.66042  0.86378  0.43063  1.0000
  C   C2143     1.0  0.68777  0.71951  0.11433  1.0000
  C   C2144     1.0  0.68917  0.72933  0.13240  1.0000
  C   C2145     1.0  0.70309  0.73376  0.13993  1.0000
  H   H3678     1.0  0.68393  0.93402  0.28002  1.0000
  H   H3679     1.0  0.51095  0.82179  0.98212  1.0000
  C   C2146     1.0  0.70057  0.71445  0.10330  1.0000
  H   H3680     1.0  0.67936  0.73340  0.14085  1.0000
  H   H3681     1.0  0.66746  0.66955  0.16754  1.0000
  H   H3682     1.0  0.69973  0.70726  0.08878  1.0000
  H   H3683     1.0  0.51218  0.76222  0.12671  1.0000
  C   C2147     1.0  0.52822  0.90764  0.17819  1.0000
  H   H3684     1.0  0.59708  0.69233  0.18172  1.0000
  H   H3685     1.0  0.52436  0.75946  0.17791  1.0000
  C   C2148     1.0  0.58801  0.66069  0.02145  1.0000
  C   C2149     1.0  0.71401  0.66784  0.16117  1.0000
  H   H3686     1.0  0.58018  0.67027  0.98373  1.0000
  C   C2150     1.0  0.64366  0.77421  0.28173  1.0000
  H   H3687     1.0  0.66327  0.80411  0.26922  1.0000
  H   H3688     1.0  0.53297  0.76684  0.11753  1.0000
  C   C2151     1.0  0.71030  0.81014  0.38154  1.0000
  C   C2152     1.0  0.58755  0.92179  0.01021  1.0000
  H   H3689     1.0  0.72342  0.98151  0.23935  1.0000
  H   H3690     1.0  0.55550  0.66293  0.11125  1.0000
  C   C2153     1.0  0.71582  0.81497  0.22818  1.0000
  H   H3691     1.0  0.65206  0.87483  0.46907  1.0000
  H   H3692     1.0  0.53584  0.95491  0.10923  1.0000
  S   S632      1.0  0.71933  0.82508  0.30274  1.0000
  Fe  Fe313     1.0  0.53407  0.68265  0.09554  1.0000
  C   C2154     1.0  0.65360  0.86286  0.47519  1.0000
  C   C2155     1.0  0.62607  0.95100  0.00252  1.0000
  C   C2156     1.0  0.56745  0.92619  0.08076  1.0000
  C   C2157     1.0  0.57147  0.91704  0.10283  1.0000
  C   C2158     1.0  0.58390  0.92337  0.11293  1.0000
  C   C2159     1.0  0.59256  0.93882  0.10091  1.0000
  C   C2160     1.0  0.58867  0.94794  0.07856  1.0000
  C   C2161     1.0  0.57614  0.94164  0.06860  1.0000
  H   H3693     1.0  0.56497  0.90510  0.11224  1.0000
  H   H3694     1.0  0.58684  0.91623  0.13020  1.0000
  H   H3695     1.0  0.59520  0.95987  0.06921  1.0000
  H   H3696     1.0  0.57309  0.94883  0.05154  1.0000
  H   H3697     1.0  0.67456  0.97938  0.21324  1.0000
  C   C2162     1.0  0.66892  0.79994  0.30893  1.0000
  H   H3698     1.0  0.52436  0.77454  0.38099  1.0000
  C   C2163     1.0  0.52245  0.76151  0.13496  1.0000
  C   C2164     1.0  0.69213  0.76652  0.27326  1.0000
  C   C2165     1.0  0.53118  0.74671  0.34733  1.0000
  C   C2166     1.0  0.52364  0.73674  0.37425  1.0000
  C   C2167     1.0  0.50901  0.73746  0.38846  1.0000
  C   C2168     1.0  0.50915  0.75776  0.34844  1.0000
  C   C2169     1.0  0.52386  0.75716  0.33436  1.0000
  H   H3699     1.0  0.52928  0.72864  0.38436  1.0000
  Fe  Fe314     1.0  0.51358  0.69237  0.14134  1.0000
  H   H3700     1.0  0.52961  0.76497  0.31369  1.0000
  C   C2170     1.0  0.55320  0.74141  0.18429  1.0000
  C   C2171     1.0  0.53906  0.73643  0.20471  1.0000
  C   C2172     1.0  0.52652  0.72616  0.20056  1.0000
  C   C2173     1.0  0.52805  0.72060  0.17620  1.0000
  C   C2174     1.0  0.54213  0.72576  0.15564  1.0000
  C   C2175     1.0  0.55458  0.73618  0.15963  1.0000
  H   H3701     1.0  0.53780  0.74040  0.22376  1.0000
  H   H3702     1.0  0.51563  0.72234  0.21646  1.0000
  H   H3703     1.0  0.54329  0.72193  0.13646  1.0000
  H   H3704     1.0  0.56533  0.74039  0.14339  1.0000
  C   C2176     1.0  0.54850  0.82135  0.20824  1.0000
  C   C2177     1.0  0.55832  0.81987  0.18417  1.0000
  C   C2178     1.0  0.55728  0.82702  0.15710  1.0000
  C   C2179     1.0  0.54641  0.83564  0.15396  1.0000
  C   C2180     1.0  0.53690  0.83755  0.17800  1.0000
  C   C2181     1.0  0.53800  0.83044  0.20511  1.0000
  H   H3705     1.0  0.56664  0.81315  0.18634  1.0000
  H   H3706     1.0  0.56476  0.82567  0.13852  1.0000
  H   H3707     1.0  0.52848  0.84419  0.17573  1.0000
  H   H3708     1.0  0.53045  0.83172  0.22368  1.0000
  C   C2182     1.0  0.62495  0.80868  0.26527  1.0000
  C   C2183     1.0  0.61642  0.80889  0.29173  1.0000
  C   C2184     1.0  0.62333  0.81765  0.30805  1.0000
  C   C2185     1.0  0.63885  0.82621  0.29828  1.0000
  C   C2186     1.0  0.64728  0.82625  0.27157  1.0000
  C   C2187     1.0  0.64034  0.81756  0.25517  1.0000
  H   H3709     1.0  0.60459  0.80208  0.29986  1.0000
  H   H3710     1.0  0.61667  0.81761  0.32861  1.0000
  H   H3711     1.0  0.65913  0.83300  0.26355  1.0000
  H   H3712     1.0  0.64696  0.81768  0.23454  1.0000
  H   H3713     1.0  0.72118  0.88735  0.44602  1.0000
  C   C2188     1.0  0.72183  0.91653  0.25893  1.0000
  H   H3714     1.0  0.72497  0.80010  0.41976  1.0000
  H   H3715     1.0  0.72464  0.96622  0.21051  1.0000
  H   H3716     1.0  0.65588  0.84472  0.45286  1.0000
  H   H3717     1.0  0.50917  0.76733  0.16967  1.0000
  H   H3718     1.0  0.56343  0.94754  0.12995  1.0000
  Fe  Fe315     1.0  0.65938  0.98401  0.09629  1.0000
  H   H3719     1.0  0.50097  0.93641  0.19708  1.0000
  H   H3720     1.0  0.65778  0.76832  0.30998  1.0000
  H   H3721     1.0  0.66011  0.76078  0.28057  1.0000
  C   C2189     1.0  0.58068  0.67211  0.00468  1.0000
  H   H3722     1.0  0.52093  0.95181  0.15339  1.0000
  H   H3723     1.0  0.70276  0.98800  0.21730  1.0000
  H   H3724     1.0  0.62831  0.95825  0.01724  1.0000
  H   H3725     1.0  0.66582  0.86433  0.47577  1.0000
  C   C2190     1.0  0.61349  0.67446  0.98590  1.0000
  Fe  Fe316     1.0  0.50092  0.68170  0.09400  1.0000
  Fe  Fe317     1.0  0.66358  0.66087  0.08401  1.0000
  S   S633      1.0  0.49061  0.87800  0.17649  1.0000
  H   H3726     1.0  0.48369  0.89853  0.13048  1.0000
  H   H3727     1.0  0.70393  0.74112  0.15419  1.0000
  H   H3728     1.0  0.71177  0.97801  0.11013  1.0000
  H   H3729     1.0  0.60780  0.71648  0.18419  1.0000
  H   H3730     1.0  0.71945  0.97969  0.18554  1.0000
  H   H3731     1.0  0.55317  0.76701  0.13524  1.0000
  H   H3732     1.0  0.66736  0.81154  0.31050  1.0000
  S   S634      1.0  0.49231  0.67473  0.14152  1.0000
  C   C2191     1.0  0.68214  0.94246  0.26217  1.0000
  N   N150      1.0  0.59476  0.84321  0.24392  1.0000
  C   C2192     1.0  0.58001  0.83972  0.26688  1.0000
  C   C2193     1.0  0.59452  0.85652  0.22042  1.0000
  C   C2194     1.0  0.60798  0.84822  0.25646  1.0000
  C   C2195     1.0  0.59568  0.82871  0.23429  1.0000
  C   C2196     1.0  0.57897  0.82809  0.29499  1.0000
  C   C2197     1.0  0.58012  0.85410  0.20874  1.0000
  C   C2198     1.0  0.62431  0.85279  0.23666  1.0000
  C   C2199     1.0  0.60497  0.83090  0.20357  1.0000
  H   H3733     1.0  0.57801  0.85056  0.27213  1.0000
  H   H3734     1.0  0.56987  0.83485  0.25955  1.0000
  H   H3735     1.0  0.60471  0.85934  0.20214  1.0000
  H   H3736     1.0  0.59528  0.86733  0.22767  1.0000
  H   H3737     1.0  0.60651  0.85820  0.26539  1.0000
  H   H3738     1.0  0.60822  0.83881  0.27446  1.0000
  H   H3739     1.0  0.60057  0.82110  0.24848  1.0000
  H   H3740     1.0  0.58399  0.82148  0.23616  1.0000
  H   H3741     1.0  0.58335  0.81801  0.29155  1.0000
  H   H3742     1.0  0.58540  0.83380  0.30814  1.0000
  H   H3743     1.0  0.56673  0.82362  0.30739  1.0000
  H   H3744     1.0  0.58236  0.86279  0.18813  1.0000
  H   H3745     1.0  0.57696  0.84243  0.20524  1.0000
  H   H3746     1.0  0.57005  0.85579  0.22327  1.0000
  H   H3747     1.0  0.63262  0.85749  0.24802  1.0000
  H   H3748     1.0  0.62582  0.86194  0.21711  1.0000
  H   H3749     1.0  0.62767  0.84247  0.23164  1.0000
  H   H3750     1.0  0.59867  0.83497  0.18797  1.0000
  H   H3751     1.0  0.60664  0.81951  0.20095  1.0000
  H   H3752     1.0  0.61658  0.83880  0.19791  1.0000
  H   H3753     1.0  0.54227  0.75901  0.46413  1.0000
  N   N151      1.0  0.53131  0.78411  0.15725  1.0000
  C   C2200     1.0  0.52434  0.79052  0.18095  1.0000
  C   C2201     1.0  0.53185  0.79525  0.12982  1.0000
  C   C2202     1.0  0.52529  0.78273  0.21081  1.0000
  C   C2203     1.0  0.51626  0.79830  0.12668  1.0000
  H   H3754     1.0  0.52979  0.80312  0.17670  1.0000
  H   H3755     1.0  0.51190  0.78972  0.18251  1.0000
  H   H3756     1.0  0.53983  0.80674  0.12721  1.0000
  H   H3757     1.0  0.55395  0.79529  0.15967  1.0000
  H   H3758     1.0  0.70809  0.68556  0.11077  1.0000
  H   H3759     1.0  0.53721  0.78622  0.21292  1.0000
  C   C2204     1.0  0.73153  0.93698  0.28006  1.0000
  H   H3760     1.0  0.56925  0.78038  0.13823  1.0000
  H   H3761     1.0  0.51756  0.80465  0.10440  1.0000
  C   C2205     1.0  0.48457  0.83416  0.06325  1.0000
  H   H3762     1.0  0.51261  0.80591  0.13998  1.0000
  H   H3763     1.0  0.63415  0.76717  0.30043  1.0000
  H   H3764     1.0  0.58815  0.66415  0.04142  1.0000
  H   H3765     1.0  0.57442  0.90152  0.04445  1.0000
  C   C2206     1.0  0.50176  0.74804  0.37563  1.0000
  H   H3766     1.0  0.67869  0.79823  0.31809  1.0000
  H   H3767     1.0  0.67480  0.77463  0.23540  1.0000
  C   C2207     1.0  0.71576  0.72835  0.12949  1.0000
  H   H3768     1.0  0.56445  0.67486  0.19002  1.0000
  C   C2208     1.0  0.50328  0.77744  0.43044  1.0000
  H   H3769     1.0  0.65640  0.79297  0.23056  1.0000
  H   H3770     1.0  0.63481  0.94416  0.00140  1.0000
  H   H3771     1.0  0.68281  0.75566  0.28015  1.0000
  H   H3772     1.0  0.50362  0.76600  0.33842  1.0000
  H   H3773     1.0  0.50339  0.91867  0.18960  1.0000
  C   C2209     1.0  0.67720  0.78620  0.23992  1.0000
  C   C2210     1.0  0.52741  0.78657  0.47175  1.0000
  H   H3774     1.0  0.65810  0.79132  0.32182  1.0000
  H   H3775     1.0  0.59303  0.89985  0.02842  1.0000
  H   H3776     1.0  0.64142  0.77060  0.26278  1.0000
  H   H3777     1.0  0.70818  0.83064  0.25167  1.0000
  N   N152      1.0  0.52703  0.76756  0.44018  1.0000
  S   S635      1.0  0.60837  0.66055  0.11021  1.0000
  H   H3778     1.0  0.50297  0.78560  0.44398  1.0000
  H   H3779     1.0  0.50666  0.75468  0.43159  1.0000
  C   C2211     1.0  0.50992  0.76390  0.44228  1.0000
  H   H3780     1.0  0.50307  0.75892  0.46475  1.0000
  H   H3781     1.0  0.58674  0.68434  0.00200  1.0000
  C   C2212     1.0  0.65912  0.77163  0.28670  1.0000
  C   C2213     1.0  0.60956  0.94033  0.01418  1.0000
  H   H3782     1.0  0.59105  0.68221  0.15786  1.0000
  H   H3783     1.0  0.49115  0.77265  0.43035  1.0000
  N   N153      1.0  0.60378  0.65954  0.00698  1.0000
  H   H3784     1.0  0.53668  0.79150  0.11105  1.0000
  H   H3785     1.0  0.48632  0.80263  0.99922  1.0000
  C   C2214     1.0  0.53803  0.92188  0.15419  1.0000
  N   N154      1.0  0.72579  0.83128  0.39988  1.0000
  H   H3786     1.0  0.55120  0.95816  0.14687  1.0000
  H   H3787     1.0  0.49673  0.93207  0.16612  1.0000
  C   C2215     1.0  0.67305  0.96710  0.21250  1.0000
  H   H3788     1.0  0.57432  0.71392  0.08992  1.0000
  H   H3789     1.0  0.61323  0.66416  0.04172  1.0000
  C   C2216     1.0  0.48493  0.84799  0.04429  1.0000
  C   C2217     1.0  0.68891  0.84970  0.46320  1.0000
  H   H3790     1.0  0.49127  0.83444  0.07868  1.0000
  H   H3791     1.0  0.72252  0.67420  0.08387  1.0000
  N   N155      1.0  0.70001  0.96380  0.21793  1.0000
  C   C2218     1.0  0.71589  0.96738  0.19832  1.0000
  C   C2219     1.0  0.69999  0.97649  0.23303  1.0000
  C   C2220     1.0  0.68860  0.96398  0.19998  1.0000
  C   C2221     1.0  0.69702  0.94799  0.23796  1.0000
  C   C2222     1.0  0.71797  0.95724  0.17735  1.0000
  S   S636      1.0  0.52829  0.67542  0.14302  1.0000
  H   H3792     1.0  0.62047  0.70908  0.14182  1.0000
  H   H3793     1.0  0.53331  0.73621  0.44691  1.0000
  H   H3794     1.0  0.69696  0.79021  0.27523  1.0000
  H   H3795     1.0  0.66700  0.95931  0.23369  1.0000
  H   H3796     1.0  0.69065  0.67683  0.18582  1.0000
  H   H3797     1.0  0.53562  0.89974  0.18336  1.0000
  H   H3798     1.0  0.51964  0.94101  0.08764  1.0000
  H   H3799     1.0  0.68598  0.95286  0.19391  1.0000
  H   H3800     1.0  0.69644  0.93889  0.22624  1.0000
  H   H3801     1.0  0.70686  0.94686  0.24742  1.0000
  H   H3802     1.0  0.67352  0.80882  0.22101  1.0000
  H   H3803     1.0  0.51798  0.78688  0.22670  1.0000
  H   H3804     1.0  0.71093  0.66474  0.18477  1.0000
  C   C2223     1.0  0.70837  0.98673  0.11990  1.0000
  C   C2224     1.0  0.71439  0.82601  0.42862  1.0000
  H   H3805     1.0  0.54385  0.77495  0.36722  1.0000
  C   C2225     1.0  0.71388  0.66514  0.10156  1.0000
  H   H3806     1.0  0.52188  0.74892  0.14141  1.0000
  C   C2226     1.0  0.69232  0.67937  0.16243  1.0000
  C   C2227     1.0  0.61339  0.69796  0.14071  1.0000
  H   H3807     1.0  0.70384  0.80929  0.36516  1.0000
  H   H3808     1.0  0.60441  0.98371  0.98039  1.0000
  H   H3809     1.0  0.60185  0.94763  0.02086  1.0000
  C   C2228     1.0  0.59892  0.68236  0.07538  1.0000
  H   H3810     1.0  0.50688  0.94321  0.11851  1.0000
  H   H3811     1.0  0.49308  0.70285  0.40689  1.0000
  C   C2229     1.0  0.59458  0.66895  0.09781  1.0000
  H   H3812     1.0  0.59068  0.91196  0.05264  1.0000
  C   C2230     1.0  0.52158  0.76793  0.16137  1.0000
  C   C2231     1.0  0.55753  0.77931  0.13477  1.0000
  C   C2232     1.0  0.67228  0.79977  0.27752  1.0000
  H   H3813     1.0  0.48319  0.73066  0.34397  1.0000
  H   H3814     1.0  0.50151  0.92725  0.10375  1.0000
  H   H3815     1.0  0.54619  0.94149  0.10030  1.0000
  H   H3816     1.0  0.72047  0.65861  0.11343  1.0000
  N   N156      1.0  0.67347  0.78448  0.27151  1.0000
  S   S637      1.0  0.65010  0.67076  0.11508  1.0000
  H   H3817     1.0  0.52824  0.94124  0.17906  1.0000
  C   C2233     1.0  0.72321  0.92166  0.28297  1.0000
  H   H3818     1.0  0.55903  0.78709  0.11362  1.0000
  C   C2234     1.0  0.54750  0.78377  0.15886  1.0000
  H   H3819     1.0  0.54744  0.77540  0.17867  1.0000
  C   C2235     1.0  0.51132  0.93475  0.10836  1.0000
  S   S638      1.0  0.55802  0.68983  0.06611  1.0000
  C   C2236     1.0  0.55500  0.95459  0.12728  1.0000
  H   H3820     1.0  0.69987  0.69134  0.15369  1.0000
  C   C2237     1.0  0.66907  0.79635  0.22242  1.0000
  H   H3821     1.0  0.56134  0.96525  0.11013  1.0000
  H   H3822     1.0  0.54678  0.92778  0.16347  1.0000
  H   H3823     1.0  0.53000  0.79924  0.46975  1.0000
  C   C2238     1.0  0.72669  0.68326  0.15040  1.0000
  H   H3824     1.0  0.61099  0.68788  0.06556  1.0000
  C   C2239     1.0  0.58758  0.68862  0.06559  1.0000
  H   H3825     1.0  0.51326  0.73523  0.46221  1.0000
  H   H3826     1.0  0.54446  0.91750  0.13750  1.0000
  N   N157      1.0  0.52957  0.93294  0.14130  1.0000
  H   H3827     1.0  0.58142  0.91650  0.99632  1.0000
  H   H3828     1.0  0.64070  0.85411  0.44624  1.0000
  C   C2240     1.0  0.52151  0.93985  0.16318  1.0000
  H   H3829     1.0  0.52490  0.91824  0.11370  1.0000
  C   C2241     1.0  0.56758  0.66836  0.10119  1.0000
  C   C2242     1.0  0.71126  0.97771  0.25197  1.0000
  H   H3830     1.0  0.50932  0.91526  0.14298  1.0000
  C   C2243     1.0  0.50479  0.93107  0.17975  1.0000
  C   C2244     1.0  0.57191  0.68163  0.07850  1.0000
  H   H3831     1.0  0.53100  0.79264  0.42664  1.0000
  H   H3832     1.0  0.51861  0.90079  0.17222  1.0000
  H   H3833     1.0  0.64264  0.78620  0.27996  1.0000
  S   S639      1.0  0.48756  0.68749  0.06137  1.0000
  C   C2245     1.0  0.54132  0.94589  0.11835  1.0000
  H   H3834     1.0  0.70144  0.76422  0.28341  1.0000
  C   C2246     1.0  0.53585  0.77696  0.38524  1.0000
  S   S640      1.0  0.66375  0.69137  0.98555  1.0000
  H   H3835     1.0  0.50709  0.78742  0.13187  1.0000
  H   H3836     1.0  0.60966  0.68958  0.01438  1.0000
  H   H3837     1.0  0.54834  0.76678  0.41287  1.0000
  C   C2247     1.0  0.72901  0.92687  0.23203  1.0000
  H   H3838     1.0  0.71065  0.95857  0.16234  1.0000
  H   H3839     1.0  0.68847  0.97535  0.24673  1.0000
  C   C2248     1.0  0.48516  0.69631  0.39692  1.0000
  H   H3840     1.0  0.72092  0.84307  0.45216  1.0000
  C   C2249     1.0  0.58668  0.90812  0.03523  1.0000
  S   S641      1.0  0.68127  0.97831  0.10534  1.0000
  C   C2250     1.0  0.53602  0.76570  0.41277  1.0000
  H   H3841     1.0  0.50944  0.78398  0.40845  1.0000
  H   H3842     1.0  0.61897  0.68875  0.14852  1.0000
  H   H3843     1.0  0.56169  0.70646  0.12453  1.0000
  H   H3844     1.0  0.67235  0.93658  0.25514  1.0000
  H   H3845     1.0  0.60556  0.73574  0.17562  1.0000
  H   H3846     1.0  0.49257  0.69384  0.37899  1.0000
  N   N158      1.0  0.60351  0.93175  0.99434  1.0000
  C   C2251     1.0  0.53338  0.78365  0.44269  1.0000
  H   H3847     1.0  0.52124  0.76991  0.21626  1.0000
  H   H3848     1.0  0.70407  0.83053  0.42771  1.0000
  H   H3849     1.0  0.67903  0.95175  0.27135  1.0000
  H   H3850     1.0  0.61376  0.69816  0.11832  1.0000
  C   C2252     1.0  0.73120  0.79929  0.24839  1.0000
  H   H3851     1.0  0.71584  0.94483  0.18834  1.0000
  H   H3852     1.0  0.70949  0.98671  0.26329  1.0000
  H   H3853     1.0  0.69723  0.76934  0.25007  1.0000
  N   N159      1.0  0.58743  0.70532  0.15125  1.0000
  C   C2253     1.0  0.59528  0.72152  0.15122  1.0000
  C   C2254     1.0  0.58580  0.70561  0.12178  1.0000
  C   C2255     1.0  0.59670  0.69396  0.15921  1.0000
  C   C2256     1.0  0.57197  0.70022  0.17258  1.0000
  C   C2257     1.0  0.59966  0.72338  0.17873  1.0000
  C   C2258     1.0  0.57351  0.71335  0.11259  1.0000
  S   S642      1.0  0.51484  0.66414  0.09210  1.0000
  C   C2259     1.0  0.56188  0.68407  0.17463  1.0000
  H   H3854     1.0  0.60594  0.72643  0.13356  1.0000
  H   H3855     1.0  0.58780  0.72951  0.14721  1.0000
  H   H3856     1.0  0.58320  0.69372  0.11905  1.0000
  H   H3857     1.0  0.59689  0.71169  0.10568  1.0000
  N   N160      1.0  0.69971  0.66786  0.15068  1.0000
  H   H3858     1.0  0.68379  0.77702  0.30582  1.0000
  H   H3859     1.0  0.57342  0.69967  0.19428  1.0000
  H   H3860     1.0  0.56510  0.70891  0.16942  1.0000
  C   C2260     1.0  0.51875  0.92449  0.12729  1.0000
  H   H3861     1.0  0.65291  0.65776  0.99672  1.0000
  H   H3862     1.0  0.73010  0.96102  0.16437  1.0000
  H   H3863     1.0  0.57530  0.72540  0.11447  1.0000
  C   C2261     1.0  0.65227  0.85571  0.45025  1.0000
  H   H3864     1.0  0.71923  0.80372  0.37750  1.0000
  C   C2262     1.0  0.71445  0.71878  0.11099  1.0000
  H   H3865     1.0  0.71958  0.65879  0.15578  1.0000
  S   S643      1.0  0.72508  0.79512  0.19790  1.0000
  H   H3866     1.0  0.72321  0.69255  0.15938  1.0000
  H   H3867     1.0  0.56316  0.68103  0.15417  1.0000
  H   H3868     1.0  0.54953  0.68394  0.18166  1.0000
  C   C2263     1.0  0.52525  0.73887  0.46391  1.0000
  H   H3869     1.0  0.67168  0.79518  0.20039  1.0000
  H   H3870     1.0  0.58021  0.92907  0.01837  1.0000
  H   H3871     1.0  0.53171  0.75394  0.41028  1.0000
  H   H3872     1.0  0.68975  0.79148  0.23012  1.0000
  H   H3873     1.0  0.62863  0.68608  0.00824  1.0000
  H   H3874     1.0  0.53988  0.78931  0.38474  1.0000
  H   H3875     1.0  0.54619  0.78636  0.43823  1.0000
  C   C2264     1.0  0.71761  0.82739  0.37801  1.0000
  H   H3876     1.0  0.50349  0.73002  0.40947  1.0000
  H   H3877     1.0  0.71038  0.81849  0.21148  1.0000
  H   H3878     1.0  0.67978  0.96924  0.01675  1.0000
  H   H3879     1.0  0.66539  0.96522  0.19827  1.0000
  H   H3880     1.0  0.72137  0.85413  0.39219  1.0000
  C   C2265     1.0  0.68761  0.97629  0.02619  1.0000
  H   H3881     1.0  0.49397  0.68020  0.98879  1.0000
  H   H3882     1.0  0.70966  0.81329  0.43555  1.0000
  H   H3883     1.0  0.50598  0.72755  0.31403  1.0000
  H   H3884     1.0  0.69361  0.97319  0.17968  1.0000
  C   C2266     1.0  0.72135  0.81733  0.27286  1.0000
  C   C2267     1.0  0.61907  0.68793  0.99850  1.0000
  C   C2268     1.0  0.50189  0.67336  0.99565  1.0000
  H   H3885     1.0  0.68005  0.83901  0.46811  1.0000
  H   H3886     1.0  0.73022  0.68736  0.12697  1.0000
  H   H3887     1.0  0.69223  0.67087  0.11195  1.0000
  H   H3888     1.0  0.60972  0.93223  0.03405  1.0000
  C   C2269     1.0  0.61447  0.92232  0.98554  1.0000
  H   H3889     1.0  0.71222  0.82385  0.47357  1.0000
  H   H3890     1.0  0.70828  0.83352  0.37728  1.0000
  H   H3891     1.0  0.72811  0.92300  0.21330  1.0000
  S   S644      1.0  0.64596  0.65880  0.05885  1.0000
  H   H3892     1.0  0.72425  0.71470  0.10253  1.0000
  H   H3893     1.0  0.51335  0.68163  0.99088  1.0000
  H   H3894     1.0  0.49827  0.66853  0.01898  1.0000
  H   H3895     1.0  0.67735  0.68353  0.13375  1.0000
  Fe  Fe318     1.0  0.50764  0.65837  0.13968  1.0000
  S   S645      1.0  0.48368  0.74970  0.39306  1.0000
  H   H3896     1.0  0.49947  0.70698  0.32407  1.0000
  H   H3897     1.0  0.51228  0.85086  0.99824  1.0000
  H   H3898     1.0  0.69854  0.97284  0.02180  1.0000
  C   C2270     1.0  0.70311  0.67282  0.11880  1.0000
  H   H3899     1.0  0.61737  0.91556  0.00416  1.0000
  H   H3900     1.0  0.72556  0.83148  0.35644  1.0000
  S   S646      1.0  0.63682  0.98017  0.12777  1.0000
  C   C2271     1.0  0.73126  0.84878  0.39253  1.0000
  C   C2272     1.0  0.72977  0.80609  0.27135  1.0000
  H   H3901     1.0  0.73186  0.82857  0.45325  1.0000
  H   H3902     1.0  0.62376  0.69886  0.98127  1.0000
  H   H3903     1.0  0.62782  0.95899  0.98149  1.0000
  C   C2273     1.0  0.50342  0.66062  0.98004  1.0000
  C   C2274     1.0  0.48208  0.71941  0.33824  1.0000
  Fe  Fe319     1.0  0.57494  0.79417  0.60187  1.0000
  S   S647      1.0  0.56263  0.79322  0.64614  1.0000
  S   S648      1.0  0.60139  0.80107  0.58791  1.0000
  Fe  Fe320     1.0  0.54421  0.78205  0.58627  1.0000
  S   S649      1.0  0.53013  0.78065  0.62961  1.0000
  S   S650      1.0  0.53136  0.77861  0.55208  1.0000
  Fe  Fe321     1.0  0.54597  0.80355  0.62613  1.0000
  S   S651      1.0  0.53694  0.82382  0.63540  1.0000
  Fe  Fe322     1.0  0.54797  0.77034  0.64568  1.0000
  S   S652      1.0  0.54017  0.75059  0.68563  1.0000
  S   S653      1.0  0.55911  0.80597  0.58153  1.0000
  S   S654      1.0  0.56131  0.77029  0.60264  1.0000
  Fe  Fe323     1.0  0.51529  0.89003  0.72349  1.0000
  S   S655      1.0  0.50581  0.86647  0.75416  1.0000
  S   S656      1.0  0.50766  0.89952  0.68447  1.0000
  Fe  Fe324     1.0  0.54049  0.89973  0.75305  1.0000
  S   S657      1.0  0.53330  0.87689  0.78599  1.0000
  S   S658      1.0  0.55922  0.92129  0.74844  1.0000
  Fe  Fe325     1.0  0.53056  0.86616  0.75008  1.0000
  S   S659      1.0  0.53808  0.84420  0.74821  1.0000
  Fe  Fe326     1.0  0.50917  0.87888  0.78758  1.0000
  H   H3904     1.0  0.53285  0.74632  0.55775  1.0000
  S   S660      1.0  0.54000  0.88881  0.71676  1.0000
  S   S661      1.0  0.51642  0.90257  0.75729  1.0000
  C   C2275     1.0  0.49157  0.84449  0.94694  1.0000
  S   S662      1.0  0.53957  0.68200  0.67844  1.0000
  H   H3905     1.0  0.53345  0.84794  0.90172  1.0000
  Fe  Fe327     1.0  0.61935  0.97755  0.88008  1.0000
  H   H3906     1.0  0.58944  0.71177  0.77940  1.0000
  H   H3907     1.0  0.49765  0.73866  0.63354  1.0000
  Fe  Fe328     1.0  0.60939  0.95774  0.84114  1.0000
  S   S663      1.0  0.63063  0.97001  0.80559  1.0000
  S   S664      1.0  0.59095  0.93598  0.84483  1.0000
  Fe  Fe329     1.0  0.64356  0.96868  0.83922  1.0000
  S   S665      1.0  0.66563  0.96092  0.83643  1.0000
  H   H3908     1.0  0.59461  0.70476  0.70045  1.0000
  S   S666      1.0  0.62271  0.95470  0.87418  1.0000
  H   H3909     1.0  0.53904  0.94581  0.82990  1.0000
  C   C2276     1.0  0.64915  0.67671  0.92200  1.0000
  H   H3910     1.0  0.60745  0.67886  0.97007  1.0000
  S   S667      1.0  0.64534  0.67925  0.83745  1.0000
  H   H3911     1.0  0.49575  0.97849  0.69424  1.0000
  H   H3912     1.0  0.50988  0.94344  0.60883  1.0000
  S   S668      1.0  0.61701  0.67518  0.78581  1.0000
  Fe  Fe330     1.0  0.66679  0.67479  0.81308  1.0000
  S   S669      1.0  0.69147  0.68969  0.79513  1.0000
  H   H3913     1.0  0.51313  0.93645  0.85232  1.0000
  Fe  Fe331     1.0  0.67359  0.86220  0.60148  1.0000
  S   S670      1.0  0.68960  0.88450  0.57230  1.0000
  S   S671      1.0  0.64750  0.85832  0.60702  1.0000
  Fe  Fe332     1.0  0.70061  0.85036  0.61583  1.0000
  Fe  Fe333     1.0  0.70329  0.88518  0.60533  1.0000
  C   C2277     1.0  0.71733  0.69298  0.87693  1.0000
  Fe  Fe334     1.0  0.70345  0.86916  0.55532  1.0000
  S   S672      1.0  0.71289  0.87507  0.50665  1.0000
  S   S673      1.0  0.68588  0.86421  0.63589  1.0000
  S   S674      1.0  0.68704  0.84693  0.58352  1.0000
  H   H3914     1.0  0.55130  0.93394  0.82094  1.0000
  H   H3915     1.0  0.62395  0.67241  0.97315  1.0000
  H   H3916     1.0  0.48808  0.78692  0.78051  1.0000
  H   H3917     1.0  0.69351  0.66621  0.89343  1.0000
  H   H3918     1.0  0.68904  0.84785  0.50715  1.0000
  C   C2278     1.0  0.56191  0.69562  0.77285  1.0000
  H   H3919     1.0  0.51481  0.78175  0.48030  1.0000
  C   C2279     1.0  0.65514  0.68600  0.93839  1.0000
  H   H3920     1.0  0.69039  0.72999  0.74601  1.0000
  H   H3921     1.0  0.49361  0.85679  0.90303  1.0000
  H   H3922     1.0  0.49970  0.68509  0.69557  1.0000
  H   H3923     1.0  0.64796  0.68204  0.90134  1.0000
  H   H3924     1.0  0.65863  0.69849  0.93014  1.0000
  C   C2280     1.0  0.51734  0.94550  0.67170  1.0000
  C   C2281     1.0  0.61401  0.84473  0.53030  1.0000
  C   C2282     1.0  0.69904  0.70920  0.79442  1.0000
  C   C2283     1.0  0.68986  0.71803  0.80588  1.0000
  C   C2284     1.0  0.69655  0.73344  0.80531  1.0000
  C   C2285     1.0  0.71487  0.71590  0.78241  1.0000
  H   H3925     1.0  0.67766  0.71297  0.81521  1.0000
  H   H3926     1.0  0.68940  0.74024  0.81416  1.0000
  H   H3927     1.0  0.72204  0.70911  0.77356  1.0000
  C   C2286     1.0  0.48643  0.70691  0.63716  1.0000
  H   H3928     1.0  0.48293  0.83555  0.94233  1.0000
  C   C2287     1.0  0.52553  0.91969  0.81481  1.0000
  S   S675      1.0  0.71303  0.90880  0.61449  1.0000
  H   H3929     1.0  0.48604  0.78698  0.82958  1.0000
  H   H3930     1.0  0.71465  0.69035  0.83494  1.0000
  H   H3931     1.0  0.59053  0.73377  0.74125  1.0000
  C   C2288     1.0  0.68211  0.97214  0.80953  1.0000
  N   N161      1.0  0.50552  0.83864  0.95045  1.0000
  H   H3932     1.0  0.68797  0.70004  0.92362  1.0000
  C   C2289     1.0  0.70933  0.97635  0.78659  1.0000
  C   C2290     1.0  0.69613  0.96803  0.80845  1.0000
  H   H3933     1.0  0.60258  0.65998  0.94930  1.0000
  H   H3934     1.0  0.50123  0.82526  0.92048  1.0000
  H   H3935     1.0  0.69675  0.95837  0.82458  1.0000
  H   H3936     1.0  0.50989  0.66673  0.95784  1.0000
  H   H3937     1.0  0.57934  0.93713  0.96368  1.0000
  H   H3938     1.0  0.48436  0.98640  0.56750  1.0000
  S   S676      1.0  0.49122  0.87400  0.82876  1.0000
  C   C2291     1.0  0.64601  0.86350  0.52441  1.0000
  H   H3939     1.0  0.59770  0.67513  0.74793  1.0000
  C   C2292     1.0  0.48830  0.89461  0.68296  1.0000
  H   H3940     1.0  0.62340  0.84707  0.48645  1.0000
  H   H3941     1.0  0.67411  0.94849  0.77808  1.0000
  C   C2293     1.0  0.50076  0.73716  0.53321  1.0000
  H   H3942     1.0  0.50429  0.86373  0.97590  1.0000
  H   H3943     1.0  0.63838  0.85763  0.54597  1.0000
  C   C2294     1.0  0.56891  0.92479  0.77452  1.0000
  C   C2295     1.0  0.57826  0.93970  0.77071  1.0000
  C   C2296     1.0  0.58551  0.94320  0.79166  1.0000
  C   C2297     1.0  0.58347  0.93179  0.81662  1.0000
  C   C2298     1.0  0.57441  0.91678  0.82015  1.0000
  C   C2299     1.0  0.56715  0.91327  0.79920  1.0000
  H   H3944     1.0  0.57974  0.94865  0.75161  1.0000
  H   H3945     1.0  0.59246  0.95479  0.78872  1.0000
  H   H3946     1.0  0.57290  0.90787  0.83932  1.0000
  H   H3947     1.0  0.56012  0.90172  0.80222  1.0000
  C   C2300     1.0  0.68752  0.67206  0.87915  1.0000
  H   H3948     1.0  0.51609  0.92497  0.88231  1.0000
  H   H3949     1.0  0.61377  0.85189  0.54568  1.0000
  C   C2301     1.0  0.51211  0.69377  0.60642  1.0000
  C   C2302     1.0  0.70046  0.77754  0.74483  1.0000
  H   H3950     1.0  0.49229  0.94692  0.60028  1.0000
  H   H3951     1.0  0.70770  0.98685  0.97007  1.0000
  C   C2303     1.0  0.51895  0.76201  0.54771  1.0000
  C   C2304     1.0  0.52269  0.74772  0.55073  1.0000
  C   C2305     1.0  0.51363  0.73539  0.54363  1.0000
  C   C2306     1.0  0.49697  0.75143  0.53028  1.0000
  C   C2307     1.0  0.50602  0.76374  0.53746  1.0000
  C   C2308     1.0  0.57767  0.72586  0.70012  1.0000
  C   C2309     1.0  0.69397  0.85470  0.48546  1.0000
  H   H3952     1.0  0.50309  0.77478  0.53472  1.0000
  C   C2310     1.0  0.54030  0.73165  0.68333  1.0000
  C   C2311     1.0  0.53359  0.71924  0.70760  1.0000
  C   C2312     1.0  0.53330  0.70394  0.70635  1.0000
  C   C2313     1.0  0.53992  0.70101  0.68089  1.0000
  C   C2314     1.0  0.54688  0.71346  0.65675  1.0000
  C   C2315     1.0  0.54702  0.72874  0.65792  1.0000
  H   H3953     1.0  0.52834  0.72143  0.72732  1.0000
  H   H3954     1.0  0.52774  0.69445  0.72499  1.0000
  H   H3955     1.0  0.55209  0.71126  0.63701  1.0000
  H   H3956     1.0  0.55233  0.73824  0.63918  1.0000
  C   C2316     1.0  0.53557  0.82803  0.66844  1.0000
  C   C2317     1.0  0.52991  0.84075  0.67293  1.0000
  C   C2318     1.0  0.52997  0.84537  0.69799  1.0000
  C   C2319     1.0  0.53585  0.83735  0.71856  1.0000
  C   C2320     1.0  0.54088  0.82422  0.71468  1.0000
  C   C2321     1.0  0.54070  0.81953  0.68969  1.0000
  H   H3957     1.0  0.52585  0.84732  0.65660  1.0000
  H   H3958     1.0  0.52601  0.85548  0.70082  1.0000
  H   H3959     1.0  0.54536  0.81792  0.73062  1.0000
  H   H3960     1.0  0.54494  0.80962  0.68649  1.0000
  C   C2322     1.0  0.61375  0.81641  0.59569  1.0000
  C   C2323     1.0  0.60873  0.82908  0.60199  1.0000
  C   C2324     1.0  0.61922  0.84176  0.60534  1.0000
  C   C2325     1.0  0.63478  0.84182  0.60313  1.0000
  C   C2326     1.0  0.63979  0.82908  0.59708  1.0000
  C   C2327     1.0  0.62935  0.81652  0.59321  1.0000
  H   H3961     1.0  0.59687  0.82932  0.60323  1.0000
  H   H3962     1.0  0.61535  0.85173  0.60906  1.0000
  H   H3963     1.0  0.65171  0.82893  0.59518  1.0000
  H   H3964     1.0  0.63340  0.80684  0.58810  1.0000
  H   H3965     1.0  0.70839  0.81117  0.69638  1.0000
  H   H3966     1.0  0.48710  0.75301  0.52240  1.0000
  N   N162      1.0  0.50240  0.70894  0.64195  1.0000
  C   C2328     1.0  0.48526  0.71388  0.60691  1.0000
  C   C2329     1.0  0.51347  0.72395  0.62369  1.0000
  C   C2330     1.0  0.50906  0.69562  0.63680  1.0000
  C   C2331     1.0  0.50128  0.70902  0.67247  1.0000
  S   S677      1.0  0.70384  0.82989  0.64710  1.0000
  C   C2332     1.0  0.72694  0.93299  0.63405  1.0000
  H   H3967     1.0  0.67508  0.66602  0.88756  1.0000
  C   C2333     1.0  0.49828  0.91315  0.86731  1.0000
  H   H3968     1.0  0.51295  0.71237  0.67579  1.0000
  H   H3969     1.0  0.57048  0.66108  0.75323  1.0000
  H   H3970     1.0  0.51414  0.72513  0.60101  1.0000
  H   H3971     1.0  0.52543  0.72415  0.62539  1.0000
  H   H3972     1.0  0.52015  0.69652  0.64297  1.0000
  H   H3973     1.0  0.55378  0.68600  0.76903  1.0000
  H   H3974     1.0  0.50135  0.68430  0.65024  1.0000
  Fe  Fe335     1.0  0.52850  0.66239  0.71815  1.0000
  H   H3975     1.0  0.51898  0.82535  0.81030  1.0000
  H   H3976     1.0  0.48920  0.91956  0.87004  1.0000
  H   H3977     1.0  0.69365  0.77611  0.76675  1.0000
  C   C2334     1.0  0.51846  0.85094  0.95307  1.0000
  H   H3978     1.0  0.71381  0.97488  0.67698  1.0000
  H   H3979     1.0  0.55596  0.69724  0.79331  1.0000
  H   H3980     1.0  0.50119  0.68952  0.60098  1.0000
  H   H3981     1.0  0.49546  0.71796  0.67817  1.0000
  H   H3982     1.0  0.60336  0.72807  0.71589  1.0000
  H   H3983     1.0  0.72008  0.77174  0.64841  1.0000
  C   C2335     1.0  0.52192  0.84318  0.89883  1.0000
  H   H3984     1.0  0.62883  0.81648  0.52020  1.0000
  C   C2336     1.0  0.69792  0.74633  0.70331  1.0000
  H   H3985     1.0  0.53184  0.81349  0.80402  1.0000
  C   C2337     1.0  0.70561  0.86836  0.47955  1.0000
  H   H3986     1.0  0.51681  0.72449  0.54566  1.0000
  H   H3987     1.0  0.71274  0.78097  0.74492  1.0000
  H   H3988     1.0  0.55950  0.68938  0.71853  1.0000
  C   C2338     1.0  0.57507  0.74163  0.70364  1.0000
  H   H3989     1.0  0.50486  0.86826  0.92066  1.0000
  H   H3990     1.0  0.51669  0.74905  0.61244  1.0000
  C   C2339     1.0  0.49259  0.69363  0.69491  1.0000
  H   H3991     1.0  0.52317  0.93618  0.67768  1.0000
  H   H3992     1.0  0.69959  0.76555  0.65139  1.0000
  H   H3993     1.0  0.64333  0.87495  0.51826  1.0000
  C   C2340     1.0  0.73105  0.83721  0.74716  1.0000
  H   H3994     1.0  0.51531  0.80595  0.83336  1.0000
  H   H3995     1.0  0.72008  0.97314  0.78606  1.0000
  C   C2341     1.0  0.50079  0.82580  0.97758  1.0000
  H   H3996     1.0  0.52827  0.84592  0.95649  1.0000
  C   C2342     1.0  0.71969  0.81721  0.68272  1.0000
  H   H3997     1.0  0.61543  0.83322  0.54018  1.0000
  H   H3998     1.0  0.53970  0.93741  0.88139  1.0000
  C   C2343     1.0  0.50314  0.95213  0.60512  1.0000
  H   H3999     1.0  0.48951  0.80104  0.72988  1.0000
  H   H4000     1.0  0.72669  0.69942  0.88438  1.0000
  C   C2344     1.0  0.69850  0.69605  0.91695  1.0000
  H   H4001     1.0  0.59269  0.92816  0.94511  1.0000
  C   C2345     1.0  0.54166  0.93455  0.83791  1.0000
  H   H4002     1.0  0.51706  0.85273  0.89026  1.0000
  H   H4003     1.0  0.52378  0.83676  0.88240  1.0000
  C   C2346     1.0  0.62646  0.85302  0.50238  1.0000
  C   C2347     1.0  0.68139  0.98474  0.78876  1.0000
  C   C2348     1.0  0.69497  0.67948  0.93609  1.0000
  H   H4004     1.0  0.71674  0.72166  0.87599  1.0000
  H   H4005     1.0  0.71661  0.90925  0.50700  1.0000
  H   H4006     1.0  0.71382  0.97352  0.71279  1.0000
  C   C2349     1.0  0.64430  0.66059  0.93271  1.0000
  H   H4007     1.0  0.65856  0.83940  0.50891  1.0000
  C   C2350     1.0  0.59812  0.66413  0.79003  1.0000
  H   H4008     1.0  0.68426  0.67202  0.93433  1.0000
  H   H4009     1.0  0.49605  0.90385  0.88710  1.0000
  H   H4010     1.0  0.53328  0.94401  0.78892  1.0000
  H   H4011     1.0  0.49652  0.90782  0.84997  1.0000
  N   N163      1.0  0.57959  0.71504  0.72584  1.0000
  H   H4012     1.0  0.69698  0.73533  0.86459  1.0000
  H   H4013     1.0  0.49865  0.98254  0.65692  1.0000
  H   H4014     1.0  0.58497  0.69270  0.73440  1.0000
  H   H4015     1.0  0.56761  0.72040  0.69326  1.0000
  C   C2351     1.0  0.51946  0.81322  0.81118  1.0000
  N   N164      1.0  0.69978  0.94021  0.73164  1.0000
  C   C2352     1.0  0.70089  0.92410  0.72988  1.0000
  C   C2353     1.0  0.70918  0.94460  0.75152  1.0000
  C   C2354     1.0  0.70706  0.95107  0.70249  1.0000
  C   C2355     1.0  0.68301  0.93993  0.74158  1.0000
  C   C2356     1.0  0.69357  0.91768  0.70816  1.0000
  C   C2357     1.0  0.70351  0.93440  0.78232  1.0000
  C   C2358     1.0  0.70749  0.96833  0.69909  1.0000
  C   C2359     1.0  0.67928  0.95306  0.75487  1.0000
  H   H4016     1.0  0.71315  0.92354  0.72489  1.0000
  H   H4017     1.0  0.69524  0.91548  0.75066  1.0000
  H   H4018     1.0  0.71012  0.95670  0.75255  1.0000
  C   C2360     1.0  0.49402  0.83065  0.86354  1.0000
  H   H4019     1.0  0.71917  0.95047  0.69508  1.0000
  H   H4020     1.0  0.70097  0.94766  0.68684  1.0000
  H   H4021     1.0  0.67741  0.94003  0.72380  1.0000
  H   H4022     1.0  0.67672  0.92887  0.75790  1.0000
  H   H4023     1.0  0.68147  0.91839  0.71055  1.0000
  H   H4024     1.0  0.70045  0.92350  0.68610  1.0000
  H   H4025     1.0  0.69352  0.90523  0.71144  1.0000
  S   S678      1.0  0.65473  0.66401  0.78454  1.0000
  H   H4026     1.0  0.72743  0.77372  0.71239  1.0000
  H   H4027     1.0  0.51852  0.68469  0.60528  1.0000
  H   H4028     1.0  0.52461  0.88945  0.83533  1.0000
  H   H4029     1.0  0.69146  0.72442  0.90060  1.0000
  N   N165      1.0  0.49199  0.94881  0.65874  1.0000
  H   H4030     1.0  0.51938  0.70442  0.59035  1.0000
  H   H4031     1.0  0.68904  0.96317  0.75110  1.0000
  C   C2361     1.0  0.68954  0.68966  0.87606  1.0000
  C   C2362     1.0  0.71240  0.74012  0.79326  1.0000
  H   H4032     1.0  0.58550  0.74933  0.70589  1.0000
  H   H4033     1.0  0.48324  0.83435  0.75578  1.0000
  C   C2363     1.0  0.48800  0.79939  0.77458  1.0000
  H   H4034     1.0  0.72134  0.94424  0.74343  1.0000
  C   C2364     1.0  0.58338  0.70120  0.71680  1.0000
  H   H4035     1.0  0.49381  0.90752  0.63924  1.0000
  H   H4036     1.0  0.51376  0.74078  0.64940  1.0000
  H   H4037     1.0  0.69272  0.68003  0.95852  1.0000
  C   C2365     1.0  0.51076  0.80634  0.79147  1.0000
  H   H4038     1.0  0.49586  0.82934  0.80602  1.0000
  N   N166      1.0  0.70274  0.69803  0.88536  1.0000
  H   H4039     1.0  0.48644  0.95100  0.70188  1.0000
  H   H4040     1.0  0.68573  0.74603  0.70309  1.0000
  H   H4041     1.0  0.69729  0.75301  0.75444  1.0000
  H   H4042     1.0  0.53573  0.91696  0.80247  1.0000
  H   H4043     1.0  0.48645  0.66045  0.92308  1.0000
  H   H4044     1.0  0.49440  0.67704  0.93534  1.0000
  H   H4045     1.0  0.66282  0.87275  0.54545  1.0000
  H   H4046     1.0  0.66601  0.85585  0.53543  1.0000
  H   H4047     1.0  0.49231  0.71001  0.59044  1.0000
  H   H4048     1.0  0.62582  0.93010  0.97256  1.0000
  C   C2366     1.0  0.56491  0.71076  0.74922  1.0000
  C   C2367     1.0  0.70634  0.71518  0.87118  1.0000
  H   H4049     1.0  0.68371  0.75965  0.73765  1.0000
  H   H4050     1.0  0.52532  0.88141  0.87043  1.0000
  H   H4051     1.0  0.64194  0.83438  0.53746  1.0000
  C   C2368     1.0  0.65634  0.67926  0.96558  1.0000
  C   C2369     1.0  0.52286  0.93414  0.79603  1.0000
  H   H4052     1.0  0.51134  0.96696  0.62972  1.0000
  H   H4053     1.0  0.71013  0.93992  0.79547  1.0000
  H   H4054     1.0  0.69330  0.77723  0.69044  1.0000
  H   H4055     1.0  0.60879  0.72168  0.76123  1.0000
  H   H4056     1.0  0.55326  0.92636  0.87081  1.0000
  H   H4057     1.0  0.49037  0.69582  0.71623  1.0000
  H   H4058     1.0  0.56431  0.72038  0.75957  1.0000
  C   C2370     1.0  0.59143  0.93872  0.95177  1.0000
  H   H4059     1.0  0.70569  0.92276  0.78398  1.0000
  H   H4060     1.0  0.55477  0.70930  0.74010  1.0000
  C   C2371     1.0  0.59305  0.72351  0.73440  1.0000
  C   C2372     1.0  0.51001  0.73886  0.63036  1.0000
  H   H4061     1.0  0.67062  0.98796  0.78943  1.0000
  H   H4062     1.0  0.67848  0.69126  0.88742  1.0000
  H   H4063     1.0  0.72210  0.75420  0.73092  1.0000
  H   H4064     1.0  0.52581  0.73156  0.48429  1.0000
  H   H4065     1.0  0.61437  0.94865  0.95360  1.0000
  H   H4066     1.0  0.51577  0.90983  0.81660  1.0000
  C   C2373     1.0  0.72362  0.69515  0.84485  1.0000
  C   C2374     1.0  0.65174  0.66312  0.97607  1.0000
  C   C2375     1.0  0.69622  0.76207  0.73681  1.0000
  H   H4067     1.0  0.69110  0.66990  0.85802  1.0000
  H   H4068     1.0  0.70931  0.78562  0.64135  1.0000
  H   H4069     1.0  0.61503  0.90142  0.97141  1.0000
  H   H4070     1.0  0.50231  0.82382  0.86098  1.0000
  C   C2376     1.0  0.49662  0.80600  0.74289  1.0000
  S   S679      1.0  0.52693  0.66512  0.76212  1.0000
  H   H4071     1.0  0.57256  0.74781  0.68410  1.0000
  C   C2377     1.0  0.49745  0.84583  0.84629  1.0000
  H   H4072     1.0  0.70659  0.92142  0.52248  1.0000
  H   H4073     1.0  0.50466  0.83140  0.77002  1.0000
  H   H4074     1.0  0.49522  0.92984  0.68952  1.0000
  H   H4075     1.0  0.67033  0.95756  0.74622  1.0000
  C   C2378     1.0  0.51113  0.83183  0.92641  1.0000
  H   H4076     1.0  0.50831  0.85060  0.83040  1.0000
  H   H4077     1.0  0.51632  0.95132  0.68904  1.0000
  C   C2379     1.0  0.59813  0.71434  0.75891  1.0000
  C   C2380     1.0  0.71830  0.92009  0.51398  1.0000
  H   H4078     1.0  0.60248  0.84275  0.52592  1.0000
  S   S680      1.0  0.61051  0.98084  0.92361  1.0000
  H   H4079     1.0  0.69070  0.69493  0.85331  1.0000
  C   C2381     1.0  0.72154  0.73130  0.78179  1.0000
  H   H4080     1.0  0.57397  0.68087  0.70340  1.0000
  C   C2382     1.0  0.69782  0.73135  0.72469  1.0000
  S   S681      1.0  0.72020  0.75962  0.79234  1.0000
  H   H4081     1.0  0.49894  0.81880  0.73570  1.0000
  C   C2383     1.0  0.51421  0.92456  0.86118  1.0000
  C   C2384     1.0  0.49411  0.85945  0.92347  1.0000
  H   H4082     1.0  0.51000  0.96131  0.58571  1.0000
  H   H4083     1.0  0.52493  0.95357  0.65168  1.0000
  C   C2385     1.0  0.50007  0.95968  0.62987  1.0000
  H   H4084     1.0  0.69578  0.97027  0.70238  1.0000
  H   H4085     1.0  0.51137  0.97347  0.67345  1.0000
  C   C2386     1.0  0.69340  0.72331  0.87857  1.0000
  C   C2387     1.0  0.70878  0.77416  0.65527  1.0000
  H   H4086     1.0  0.72419  0.94035  0.61680  1.0000
  C   C2388     1.0  0.60966  0.91130  0.96761  1.0000
  C   C2389     1.0  0.48469  0.90060  0.65762  1.0000
  H   H4087     1.0  0.51276  0.93762  0.80663  1.0000
  C   C2390     1.0  0.66251  0.86669  0.52843  1.0000
  H   H4088     1.0  0.49201  0.80564  0.96177  1.0000
  C   C2391     1.0  0.59108  0.66695  0.76772  1.0000
  C   C2392     1.0  0.72641  0.90753  0.66084  1.0000
  C   C2393     1.0  0.49925  0.97390  0.67570  1.0000
  H   H4089     1.0  0.50765  0.80263  0.73807  1.0000
  H   H4090     1.0  0.50937  0.88890  0.86512  1.0000
  H   H4091     1.0  0.55798  0.94676  0.85678  1.0000
  Fe  Fe336     1.0  0.63288  0.66636  0.81123  1.0000
  C   C2394     1.0  0.72275  0.91675  0.63820  1.0000
  C   C2395     1.0  0.57135  0.69210  0.70486  1.0000
  H   H4092     1.0  0.62482  0.86486  0.49510  1.0000
  H   H4093     1.0  0.68245  0.71749  0.87486  1.0000
  H   H4094     1.0  0.70781  0.70342  0.92315  1.0000
  H   H4095     1.0  0.73177  0.80568  0.71010  1.0000
  H   H4096     1.0  0.61359  0.91740  0.94466  1.0000
  H   H4097     1.0  0.60109  0.70362  0.75516  1.0000
  H   H4098     1.0  0.57218  0.69174  0.77629  1.0000
  N   N167      1.0  0.58426  0.85592  0.67006  1.0000
  C   C2396     1.0  0.57215  0.86307  0.66012  1.0000
  C   C2397     1.0  0.58031  0.85266  0.70190  1.0000
  C   C2398     1.0  0.58341  0.84092  0.66145  1.0000
  C   C2399     1.0  0.59973  0.86730  0.65597  1.0000
  C   C2400     1.0  0.57194  0.86443  0.62888  1.0000
  C   C2401     1.0  0.57991  0.86689  0.71380  1.0000
  C   C2402     1.0  0.59038  0.82883  0.67735  1.0000
  C   C2403     1.0  0.61382  0.86372  0.66583  1.0000
  H   H4099     1.0  0.56046  0.85631  0.67308  1.0000
  H   H4100     1.0  0.57329  0.87498  0.66305  1.0000
  H   H4101     1.0  0.58824  0.84679  0.71122  1.0000
  H   H4102     1.0  0.56883  0.84427  0.71131  1.0000
  H   H4103     1.0  0.57118  0.83472  0.66437  1.0000
  H   H4104     1.0  0.58890  0.84327  0.63849  1.0000
  H   H4105     1.0  0.60269  0.86854  0.63278  1.0000
  H   H4106     1.0  0.59942  0.87927  0.65735  1.0000
  H   H4107     1.0  0.56312  0.87062  0.62407  1.0000
  H   H4108     1.0  0.58311  0.87116  0.61392  1.0000
  H   H4109     1.0  0.56844  0.85288  0.62485  1.0000
  H   H4110     1.0  0.57020  0.87186  0.70986  1.0000
  H   H4111     1.0  0.57787  0.86316  0.73718  1.0000
  H   H4112     1.0  0.59095  0.87596  0.70541  1.0000
  H   H4113     1.0  0.58333  0.82352  0.69949  1.0000
  H   H4114     1.0  0.60248  0.83351  0.67710  1.0000
  H   H4115     1.0  0.59022  0.81924  0.66679  1.0000
  H   H4116     1.0  0.61937  0.85669  0.65335  1.0000
  H   H4117     1.0  0.61138  0.85801  0.68860  1.0000
  H   H4118     1.0  0.62249  0.87481  0.66255  1.0000
  N   N168      1.0  0.70553  0.76131  0.70869  1.0000
  C   C2404     1.0  0.70499  0.77505  0.68628  1.0000
  H   H4119     1.0  0.50333  0.93054  0.65394  1.0000
  H   H4120     1.0  0.72491  0.82740  0.74040  1.0000
  H   H4121     1.0  0.70923  0.71735  0.84776  1.0000
  H   H4122     1.0  0.70326  0.74525  0.68211  1.0000
  H   H4123     1.0  0.71604  0.68065  0.88728  1.0000
  H   H4124     1.0  0.69292  0.72114  0.71757  1.0000
  H   H4125     1.0  0.57176  0.69843  0.68305  1.0000
  H   H4126     1.0  0.71301  0.78577  0.68695  1.0000
  C   C2405     1.0  0.72685  0.91941  0.53764  1.0000
  C   C2406     1.0  0.49445  0.82461  0.78773  1.0000
  S   S682      1.0  0.60442  0.97977  0.84964  1.0000
  H   H4127     1.0  0.58784  0.72835  0.68173  1.0000
  H   H4128     1.0  0.51795  0.81235  0.76965  1.0000
  N   N169      1.0  0.52779  0.92108  0.84330  1.0000
  H   H4129     1.0  0.52050  0.93142  0.77648  1.0000
  N   N170      1.0  0.64291  0.85404  0.50379  1.0000
  H   H4130     1.0  0.52990  0.90609  0.88153  1.0000
  H   H4131     1.0  0.56502  0.74027  0.72146  1.0000
  H   H4132     1.0  0.54351  0.90671  0.85018  1.0000
  H   H4133     1.0  0.71932  0.90992  0.55610  1.0000
  C   C2407     1.0  0.64595  0.83841  0.51395  1.0000
  H   H4134     1.0  0.51123  0.79398  0.79480  1.0000
  C   C2408     1.0  0.54828  0.93614  0.86349  1.0000
  H   H4135     1.0  0.51759  0.82317  0.93311  1.0000
  H   H4136     1.0  0.73077  0.89372  0.53219  1.0000
  H   H4137     1.0  0.52341  0.86040  0.93331  1.0000
  C   C2409     1.0  0.53127  0.90657  0.85869  1.0000
  C   C2410     1.0  0.50144  0.93800  0.66852  1.0000
  S   S683      1.0  0.71843  0.87132  0.58620  1.0000
  S   S684      1.0  0.49002  0.72127  0.52397  1.0000
  C   C2411     1.0  0.52193  0.89085  0.85714  1.0000
  H   H4138     1.0  0.67119  0.87453  0.50931  1.0000
  H   H4139     1.0  0.69117  0.93325  0.79174  1.0000
  C   C2412     1.0  0.48411  0.66756  0.93808  1.0000
  H   H4140     1.0  0.63396  0.82831  0.48423  1.0000
  N   N171      1.0  0.49436  0.80765  0.79448  1.0000
  C   C2413     1.0  0.48689  0.85483  0.84979  1.0000
  C   C2414     1.0  0.72093  0.82796  0.65717  1.0000
  H   H4141     1.0  0.70469  0.67403  0.93247  1.0000
  H   H4142     1.0  0.69752  0.78705  0.73089  1.0000
  H   H4143     1.0  0.48842  0.72675  0.60117  1.0000
  C   C2415     1.0  0.48801  0.95800  0.67987  1.0000
  C   C2416     1.0  0.57578  0.65893  0.77062  1.0000
  H   H4144     1.0  0.72754  0.75106  0.67517  1.0000
  H   H4145     1.0  0.49317  0.96802  0.62409  1.0000
  H   H4146     1.0  0.59357  0.94809  0.93210  1.0000
  H   H4147     1.0  0.52422  0.86865  0.97509  1.0000
  H   H4148     1.0  0.72902  0.84780  0.73479  1.0000
  H   H4149     1.0  0.59955  0.95389  0.97541  1.0000
  H   H4150     1.0  0.64691  0.81834  0.49705  1.0000
  H   H4151     1.0  0.70957  0.73070  0.72621  1.0000
  H   H4152     1.0  0.72692  0.93032  0.54418  1.0000
  H   H4153     1.0  0.72897  0.70754  0.83350  1.0000
  H   H4154     1.0  0.72332  0.89505  0.66457  1.0000
  H   H4155     1.0  0.48520  0.84613  0.96707  1.0000
  C   C2417     1.0  0.62306  0.98588  0.94445  1.0000
  H   H4156     1.0  0.48479  0.86520  0.92941  1.0000
  H   H4157     1.0  0.72408  0.93020  0.49552  1.0000
  H   H4158     1.0  0.49053  0.80445  0.83988  1.0000
  C   C2418     1.0  0.63834  0.82492  0.50297  1.0000
  C   C2419     1.0  0.61678  0.98654  0.97211  1.0000
  H   H4159     1.0  0.72522  0.83512  0.76989  1.0000
  C   C2420     1.0  0.51434  0.85884  0.97699  1.0000
  C   C2421     1.0  0.48544  0.79932  0.82462  1.0000
  H   H4160     1.0  0.52341  0.75674  0.48482  1.0000
  C   C2422     1.0  0.72183  0.76205  0.71078  1.0000
  C   C2423     1.0  0.60282  0.94378  0.96893  1.0000
  H   H4161     1.0  0.59715  0.90589  0.97335  1.0000
  H   H4162     1.0  0.53334  0.78156  0.48733  1.0000
  C   C2424     1.0  0.48843  0.81131  0.97866  1.0000
  S   S685      1.0  0.48253  0.65807  0.79359  1.0000
  C   C2425     1.0  0.70855  0.98874  0.76550  1.0000
  H   H4163     1.0  0.89428  0.05793  0.99509  1.0000
  S   S686      1.0  0.75250  0.22423  0.21167  1.0000
  C   C2426     1.0  0.76897  0.26882  0.34002  1.0000
  Fe  Fe337     1.0  0.76177  0.18968  0.25824  1.0000
  S   S687      1.0  0.76937  0.19579  0.21069  1.0000
  S   S688      1.0  0.76680  0.17017  0.28853  1.0000
  Fe  Fe338     1.0  0.77554  0.22040  0.21389  1.0000
  S   S689      1.0  0.79792  0.23716  0.18703  1.0000
  C   C2427     1.0  0.76382  0.27607  0.36453  1.0000
  C   C2428     1.0  0.78730  0.00547  0.06981  1.0000
  S   S690      1.0  0.76987  0.21412  0.26127  1.0000
  H   H4164     1.0  0.77800  0.27381  0.05794  1.0000
  H   H4165     1.0  0.84355  0.19476  0.26362  1.0000
  S   S691      1.0  0.95701  0.10507  0.99503  1.0000
  H   H4166     1.0  0.79494  0.27329  0.27558  1.0000
  N   N172      1.0  0.92172  0.30666  0.03333  1.0000
  S   S692      1.0  0.78342  0.00095  0.19537  1.0000
  H   H4167     1.0  0.84514  0.07067  0.08477  1.0000
  S   S693      1.0  0.96711  0.19390  0.13886  1.0000
  Fe  Fe339     1.0  0.96578  0.19133  0.18511  1.0000
  S   S694      1.0  0.94168  0.18568  0.21512  1.0000
  Fe  Fe340     1.0  0.86391  0.11909  0.28483  1.0000
  S   S695      1.0  0.85003  0.09855  0.32163  1.0000
  S   S696      1.0  0.88955  0.12176  0.26586  1.0000
  Fe  Fe341     1.0  0.83615  0.13224  0.28277  1.0000
  S   S697      1.0  0.82054  0.11320  0.31960  1.0000
  S   S698      1.0  0.82962  0.15147  0.25475  1.0000
  Fe  Fe342     1.0  0.84038  0.11614  0.34043  1.0000
  S   S699      1.0  0.83579  0.11854  0.38659  1.0000
  Fe  Fe343     1.0  0.83134  0.09712  0.29792  1.0000
  S   S700      1.0  0.81599  0.07406  0.29586  1.0000
  S   S701      1.0  0.85510  0.13660  0.30457  1.0000
  S   S702      1.0  0.84605  0.11619  0.26014  1.0000
  H   H4168     1.0  0.80450  0.04151  0.14814  1.0000
  H   H4169     1.0  0.74277  0.26886  0.33201  1.0000
  S   S703      1.0  0.95638  0.14610  0.01739  1.0000
  H   H4170     1.0  0.75316  0.11734  0.27227  1.0000
  C   C2429     1.0  0.82455  0.02451  0.13689  1.0000
  C   C2430     1.0  0.84175  0.12370  0.46362  1.0000
  C   C2431     1.0  0.83305  0.05707  0.17432  1.0000
  H   H4171     1.0  0.80426  0.05477  0.09826  1.0000
  S   S704      1.0  0.81333  0.30549  0.20185  1.0000
  C   C2432     1.0  0.84711  0.06741  0.10618  1.0000
  H   H4172     1.0  0.96872  0.26981  0.14993  1.0000
  Fe  Fe344     1.0  0.74615  0.21603  0.25903  1.0000
  H   H4173     1.0  0.81804  0.03423  0.18328  1.0000
  H   H4174     1.0  0.82583  0.12745  0.43793  1.0000
  H   H4175     1.0  0.79079  0.29076  0.30142  1.0000
  H   H4176     1.0  0.85342  0.04698  0.12615  1.0000
  S   S705      1.0  0.73879  0.23509  0.40349  1.0000
  C   C2433     1.0  0.78567  0.26256  0.28672  1.0000
  H   H4177     1.0  0.75124  0.27508  0.36983  1.0000
  C   C2434     1.0  0.79979  0.00407  0.08130  1.0000
  S   S706      1.0  0.79791  0.99987  0.11830  1.0000
  H   H4178     1.0  0.78116  0.26863  0.33903  1.0000
  H   H4179     1.0  0.83236  0.06815  0.44786  1.0000
  C   C2435     1.0  0.81729  0.22743  0.24215  1.0000
  H   H4180     1.0  0.77177  0.08238  0.32342  1.0000
  C   C2436     1.0  0.76732  0.26558  0.07240  1.0000
  H   H4181     1.0  0.76218  0.22208  0.13316  1.0000
  H   H4182     1.0  0.81692  0.06000  0.13288  1.0000
  H   H4183     1.0  0.83377  0.01151  0.16908  1.0000
  H   H4184     1.0  0.90569  0.32106  0.02833  1.0000
  H   H4185     1.0  0.82377  0.00396  0.07182  1.0000
  C   C2437     1.0  0.80928  0.06621  0.26917  1.0000
  C   C2438     1.0  0.81247  0.07486  0.24099  1.0000
  C   C2439     1.0  0.80627  0.06837  0.22111  1.0000
  H   H4186     1.0  0.78231  0.15207  0.32156  1.0000
  C   C2440     1.0  0.79995  0.05088  0.27684  1.0000
  H   H4187     1.0  0.81967  0.08658  0.23455  1.0000
  H   H4188     1.0  0.80866  0.07537  0.19961  1.0000
  H   H4189     1.0  0.79732  0.04401  0.29851  1.0000
  S   S707      1.0  0.77068  0.30682  0.05108  1.0000
  C   C2441     1.0  0.96585  0.16468  0.05100  1.0000
  C   C2442     1.0  0.96508  0.15019  0.04488  1.0000
  H   H4190     1.0  0.76765  0.27020  0.27154  1.0000
  H   H4191     1.0  0.96159  0.17322  0.03841  1.0000
  C   C2443     1.0  0.90387  0.13965  0.25168  1.0000
  C   C2444     1.0  0.91945  0.13949  0.24348  1.0000
  C   C2445     1.0  0.93115  0.15344  0.23190  1.0000
  C   C2446     1.0  0.92740  0.16773  0.22850  1.0000
  C   C2447     1.0  0.91184  0.16788  0.23715  1.0000
  C   C2448     1.0  0.90013  0.15394  0.24850  1.0000
  H   H4192     1.0  0.92249  0.12850  0.24612  1.0000
  H   H4193     1.0  0.94310  0.15315  0.22602  1.0000
  H   H4194     1.0  0.90883  0.17888  0.23486  1.0000
  H   H4195     1.0  0.88821  0.15427  0.25467  1.0000
  C   C2449     1.0  0.86255  0.11362  0.44340  1.0000
  C   C2450     1.0  0.85684  0.11335  0.41921  1.0000
  C   C2451     1.0  0.84360  0.11842  0.41681  1.0000
  C   C2452     1.0  0.83609  0.12351  0.43934  1.0000
  C   C2453     1.0  0.79707  0.05298  0.22870  1.0000
  H   H4196     1.0  0.86259  0.10904  0.40260  1.0000
  C   C2454     1.0  0.79399  0.04429  0.25682  1.0000
  C   C2455     1.0  0.73410  0.23047  0.31626  1.0000
  H   H4197     1.0  0.76557  0.27988  0.10085  1.0000
  H   H4198     1.0  0.84073  0.07315  0.12020  1.0000
  S   S708      1.0  0.74258  0.31293  0.00198  1.0000
  H   H4199     1.0  0.84512  0.06361  0.16342  1.0000
  C   C2456     1.0  0.85506  0.11875  0.46588  1.0000
  C   C2457     1.0  0.77334  0.28089  0.15091  1.0000
  H   H4200     1.0  0.79238  0.28511  0.09726  1.0000
  C   C2458     1.0  0.84379  0.04956  0.11712  1.0000
  H   H4201     1.0  0.78152  0.31054  0.09976  1.0000
  Fe  Fe345     1.0  0.77885  0.00312  0.15216  1.0000
  C   C2459     1.0  0.81571  0.00681  0.03388  1.0000
  H   H4202     1.0  0.84774  0.02043  0.13492  1.0000
  H   H4203     1.0  0.76995  0.28047  0.17376  1.0000
  S   S709      1.0  0.77223  0.02561  0.15123  1.0000
  H   H4204     1.0  0.90507  0.14909  0.40454  1.0000
  C   C2460     1.0  0.77655  0.24581  0.11994  1.0000
  C   C2461     1.0  0.97766  0.15741  0.08971  1.0000
  S   S710      1.0  0.75079  0.00951  0.21542  1.0000
  Fe  Fe346     1.0  0.74809  0.01055  0.17135  1.0000
  H   H4205     1.0  0.97289  0.17963  0.07701  1.0000
  H   H4206     1.0  0.81933  0.21784  0.19256  1.0000
  H   H4207     1.0  0.84484  0.04513  0.09784  1.0000
  C   C2462     1.0  0.92833  0.29479  0.99060  1.0000
  H   H4208     1.0  0.98053  0.13415  0.09702  1.0000
  H   H4209     1.0  0.79230  0.09113  0.31596  1.0000
  H   H4210     1.0  0.75331  0.21953  0.36549  1.0000
  S   S711      1.0  0.80409  0.00794  0.98657  1.0000
  Fe  Fe347     1.0  0.76477  0.30766  0.00866  1.0000
  C   C2463     1.0  0.80230  0.25569  0.19303  1.0000
  C   C2464     1.0  0.79109  0.26104  0.20892  1.0000
  C   C2465     1.0  0.79459  0.27632  0.21149  1.0000
  C   C2466     1.0  0.80932  0.28629  0.19852  1.0000
  C   C2467     1.0  0.82061  0.28075  0.18330  1.0000
  C   C2468     1.0  0.81711  0.26552  0.18054  1.0000
  H   H4211     1.0  0.77962  0.25355  0.21853  1.0000
  H   H4212     1.0  0.78576  0.28055  0.22296  1.0000
  H   H4213     1.0  0.83209  0.28819  0.17374  1.0000
  H   H4214     1.0  0.82584  0.26144  0.16828  1.0000
  C   C2469     1.0  0.78387  0.16436  0.27879  1.0000
  C   C2470     1.0  0.79257  0.16872  0.25065  1.0000
  C   C2471     1.0  0.80659  0.16467  0.24363  1.0000
  C   C2472     1.0  0.81189  0.15606  0.26462  1.0000
  C   C2473     1.0  0.80302  0.15135  0.29269  1.0000
  C   C2474     1.0  0.78903  0.15550  0.29974  1.0000
  H   H4215     1.0  0.78850  0.17522  0.23432  1.0000
  H   H4216     1.0  0.81331  0.16812  0.22181  1.0000
  H   H4217     1.0  0.80704  0.14471  0.30900  1.0000
  N   N173      1.0  0.82848  0.04121  0.13809  1.0000
  H   H4218     1.0  0.80427  0.20193  0.21674  1.0000
  H   H4219     1.0  0.76234  0.25644  0.34703  1.0000
  N   N174      1.0  0.77654  0.26253  0.11827  1.0000
  H   H4220     1.0  0.87276  0.10961  0.44491  1.0000
  H   H4221     1.0  0.75763  0.26856  0.06409  1.0000
  H   H4222     1.0  0.82939  0.24424  0.26114  1.0000
  H   H4223     1.0  0.77024  0.28833  0.36031  1.0000
  H   H4224     1.0  0.81001  0.23404  0.28216  1.0000
  N   N175      1.0  0.78159  0.10938  0.27297  1.0000
  C   C2475     1.0  0.77871  0.12464  0.25947  1.0000
  C   C2476     1.0  0.79846  0.11050  0.26149  1.0000
  C   C2477     1.0  0.77832  0.10760  0.30447  1.0000
  C   C2478     1.0  0.77101  0.09651  0.26618  1.0000
  C   C2479     1.0  0.76274  0.12720  0.27118  1.0000
  C   C2480     1.0  0.80413  0.11414  0.22900  1.0000
  C   C2481     1.0  0.78062  0.09281  0.32271  1.0000
  C   C2482     1.0  0.77579  0.08108  0.26766  1.0000
  H   H4225     1.0  0.78740  0.13448  0.26130  1.0000
  H   H4226     1.0  0.78005  0.12620  0.23634  1.0000
  H   H4227     1.0  0.80175  0.09983  0.27030  1.0000
  H   H4228     1.0  0.80572  0.11973  0.26810  1.0000
  H   H4229     1.0  0.78556  0.11773  0.30891  1.0000
  H   H4230     1.0  0.76616  0.10748  0.31348  1.0000
  H   H4231     1.0  0.75917  0.09375  0.28027  1.0000
  H   H4232     1.0  0.76986  0.10042  0.24421  1.0000
  C   C2483     1.0  0.97659  0.14280  0.08401  1.0000
  H   H4233     1.0  0.74168  0.26870  0.28417  1.0000
  H   H4234     1.0  0.85955  0.07262  0.10333  1.0000
  H   H4235     1.0  0.81605  0.11275  0.22336  1.0000
  H   H4236     1.0  0.79686  0.10621  0.22014  1.0000
  H   H4237     1.0  0.80482  0.12638  0.21871  1.0000
  C   C2484     1.0  0.81403  0.00496  0.06315  1.0000
  C   C2485     1.0  0.90924  0.31380  0.04546  1.0000
  H   H4238     1.0  0.77914  0.09373  0.34485  1.0000
  H   H4239     1.0  0.77218  0.30916  0.27082  1.0000
  H   H4240     1.0  0.78355  0.07880  0.28132  1.0000
  H   H4241     1.0  0.78097  0.08026  0.24610  1.0000
  H   H4242     1.0  0.77627  0.00479  0.08353  1.0000
  H   H4243     1.0  0.78592  0.25470  0.27252  1.0000
  H   H4244     1.0  0.81274  0.01833  0.15043  1.0000
  C   C2486     1.0  0.79239  0.27264  0.10234  1.0000
  H   H4245     1.0  0.75362  0.23550  0.11470  1.0000
  H   H4246     1.0  0.78816  0.25648  0.30625  1.0000
  H   H4247     1.0  0.96975  0.12794  0.05771  1.0000
  H   H4248     1.0  0.75109  0.21728  0.31769  1.0000
  C   C2487     1.0  0.93585  0.31980  0.01828  1.0000
  H   H4249     1.0  0.83260  0.00356  0.13983  1.0000
  H   H4250     1.0  0.77934  0.25905  0.16093  1.0000
  C   C2488     1.0  0.82652  0.20592  0.22882  1.0000
  H   H4251     1.0  0.82495  0.06408  0.16931  1.0000
  H   H4252     1.0  0.80650  0.25877  0.12215  1.0000
  Fe  Fe348     1.0  0.74550  0.19899  0.21245  1.0000
  C   C2489     1.0  0.79978  0.20359  0.30139  1.0000
  H   H4253     1.0  0.81313  0.24884  0.25042  1.0000
  H   H4254     1.0  0.79222  0.30902  0.26086  1.0000
  C   C2490     1.0  0.81216  0.04733  0.10273  1.0000
  H   H4255     1.0  0.90525  0.16484  0.37663  1.0000
  C   C2491     1.0  0.80308  0.00760  0.02252  1.0000
  S   S712      1.0  0.78993  0.04538  0.20211  1.0000
  C   C2492     1.0  0.83888  0.20022  0.28017  1.0000
  C   C2493     1.0  0.75108  0.27878  0.31535  1.0000
  C   C2494     1.0  0.77907  0.29199  0.30035  1.0000
  H   H4256     1.0  0.75306  0.26110  0.11506  1.0000
  H   H4257     1.0  0.76531  0.07124  0.27611  1.0000
  H   H4258     1.0  0.78341  0.24170  0.13461  1.0000
  H   H4259     1.0  0.79338  0.19231  0.31688  1.0000
  C   C2495     1.0  0.78900  0.31602  0.05424  1.0000
  H   H4260     1.0  0.84826  0.20354  0.29038  1.0000
  H   H4261     1.0  0.76096  0.25452  0.30187  1.0000
  H   H4262     1.0  0.82669  0.00731  0.02020  1.0000
  H   H4263     1.0  0.77675  0.29968  0.31436  1.0000
  N   N176      1.0  0.93031  0.15013  0.14603  1.0000
  C   C2496     1.0  0.92744  0.16527  0.13186  1.0000
  C   C2497     1.0  0.93411  0.14184  0.12342  1.0000
  C   C2498     1.0  0.94420  0.15416  0.15736  1.0000
  C   C2499     1.0  0.91620  0.14104  0.16954  1.0000
  C   C2500     1.0  0.92356  0.17591  0.15114  1.0000
  C   C2501     1.0  0.92154  0.13789  0.10793  1.0000
  C   C2502     1.0  0.94986  0.14061  0.17205  1.0000
  C   C2503     1.0  0.91403  0.12330  0.17983  1.0000
  H   H4264     1.0  0.93760  0.17220  0.11403  1.0000
  H   H4265     1.0  0.91756  0.16315  0.12227  1.0000
  H   H4266     1.0  0.93709  0.13089  0.13162  1.0000
  H   H4267     1.0  0.94467  0.14895  0.10691  1.0000
  H   H4268     1.0  0.95414  0.16178  0.13992  1.0000
  H   H4269     1.0  0.94209  0.16088  0.17318  1.0000
  H   H4270     1.0  0.91587  0.14578  0.18833  1.0000
  H   H4271     1.0  0.90560  0.14256  0.16289  1.0000
  H   H4272     1.0  0.91349  0.17000  0.16950  1.0000
  H   H4273     1.0  0.93348  0.18088  0.15872  1.0000
  H   H4274     1.0  0.92056  0.18596  0.13866  1.0000
  H   H4275     1.0  0.91000  0.13238  0.12269  1.0000
  H   H4276     1.0  0.92109  0.14834  0.09234  1.0000
  H   H4277     1.0  0.92451  0.12964  0.09552  1.0000
  H   H4278     1.0  0.95319  0.13330  0.15797  1.0000
  H   H4279     1.0  0.94139  0.13357  0.19207  1.0000
  H   H4280     1.0  0.96047  0.14551  0.17800  1.0000
  H   H4281     1.0  0.90965  0.11960  0.20329  1.0000
  H   H4282     1.0  0.92449  0.11915  0.17466  1.0000
  H   H4283     1.0  0.90493  0.11698  0.17177  1.0000
  C   C2504     1.0  0.91599  0.29755  0.01394  1.0000
  C   C2505     1.0  0.78028  0.30160  0.27030  1.0000
  H   H4284     1.0  0.83814  0.03553  0.17398  1.0000
  H   H4285     1.0  0.78522  0.28842  0.14235  1.0000
  Fe  Fe349     1.0  0.77561  0.02287  0.19553  1.0000
  N   N177      1.0  0.89354  0.14670  0.34430  1.0000
  C   C2506     1.0  0.89233  0.13484  0.32732  1.0000
  C   C2507     1.0  0.90289  0.16197  0.32386  1.0000
  C   C2508     1.0  0.87745  0.14805  0.35578  1.0000
  C   C2509     1.0  0.90073  0.14125  0.36792  1.0000
  C   C2510     1.0  0.88279  0.11819  0.34360  1.0000
  C   C2511     1.0  0.91963  0.16251  0.30934  1.0000
  C   C2512     1.0  0.87562  0.15878  0.37549  1.0000
  C   C2513     1.0  0.90840  0.15368  0.38111  1.0000
  H   H4286     1.0  0.88734  0.13868  0.30936  1.0000
  H   H4287     1.0  0.90389  0.13358  0.31755  1.0000
  H   H4288     1.0  0.90342  0.17171  0.33387  1.0000
  H   H4289     1.0  0.89719  0.16522  0.30658  1.0000
  H   H4290     1.0  0.87230  0.15199  0.33810  1.0000
  H   H4291     1.0  0.86973  0.13664  0.36838  1.0000
  H   H4292     1.0  0.89197  0.13214  0.38552  1.0000
  H   H4293     1.0  0.90984  0.13552  0.36032  1.0000
  H   H4294     1.0  0.88431  0.11044  0.32940  1.0000
  H   H4295     1.0  0.88664  0.11345  0.36246  1.0000
  H   H4296     1.0  0.87028  0.11739  0.34958  1.0000
  H   H4297     1.0  0.92008  0.15600  0.29294  1.0000
  H   H4298     1.0  0.92593  0.17473  0.29802  1.0000
  H   H4299     1.0  0.92599  0.15815  0.32455  1.0000
  H   H4300     1.0  0.88240  0.17091  0.36534  1.0000
  H   H4301     1.0  0.87832  0.15418  0.39578  1.0000
  H   H4302     1.0  0.86331  0.15904  0.38115  1.0000
  H   H4303     1.0  0.92114  0.15591  0.37458  1.0000
  C   C2514     1.0  0.83547  0.01467  0.14577  1.0000
  H   H4304     1.0  0.88963  0.29302  0.05630  1.0000
  H   H4305     1.0  0.90828  0.28603  0.02654  1.0000
  C   C2515     1.0  0.82919  0.04117  0.16798  1.0000
  H   H4306     1.0  0.76545  0.28641  0.14071  1.0000
  H   H4307     1.0  0.82932  0.19153  0.29677  1.0000
  H   H4308     1.0  0.76138  0.13769  0.25689  1.0000
  H   H4309     1.0  0.92383  0.03457  0.01442  1.0000
  C   C2516     1.0  0.80536  0.27085  0.11714  1.0000
  H   H4310     1.0  0.79153  0.21084  0.29887  1.0000
  H   H4311     1.0  0.78694  0.03248  0.26324  1.0000
  C   C2517     1.0  0.74117  0.31387  0.44359  1.0000
  H   H4312     1.0  0.80618  0.03543  0.10298  1.0000
  C   C2518     1.0  0.77217  0.26419  0.14804  1.0000
  C   C2519     1.0  0.96313  0.06570  0.00188  1.0000
  C   C2520     1.0  0.76508  0.26741  0.10286  1.0000
  C   C2521     1.0  0.74536  0.22472  0.35592  1.0000
  C   C2522     1.0  0.97052  0.13925  0.06163  1.0000
  H   H4313     1.0  0.84433  0.22334  0.25249  1.0000
  Fe  Fe350     1.0  0.95857  0.13068  0.98615  1.0000
  C   C2523     1.0  0.83394  0.21487  0.26775  1.0000
  H   H4314     1.0  0.75028  0.28923  0.32320  1.0000
  H   H4315     1.0  0.83117  0.22030  0.28534  1.0000
  N   N178      1.0  0.76723  0.27658  0.31138  1.0000
  C   C2524     1.0  0.81747  0.23909  0.26044  1.0000
  N   N179      1.0  0.82098  0.21227  0.25358  1.0000
  H   H4316     1.0  0.82440  0.02382  0.11499  1.0000
  H   H4317     1.0  0.81994  0.19835  0.19345  1.0000
  H   H4318     1.0  0.97014  0.05759  0.00747  1.0000
  C   C2525     1.0  0.76964  0.26588  0.29256  1.0000
  H   H4319     1.0  0.79732  0.19908  0.26238  1.0000
  H   H4320     1.0  0.82710  0.19370  0.23625  1.0000
  H   H4321     1.0  0.80876  0.18865  0.27793  1.0000
  H   H4322     1.0  0.76010  0.25753  0.15900  1.0000
  H   H4323     1.0  0.83850  0.21251  0.21670  1.0000
  C   C2526     1.0  0.81681  0.20606  0.20694  1.0000
  C   C2527     1.0  0.81539  0.04785  0.13168  1.0000
  H   H4324     1.0  0.78235  0.24445  0.09910  1.0000
  H   H4325     1.0  0.83200  0.05520  0.19741  1.0000
  H   H4326     1.0  0.80576  0.22521  0.23771  1.0000
  H   H4327     1.0  0.82563  0.23399  0.22144  1.0000
  H   H4328     1.0  0.82275  0.05160  0.08507  1.0000
  H   H4329     1.0  0.77913  0.00787  0.03193  1.0000
  C   C2528     1.0  0.80681  0.20047  0.27307  1.0000
  H   H4330     1.0  0.80839  0.20883  0.31144  1.0000
  H   H4331     1.0  0.79610  0.27024  0.08143  1.0000
  H   H4332     1.0  0.92400  0.28321  0.98731  1.0000
  H   H4333     1.0  0.76173  0.12967  0.29221  1.0000
  H   H4334     1.0  0.77840  0.29455  0.25534  1.0000
  H   H4335     1.0  0.80376  0.27489  0.13664  1.0000
  H   H4336     1.0  0.90877  0.30363  0.00247  1.0000
  S   S713      1.0  0.97060  0.32199  0.04107  1.0000
  H   H4337     1.0  0.89586  0.29763  0.08656  1.0000
  H   H4338     1.0  0.76734  0.25360  0.07122  1.0000
  C   C2529     1.0  0.78895  0.00719  0.04055  1.0000
  S   S714      1.0  0.88797  0.32134  0.13263  1.0000
  H   H4339     1.0  0.81651  0.27827  0.10278  1.0000
  H   H4340     1.0  0.92874  0.30316  0.07251  1.0000
  H   H4341     1.0  0.91471  0.28708  0.07064  1.0000
  H   H4342     1.0  0.95157  0.06160  0.01703  1.0000
  C   C2530     1.0  0.74417  0.28001  0.28955  1.0000
  H   H4343     1.0  0.94865  0.29524  0.03710  1.0000
  H   H4344     1.0  0.94570  0.31568  0.00882  1.0000
  H   H4345     1.0  0.93976  0.28156  0.07035  1.0000
  C   C2531     1.0  0.92516  0.29631  0.05783  1.0000
  H   H4346     1.0  0.93084  0.05507  0.99870  1.0000
  C   C2532     1.0  0.93007  0.04356  0.99437  1.0000
  C   C2533     1.0  0.73634  0.23268  0.37060  1.0000
  H   H4347     1.0  0.95070  0.03769  0.00181  1.0000
  C   C2534     1.0  0.83528  0.06779  0.46845  1.0000
  C   C2535     1.0  0.76059  0.23402  0.13027  1.0000
  C   C2536     1.0  0.94608  0.04094  0.98321  1.0000
  C   C2537     1.0  0.89425  0.30248  0.06536  1.0000
  H   H4348     1.0  0.76612  0.26951  0.38396  1.0000
  H   H4349     1.0  0.81706  0.07960  0.47405  1.0000
  C   C2538     1.0  0.74417  0.22351  0.32884  1.0000
  C   C2539     1.0  0.97222  0.16835  0.07300  1.0000
  C   C2540     1.0  0.73962  0.30930  0.47278  1.0000
  C   C2541     1.0  0.97731  0.25479  0.12604  1.0000
  S   S715      1.0  0.76160  0.28735  0.98951  1.0000
  S   S716      1.0  0.73249  0.22967  0.28221  1.0000
  C   C2542     1.0  0.93747  0.28754  0.05041  1.0000
  H   H4350     1.0  0.75148  0.28914  0.27067  1.0000
  H   H4351     1.0  0.93332  0.27837  0.04030  1.0000
  S   S717      1.0  0.73729  0.19105  0.25997  1.0000
  S   S718      1.0  0.84485  0.31687  0.12926  1.0000
  S   S719      1.0  0.97758  0.30032  0.11183  1.0000
  H   H4352     1.0  0.75389  0.23453  0.15098  1.0000
  H   H4353     1.0  0.97327  0.24458  0.14381  1.0000
  H   H4354     1.0  0.88532  0.30900  0.06905  1.0000
  C   C2543     1.0  0.97474  0.26906  0.12946  1.0000
  C   C2544     1.0  0.98009  0.28241  0.10657  1.0000
  H   H4355     1.0  0.93963  0.29492  0.99512  1.0000
  H   H4356     1.0  0.96875  0.07688  0.00529  1.0000
  H   H4357     1.0  0.97411  0.03508  0.98780  1.0000
  H   H4358     1.0  0.84798  0.07253  0.46283  1.0000
  H   H4359     1.0  0.91826  0.31678  0.12725  1.0000
  C   C2545     1.0  0.79108  0.31607  0.08133  1.0000
  H   H4360     1.0  0.83526  0.08998  0.47553  1.0000
  H   H4361     1.0  0.91365  0.32179  0.05750  1.0000
  H   H4362     1.0  0.73293  0.28293  0.29509  1.0000
  Fe  Fe351     1.0  0.75423  0.20882  0.62192  1.0000
  S   S720      1.0  0.74197  0.21924  0.65347  1.0000
  S   S721      1.0  0.75362  0.21323  0.57600  1.0000
  Fe  Fe352     1.0  0.76796  0.19120  0.66451  1.0000
  S   S722      1.0  0.75653  0.20018  0.69993  1.0000
  S   S723      1.0  0.78253  0.17429  0.67354  1.0000
  H   H4363     1.0  0.84941  0.08587  0.53547  1.0000
  H   H4364     1.0  0.74361  0.27402  0.57184  1.0000
  Fe  Fe353     1.0  0.76393  0.22324  0.66746  1.0000
  S   S724      1.0  0.77156  0.24680  0.67591  1.0000
  S   S725      1.0  0.74630  0.18457  0.65053  1.0000
  S   S726      1.0  0.77684  0.21467  0.63322  1.0000
  H   H4365     1.0  0.76392  0.03634  0.63164  1.0000
  H   H4366     1.0  0.73808  0.04830  0.66573  1.0000
  S   S727      1.0  0.95420  0.30741  0.81788  1.0000
  S   S728      1.0  0.79176  0.01435  0.64781  1.0000
  Fe  Fe354     1.0  0.83644  0.13973  0.57537  1.0000
  S   S729      1.0  0.86131  0.14540  0.55085  1.0000
  S   S730      1.0  0.82372  0.15854  0.57014  1.0000
  Fe  Fe355     1.0  0.83531  0.10600  0.60186  1.0000
  S   S731      1.0  0.86006  0.10939  0.57905  1.0000
  S   S732      1.0  0.82087  0.08539  0.63886  1.0000
  Fe  Fe356     1.0  0.86513  0.13211  0.59132  1.0000
  S   S733      1.0  0.88302  0.13676  0.61725  1.0000
  Fe  Fe357     1.0  0.85408  0.12248  0.54041  1.0000
  C   C2546     1.0  0.91081  0.07057  0.95553  1.0000
  S   S734      1.0  0.84061  0.12790  0.61594  1.0000
  S   S735      1.0  0.82899  0.11762  0.56298  1.0000
  Fe  Fe358     1.0  0.94325  0.19502  0.67906  1.0000
  S   S736      1.0  0.92746  0.19138  0.64884  1.0000
  S   S737      1.0  0.93456  0.19960  0.72140  1.0000
  Fe  Fe359     1.0  0.96527  0.13411  0.92165  1.0000
  S   S738      1.0  0.98046  0.13716  0.95146  1.0000
  Fe  Fe360     1.0  0.85915  0.01757  0.92460  1.0000
  S   S739      1.0  0.83768  0.02338  0.91428  1.0000
  S   S740      1.0  0.88212  0.03654  0.91588  1.0000
  Fe  Fe361     1.0  0.83523  0.00351  0.89342  1.0000
  S   S741      1.0  0.83072  0.00434  0.84909  1.0000
  S   S742      1.0  0.85772  0.99889  0.90061  1.0000
  Fe  Fe362     1.0  0.82784  0.31167  0.76315  1.0000
  S   S743      1.0  0.83385  0.28891  0.77474  1.0000
  C   C2547     1.0  0.80476  0.04653  0.51932  1.0000
  S   S744      1.0  0.86370  0.30319  0.71941  1.0000
  Fe  Fe363     1.0  0.83876  0.29054  0.72812  1.0000
  S   S745      1.0  0.83281  0.26865  0.71348  1.0000
  Fe  Fe364     1.0  0.85820  0.30334  0.76504  1.0000
  S   S746      1.0  0.87343  0.29797  0.79412  1.0000
  S   S747      1.0  0.76876  0.00172  0.72969  1.0000
  H   H4367     1.0  0.76423  0.05859  0.71395  1.0000
  H   H4368     1.0  0.90224  0.23838  0.75956  1.0000
  Fe  Fe365     1.0  0.73553  0.19537  0.68326  1.0000
  H   H4369     1.0  0.76103  0.24755  0.54027  1.0000
  C   C2548     1.0  0.73864  0.21992  0.56462  1.0000
  H   H4370     1.0  0.80988  0.99657  0.76804  1.0000
  H   H4371     1.0  0.74587  0.21662  0.52299  1.0000
  H   H4372     1.0  0.75317  0.24897  0.59487  1.0000
  H   H4373     1.0  0.76664  0.07989  0.67190  1.0000
  H   H4374     1.0  0.75715  0.30010  0.54686  1.0000
  H   H4375     1.0  0.96751  0.07995  0.91334  1.0000
  S   S748      1.0  0.79523  0.30133  0.91962  1.0000
  C   C2549     1.0  0.73761  0.22046  0.53687  1.0000
  C   C2550     1.0  0.91483  0.07160  0.92646  1.0000
  C   C2551     1.0  0.90596  0.06117  0.91492  1.0000
  C   C2552     1.0  0.89270  0.04961  0.93196  1.0000
  H   H4376     1.0  0.92482  0.08043  0.91280  1.0000
  H   H4377     1.0  0.90931  0.06215  0.89245  1.0000
  C   C2553     1.0  0.96346  0.15708  0.85301  1.0000
  C   C2554     1.0  0.94919  0.14768  0.85400  1.0000
  C   C2555     1.0  0.94227  0.15099  0.83145  1.0000
  H   H4378     1.0  0.94362  0.13771  0.87188  1.0000
  H   H4379     1.0  0.93139  0.14345  0.83216  1.0000
  C   C2556     1.0  0.89521  0.15221  0.62576  1.0000
  C   C2557     1.0  0.90259  0.14857  0.64752  1.0000
  C   C2558     1.0  0.91238  0.16028  0.65499  1.0000
  C   C2559     1.0  0.91506  0.17592  0.64070  1.0000
  C   C2560     1.0  0.90768  0.17956  0.61892  1.0000
  C   C2561     1.0  0.89788  0.16785  0.61147  1.0000
  H   H4380     1.0  0.90084  0.13658  0.65860  1.0000
  H   H4381     1.0  0.91794  0.15720  0.67170  1.0000
  H   H4382     1.0  0.90978  0.19156  0.60742  1.0000
  H   H4383     1.0  0.89274  0.17089  0.59418  1.0000
  C   C2562     1.0  0.76861  0.05852  0.65830  1.0000
  C   C2563     1.0  0.94949  0.16374  0.80775  1.0000
  S   S749      1.0  0.94123  0.16623  0.77838  1.0000
  S   S750      1.0  0.96495  0.10888  0.92626  1.0000
  H   H4384     1.0  0.93232  0.26382  0.72893  1.0000
  C   C2564     1.0  0.80054  0.03390  0.64566  1.0000
  C   C2565     1.0  0.80082  0.03917  0.66990  1.0000
  C   C2566     1.0  0.80726  0.05493  0.66736  1.0000
  C   C2567     1.0  0.81367  0.06557  0.64060  1.0000
  C   C2568     1.0  0.81366  0.06029  0.61634  1.0000
  C   C2569     1.0  0.80710  0.04453  0.61887  1.0000
  H   H4385     1.0  0.79600  0.03109  0.69062  1.0000
  H   H4386     1.0  0.80719  0.05890  0.68628  1.0000
  H   H4387     1.0  0.81852  0.06841  0.59574  1.0000
  H   H4388     1.0  0.80699  0.04052  0.60002  1.0000
  H   H4389     1.0  0.80211  0.06026  0.54922  1.0000
  N   N180      1.0  0.95729  0.05433  0.96039  1.0000
  H   H4390     1.0  0.79284  0.03929  0.52980  1.0000
  H   H4391     1.0  0.97333  0.07601  0.95723  1.0000
  H   H4392     1.0  0.79697  0.08979  0.52745  1.0000
  S   S751      1.0  0.75362  0.31035  0.93658  1.0000
  C   C2570     1.0  0.90193  0.30819  0.80244  1.0000
  H   H4393     1.0  0.89660  0.30230  0.82454  1.0000
  C   C2571     1.0  0.75987  0.25924  0.49972  1.0000
  C   C2572     1.0  0.96593  0.27004  0.72950  1.0000
  C   C2573     1.0  0.81402  0.30714  0.83637  1.0000
  H   H4394     1.0  0.96463  0.27669  0.70988  1.0000
  C   C2574     1.0  0.76253  0.04689  0.71022  1.0000
  C   C2575     1.0  0.82084  0.08794  0.52526  1.0000
  H   H4395     1.0  0.96863  0.29579  0.87313  1.0000
  S   S752      1.0  0.83096  0.31235  0.71704  1.0000
  H   H4396     1.0  0.87893  0.09218  0.61992  1.0000
  H   H4397     1.0  0.82489  0.30672  0.82351  1.0000
  H   H4398     1.0  0.79910  0.15081  0.67120  1.0000
  H   H4399     1.0  0.88966  0.10047  0.68111  1.0000
  C   C2576     1.0  0.81623  0.26320  0.70136  1.0000
  C   C2577     1.0  0.80613  0.27271  0.69852  1.0000
  C   C2578     1.0  0.79263  0.26764  0.69019  1.0000
  C   C2579     1.0  0.78908  0.25301  0.68473  1.0000
  C   C2580     1.0  0.79925  0.24355  0.68734  1.0000
  C   C2581     1.0  0.81278  0.24865  0.69556  1.0000
  H   H4400     1.0  0.80869  0.28394  0.70285  1.0000
  H   H4401     1.0  0.78483  0.27502  0.68816  1.0000
  H   H4402     1.0  0.79663  0.23226  0.68321  1.0000
  H   H4403     1.0  0.82054  0.24122  0.69773  1.0000
  C   C2582     1.0  0.79366  0.16974  0.64465  1.0000
  C   C2583     1.0  0.79576  0.17828  0.61681  1.0000
  C   C2584     1.0  0.80496  0.17466  0.59422  1.0000
  C   C2585     1.0  0.81200  0.16239  0.59921  1.0000
  C   C2586     1.0  0.80980  0.15374  0.62705  1.0000
  C   C2587     1.0  0.80075  0.15749  0.64970  1.0000
  H   H4404     1.0  0.79034  0.18773  0.61268  1.0000
  H   H4405     1.0  0.80657  0.18137  0.57274  1.0000
  H   H4406     1.0  0.81502  0.14416  0.63111  1.0000
  N   N181      1.0  0.91737  0.26874  0.76361  1.0000
  C   C2588     1.0  0.91989  0.26075  0.74018  1.0000
  C   C2589     1.0  0.92152  0.28597  0.75026  1.0000
  C   C2590     1.0  0.90081  0.26380  0.78072  1.0000
  C   C2591     1.0  0.92724  0.26449  0.78314  1.0000
  C   C2592     1.0  0.93884  0.29388  0.73797  1.0000
  C   C2593     1.0  0.88880  0.26623  0.76378  1.0000
  C   C2594     1.0  0.92701  0.27245  0.80756  1.0000
  H   H4407     1.0  0.91409  0.26483  0.72359  1.0000
  H   H4408     1.0  0.91687  0.29213  0.76552  1.0000
  H   H4409     1.0  0.91597  0.28870  0.73264  1.0000
  H   H4410     1.0  0.89759  0.25140  0.79292  1.0000
  H   H4411     1.0  0.89909  0.27034  0.79710  1.0000
  H   H4412     1.0  0.92362  0.25183  0.79356  1.0000
  H   H4413     1.0  0.93937  0.26632  0.77132  1.0000
  H   H4414     1.0  0.94511  0.29368  0.75475  1.0000
  H   H4415     1.0  0.94424  0.28874  0.72165  1.0000
  H   H4416     1.0  0.94031  0.30629  0.72746  1.0000
  H   H4417     1.0  0.88880  0.25939  0.74792  1.0000
  H   H4418     1.0  0.89042  0.27867  0.75336  1.0000
  H   H4419     1.0  0.87713  0.26228  0.77866  1.0000
  H   H4420     1.0  0.91776  0.26547  0.82669  1.0000
  H   H4421     1.0  0.92547  0.28434  0.80217  1.0000
  H   H4422     1.0  0.93833  0.27372  0.81283  1.0000
  H   H4423     1.0  0.81812  0.08514  0.54883  1.0000
  C   C2595     1.0  0.97051  0.17001  0.82959  1.0000
  H   H4424     1.0  0.81075  0.10770  0.52128  1.0000
  H   H4425     1.0  0.79768  0.06741  0.51661  1.0000
  H   H4426     1.0  0.82016  0.30050  0.87573  1.0000
  H   H4427     1.0  0.75584  0.01640  0.64912  1.0000
  H   H4428     1.0  0.76890  0.02800  0.67987  1.0000
  H   H4429     1.0  0.77523  0.30882  0.88303  1.0000
  Fe  Fe366     1.0  0.97701  0.20196  0.68467  1.0000
  H   H4430     1.0  0.85746  0.07044  0.52845  1.0000
  H   H4431     1.0  0.78324  0.27295  0.55734  1.0000
  C   C2596     1.0  0.88860  0.04866  0.96100  1.0000
  H   H4432     1.0  0.73258  0.03768  0.70114  1.0000
  C   C2597     1.0  0.80626  0.06245  0.52578  1.0000
  H   H4433     1.0  0.83205  0.09684  0.51756  1.0000
  H   H4434     1.0  0.77405  0.04438  0.70830  1.0000
  H   H4435     1.0  0.97195  0.14980  0.71042  1.0000
  H   H4436     1.0  0.97172  0.28179  0.96869  1.0000
  C   C2598     1.0  0.83321  0.06662  0.52846  1.0000
  H   H4437     1.0  0.96014  0.24654  0.88439  1.0000
  H   H4438     1.0  0.96242  0.25443  0.92401  1.0000
  H   H4439     1.0  0.87765  0.11389  0.67964  1.0000
  H   H4440     1.0  0.82859  0.06256  0.55190  1.0000
  Fe  Fe367     1.0  0.77669  0.99628  0.68822  1.0000
  H   H4441     1.0  0.97798  0.24239  0.88613  1.0000
  H   H4442     1.0  0.77040  0.25452  0.60556  1.0000
  C   C2599     1.0  0.73779  0.06268  0.69409  1.0000
  H   H4443     1.0  0.96242  0.23282  0.76496  1.0000
  H   H4444     1.0  0.83484  0.05606  0.52204  1.0000
  S   S753      1.0  0.86243  0.11798  0.49661  1.0000
  C   C2600     1.0  0.74570  0.26885  0.55356  1.0000
  N   N182      1.0  0.75743  0.04638  0.68351  1.0000
  C   C2601     1.0  0.75770  0.03064  0.67860  1.0000
  C   C2602     1.0  0.80896  0.09636  0.51593  1.0000
  H   H4445     1.0  0.74006  0.03824  0.74233  1.0000
  H   H4446     1.0  0.83293  0.09553  0.68230  1.0000
  C   C2603     1.0  0.81840  0.00043  0.80407  1.0000
  H   H4447     1.0  0.77095  0.24520  0.57770  1.0000
  H   H4448     1.0  0.83217  0.05546  0.48026  1.0000
  H   H4449     1.0  0.95386  0.07601  0.96902  1.0000
  S   S754      1.0  0.95561  0.24472  0.71083  1.0000
  C   C2604     1.0  0.96629  0.28292  0.87883  1.0000
  C   C2605     1.0  0.77026  0.28745  0.52175  1.0000
  H   H4450     1.0  0.76428  0.27036  0.48309  1.0000
  C   C2606     1.0  0.78879  0.31202  0.84044  1.0000
  H   H4451     1.0  0.85417  0.08375  0.49978  1.0000
  S   S755      1.0  0.80641  0.31688  0.78637  1.0000
  H   H4452     1.0  0.94352  0.27875  0.87103  1.0000
  S   S756      1.0  0.97345  0.15271  0.87937  1.0000
  H   H4453     1.0  0.76791  0.27798  0.57851  1.0000
  H   H4454     1.0  0.88249  0.10649  0.71145  1.0000
  H   H4455     1.0  0.98112  0.12514  0.80484  1.0000
  H   H4456     1.0  0.83829  0.11986  0.69384  1.0000
  H   H4457     1.0  0.96365  0.12621  0.82639  1.0000
  C   C2607     1.0  0.89302  0.30814  0.78272  1.0000
  H   H4458     1.0  0.78220  0.08248  0.64189  1.0000
  C   C2608     1.0  0.80284  0.31152  0.82351  1.0000
  S   S757      1.0  0.84613  0.00033  0.96647  1.0000
  H   H4459     1.0  0.87023  0.07872  0.70394  1.0000
  C   C2609     1.0  0.94864  0.27649  0.88931  1.0000
  N   N183      1.0  0.78348  0.25268  0.78385  1.0000
  C   C2610     1.0  0.80070  0.25666  0.78030  1.0000
  C   C2611     1.0  0.77919  0.26773  0.77454  1.0000
  C   C2612     1.0  0.77980  0.24222  0.76506  1.0000
  C   C2613     1.0  0.77587  0.24450  0.81458  1.0000
  C   C2614     1.0  0.80832  0.24295  0.78251  1.0000
  C   C2615     1.0  0.78249  0.27955  0.79188  1.0000
  C   C2616     1.0  0.76470  0.24168  0.75578  1.0000
  C   C2617     1.0  0.75813  0.24057  0.82402  1.0000
  H   H4460     1.0  0.80677  0.26505  0.75941  1.0000
  H   H4461     1.0  0.80384  0.26260  0.79637  1.0000
  H   H4462     1.0  0.76685  0.26591  0.77488  1.0000
  H   H4463     1.0  0.78541  0.27358  0.75195  1.0000
  H   H4464     1.0  0.78899  0.24578  0.74493  1.0000
  H   H4465     1.0  0.77969  0.23006  0.77511  1.0000
  H   H4466     1.0  0.77889  0.23324  0.82035  1.0000
  H   H4467     1.0  0.78048  0.25095  0.82890  1.0000
  H   H4468     1.0  0.82078  0.24749  0.78069  1.0000
  H   H4469     1.0  0.80342  0.23410  0.80308  1.0000
  H   H4470     1.0  0.80776  0.23746  0.76482  1.0000
  H   H4471     1.0  0.77865  0.28999  0.78339  1.0000
  H   H4472     1.0  0.77611  0.27491  0.81450  1.0000
  H   H4473     1.0  0.79497  0.28365  0.78999  1.0000
  H   H4474     1.0  0.76308  0.23260  0.74414  1.0000
  H   H4475     1.0  0.76532  0.25275  0.74061  1.0000
  H   H4476     1.0  0.75437  0.23875  0.77365  1.0000
  H   H4477     1.0  0.75297  0.22912  0.82105  1.0000
  H   H4478     1.0  0.75311  0.24945  0.81336  1.0000
  H   H4479     1.0  0.75446  0.24010  0.84685  1.0000
  H   H4480     1.0  0.74712  0.25567  0.50550  1.0000
  C   C2618     1.0  0.80723  0.99421  0.79087  1.0000
  H   H4481     1.0  0.83099  0.05088  0.72334  1.0000
  H   H4482     1.0  0.74654  0.31535  0.50863  1.0000
  C   C2619     1.0  0.77045  0.26982  0.56557  1.0000
  C   C2620     1.0  0.76606  0.25944  0.52606  1.0000
  H   H4483     1.0  0.96763  0.03930  0.93872  1.0000
  H   H4484     1.0  0.82434  0.06771  0.72557  1.0000
  S   S758      1.0  0.97034  0.20626  0.72769  1.0000
  H   H4485     1.0  0.84129  0.06489  0.73746  1.0000
  H   H4486     1.0  0.97811  0.14362  0.80975  1.0000
  C   C2621     1.0  0.84944  0.07741  0.52244  1.0000
  C   C2622     1.0  0.91765  0.31604  0.79380  1.0000
  H   H4487     1.0  0.76372  0.25028  0.49012  1.0000
  H   H4488     1.0  0.89327  0.31549  0.73877  1.0000
  H   H4489     1.0  0.94515  0.26382  0.89908  1.0000
  S   S759      1.0  0.92215  0.08280  0.97194  1.0000
  C   C2623     1.0  0.81555  0.99710  0.83382  1.0000
  C   C2624     1.0  0.96972  0.25308  0.77975  1.0000
  H   H4490     1.0  0.74033  0.07246  0.67490  1.0000
  C   C2625     1.0  0.97118  0.04909  0.94805  1.0000
  H   H4491     1.0  0.85211  0.09417  0.64210  1.0000
  H   H4492     1.0  0.77878  0.05428  0.65022  1.0000
  H   H4493     1.0  0.78274  0.28864  0.51272  1.0000
  Fe  Fe368     1.0  0.82480  0.00534  0.95529  1.0000
  C   C2626     1.0  0.96481  0.24534  0.76031  1.0000
  C   C2627     1.0  0.78603  0.30835  0.87012  1.0000
  H   H4494     1.0  0.78378  0.07359  0.67599  1.0000
  H   H4495     1.0  0.97113  0.24643  0.79928  1.0000
  C   C2628     1.0  0.96354  0.17340  0.80718  1.0000
  C   C2629     1.0  0.96267  0.25380  0.73527  1.0000
  Fe  Fe369     1.0  0.95542  0.21993  0.70882  1.0000
  H   H4496     1.0  0.85458  0.12087  0.66668  1.0000
  C   C2630     1.0  0.89999  0.31571  0.75418  1.0000
  H   H4497     1.0  0.82948  0.00767  0.79108  1.0000
  C   C2631     1.0  0.97081  0.27778  0.74891  1.0000
  H   H4498     1.0  0.91697  0.23856  0.72994  1.0000
  C   C2632     1.0  0.73637  0.27541  0.53349  1.0000
  H   H4499     1.0  0.93989  0.06365  0.94439  1.0000
  H   H4500     1.0  0.75649  0.03732  0.75591  1.0000
  H   H4501     1.0  0.98061  0.26855  0.95376  1.0000
  C   C2633     1.0  0.81132  0.30360  0.86596  1.0000
  H   H4502     1.0  0.86564  0.07408  0.63932  1.0000
  H   H4503     1.0  0.77287  0.31210  0.51807  1.0000
  S   S760      1.0  0.97800  0.27855  0.79982  1.0000
  C   C2634     1.0  0.89761  0.05896  0.97261  1.0000
  S   S761      1.0  0.95795  0.17994  0.69551  1.0000
  H   H4504     1.0  0.80638  0.04763  0.49633  1.0000
  S   S762      1.0  0.94328  0.12920  0.95577  1.0000
  H   H4505     1.0  0.96919  0.18331  0.78924  1.0000
  H   H4506     1.0  0.94362  0.28257  0.90449  1.0000
  N   N184      1.0  0.82200  0.07365  0.51508  1.0000
  H   H4507     1.0  0.76557  0.28961  0.50299  1.0000
  C   C2635     1.0  0.79741  0.30435  0.88291  1.0000
  H   H4508     1.0  0.97317  0.29028  0.74427  1.0000
  Fe  Fe370     1.0  0.95028  0.18560  0.73720  1.0000
  H   H4509     1.0  0.77687  0.30216  0.54931  1.0000
  H   H4510     1.0  0.85956  0.08823  0.72530  1.0000
  C   C2636     1.0  0.76582  0.25364  0.58686  1.0000
  H   H4511     1.0  0.83617  0.09281  0.71666  1.0000
  H   H4512     1.0  0.92153  0.23778  0.76291  1.0000
  C   C2637     1.0  0.82702  0.07833  0.48308  1.0000
  H   H4513     1.0  0.86765  0.10647  0.64793  1.0000
  Fe  Fe371     1.0  0.77467  0.30503  0.94839  1.0000
  N   N185      1.0  0.85584  0.18211  0.62603  1.0000
  C   C2638     1.0  0.85537  0.17384  0.60291  1.0000
  C   C2639     1.0  0.85579  0.17029  0.65226  1.0000
  C   C2640     1.0  0.87060  0.19492  0.61650  1.0000
  C   C2641     1.0  0.84196  0.18871  0.63003  1.0000
  C   C2642     1.0  0.85707  0.18418  0.57308  1.0000
  C   C2643     1.0  0.84094  0.15707  0.66526  1.0000
  C   C2644     1.0  0.87716  0.20055  0.63967  1.0000
  C   C2645     1.0  0.83891  0.19603  0.65505  1.0000
  H   H4514     1.0  0.86457  0.16747  0.60092  1.0000
  H   H4515     1.0  0.84433  0.16487  0.60798  1.0000
  H   H4516     1.0  0.85765  0.17563  0.66962  1.0000
  H   H4517     1.0  0.86563  0.16492  0.64777  1.0000
  H   H4518     1.0  0.88010  0.19126  0.60400  1.0000
  H   H4519     1.0  0.86926  0.20533  0.60190  1.0000
  H   H4520     1.0  0.84283  0.19798  0.61089  1.0000
  H   H4521     1.0  0.83122  0.18000  0.63149  1.0000
  H   H4522     1.0  0.84715  0.18934  0.57232  1.0000
  H   H4523     1.0  0.86803  0.19337  0.56505  1.0000
  H   H4524     1.0  0.85713  0.17685  0.55796  1.0000
  H   H4525     1.0  0.84210  0.14959  0.68493  1.0000
  H   H4526     1.0  0.83066  0.16149  0.67130  1.0000
  H   H4527     1.0  0.83897  0.14954  0.65103  1.0000
  H   H4528     1.0  0.88201  0.19171  0.65125  1.0000
  H   H4529     1.0  0.86862  0.20379  0.65482  1.0000
  H   H4530     1.0  0.88691  0.21101  0.62948  1.0000
  H   H4531     1.0  0.84515  0.20850  0.64870  1.0000
  H   H4532     1.0  0.84176  0.19002  0.67413  1.0000
  C   C2646     1.0  0.94945  0.05847  0.93709  1.0000
  H   H4533     1.0  0.96010  0.12171  0.78178  1.0000
  N   N186      1.0  0.76279  0.27146  0.54141  1.0000
  S   S763      1.0  0.96311  0.21668  0.66517  1.0000
  H   H4534     1.0  0.97945  0.05853  0.93039  1.0000
  C   C2647     1.0  0.97249  0.26930  0.77436  1.0000
  H   H4535     1.0  0.82634  0.19506  0.66193  1.0000
  C   C2648     1.0  0.91473  0.24286  0.74920  1.0000
  C   C2649     1.0  0.98197  0.15943  0.75271  1.0000
  H   H4536     1.0  0.96990  0.28018  0.85839  1.0000
  H   H4537     1.0  0.96663  0.06435  0.89613  1.0000
  Fe  Fe372     1.0  0.97835  0.11168  0.95880  1.0000
  H   H4538     1.0  0.96297  0.12003  0.72598  1.0000
  C   C2650     1.0  0.97278  0.13235  0.80655  1.0000
  H   H4539     1.0  0.74397  0.06641  0.70924  1.0000
  H   H4540     1.0  0.85542  0.11739  0.70351  1.0000
  H   H4541     1.0  0.77871  0.26066  0.51943  1.0000
  H   H4542     1.0  0.88042  0.08303  0.65428  1.0000
  H   H4543     1.0  0.81253  0.04003  0.52784  1.0000
  C   C2651     1.0  0.74122  0.04808  0.68610  1.0000
  N   N187      1.0  0.85373  0.08830  0.68542  1.0000
  C   C2652     1.0  0.84504  0.07156  0.69081  1.0000
  C   C2653     1.0  0.86111  0.09423  0.65402  1.0000
  C   C2654     1.0  0.84211  0.09721  0.69373  1.0000
  C   C2655     1.0  0.86532  0.08900  0.70297  1.0000
  C   C2656     1.0  0.83492  0.06353  0.72118  1.0000
  C   C2657     1.0  0.87214  0.08522  0.64156  1.0000
  C   C2658     1.0  0.84825  0.11480  0.68890  1.0000
  C   C2659     1.0  0.87937  0.10333  0.69271  1.0000
  H   H4544     1.0  0.83742  0.07045  0.67623  1.0000
  H   H4545     1.0  0.85311  0.06425  0.68625  1.0000
  N   N188      1.0  0.97535  0.14289  0.75262  1.0000
  H   H4546     1.0  0.75016  0.02347  0.73791  1.0000
  H   H4547     1.0  0.94399  0.04790  0.93137  1.0000
  H   H4548     1.0  0.95729  0.27568  0.93682  1.0000
  H   H4549     1.0  0.76323  0.06076  0.64031  1.0000
  Fe  Fe373     1.0  0.94351  0.10384  0.96180  1.0000
  H   H4550     1.0  0.78007  0.31531  0.83055  1.0000
  C   C2660     1.0  0.97231  0.25208  0.88303  1.0000
  C   C2661     1.0  0.76909  0.30107  0.53513  1.0000
  H   H4551     1.0  0.74019  0.25627  0.56241  1.0000
  C   C2662     1.0  0.74818  0.31892  0.48597  1.0000
  C   C2663     1.0  0.75155  0.03579  0.73787  1.0000
  H   H4552     1.0  0.74885  0.02127  0.69533  1.0000
  H   H4553     1.0  0.74181  0.27805  0.51064  1.0000
  H   H4554     1.0  0.92435  0.31631  0.80924  1.0000
  H   H4555     1.0  0.97256  0.16525  0.75741  1.0000
  H   H4556     1.0  0.96907  0.29470  0.92083  1.0000
  C   C2664     1.0  0.95972  0.07016  0.90938  1.0000
  C   C2665     1.0  0.97848  0.28025  0.94880  1.0000
  H   H4557     1.0  0.95230  0.07505  0.89682  1.0000
  H   H4558     1.0  0.97793  0.25940  0.86129  1.0000
  C   C2666     1.0  0.95570  0.12797  0.73066  1.0000
  H   H4559     1.0  0.87852  0.03993  0.97457  1.0000
  H   H4560     1.0  0.94625  0.12221  0.75015  1.0000
  H   H4561     1.0  0.95005  0.13021  0.71308  1.0000
  C   C2667     1.0  0.75500  0.02825  0.65015  1.0000
  H   H4562     1.0  0.95662  0.15041  0.73806  1.0000
  H   H4563     1.0  0.92996  0.30321  0.96993  1.0000
  C   C2668     1.0  0.96940  0.28233  0.92606  1.0000
  C   C2669     1.0  0.96511  0.14363  0.73244  1.0000
  H   H4564     1.0  0.81031  0.09894  0.49275  1.0000
  C   C2670     1.0  0.77548  0.07445  0.66273  1.0000
  C   C2671     1.0  0.98093  0.04405  0.96822  1.0000
  Fe  Fe374     1.0  0.97685  0.30344  0.79809  1.0000
  H   H4565     1.0  0.95530  0.13893  0.78723  1.0000
  C   C2672     1.0  0.96522  0.13386  0.78160  1.0000
  H   H4566     1.0  0.74334  0.02900  0.64822  1.0000
  C   C2673     1.0  0.96200  0.06850  0.97086  1.0000
  C   C2674     1.0  0.97327  0.26025  0.90707  1.0000
  N   N189      1.0  0.97528  0.27760  0.89945  1.0000
  H   H4567     1.0  0.73333  0.28590  0.53842  1.0000
  H   H4568     1.0  0.98152  0.17738  0.82869  1.0000
  H   H4569     1.0  0.83581  0.12773  0.48054  1.0000
  H   H4570     1.0  0.94410  0.03033  0.97537  1.0000
  H   H4571     1.0  0.92292  0.04242  0.97911  1.0000
  Fe  Fe375     1.0  0.74061  0.29400  0.97907  1.0000
  Fe  Fe376     1.0  0.76833  0.61312  0.25263  1.0000
  S   S764      1.0  0.77282  0.59267  0.28060  1.0000
  S   S765      1.0  0.78040  0.63869  0.24652  1.0000
  H   H4572     1.0  0.78836  0.38223  0.07857  1.0000
  S   S766      1.0  0.83547  0.34176  0.06397  1.0000
  H   H4573     1.0  0.84608  0.61341  0.23776  1.0000
  S   S767      1.0  0.74254  0.60339  0.26568  1.0000
  Fe  Fe377     1.0  0.77368  0.58229  0.24345  1.0000
  S   S768      1.0  0.79161  0.56909  0.23371  1.0000
  H   H4574     1.0  0.73558  0.52912  0.46294  1.0000
  S   S769      1.0  0.77103  0.60337  0.21445  1.0000
  Fe  Fe378     1.0  0.89717  0.45181  0.27517  1.0000
  S   S770      1.0  0.89081  0.44776  0.23575  1.0000
  S   S771      1.0  0.87913  0.45243  0.31315  1.0000
  Fe  Fe379     1.0  0.93186  0.45658  0.25049  1.0000
  S   S772      1.0  0.92809  0.45196  0.20943  1.0000
  S   S773      1.0  0.95499  0.46016  0.26295  1.0000
  Fe  Fe380     1.0  0.91168  0.46733  0.21265  1.0000
  S   S774      1.0  0.91291  0.48584  0.17351  1.0000
  Fe  Fe381     1.0  0.90729  0.43259  0.23529  1.0000
  S   S775      1.0  0.90034  0.40771  0.23110  1.0000
  S   S776      1.0  0.91662  0.47300  0.25202  1.0000
  S   S777      1.0  0.91251  0.43560  0.27638  1.0000
  Fe  Fe382     1.0  0.78955  0.40414  0.45346  1.0000
  S   S778      1.0  0.86550  0.35314  0.10748  1.0000
  S   S779      1.0  0.77882  0.42306  0.43564  1.0000
  Fe  Fe383     1.0  0.81696  0.39091  0.43782  1.0000
  C   C2675     1.0  0.79330  0.38605  0.05534  1.0000
  S   S780      1.0  0.83912  0.39118  0.40725  1.0000
  H   H4575     1.0  0.81004  0.64650  0.20407  1.0000
  H   H4576     1.0  0.87682  0.36775  0.45095  1.0000
  H   H4577     1.0  0.76078  0.53136  0.42760  1.0000
  S   S781      1.0  0.79313  0.38566  0.43095  1.0000
  S   S782      1.0  0.81413  0.41084  0.45630  1.0000
  Fe  Fe384     1.0  0.85104  0.53537  0.06478  1.0000
  S   S783      1.0  0.83497  0.53077  0.10781  1.0000
  S   S784      1.0  0.84781  0.52219  0.03141  1.0000
  Fe  Fe385     1.0  0.87505  0.56070  0.07648  1.0000
  S   S785      1.0  0.86077  0.55777  0.12028  1.0000
  S   S786      1.0  0.89891  0.57710  0.05730  1.0000
  Fe  Fe386     1.0  0.85639  0.53223  0.12369  1.0000
  S   S787      1.0  0.85629  0.51492  0.16353  1.0000
  Fe  Fe387     1.0  0.84089  0.55669  0.10040  1.0000
  S   S788      1.0  0.82364  0.57091  0.10773  1.0000
  S   S789      1.0  0.87211  0.53510  0.08131  1.0000
  S   S790      1.0  0.85550  0.56135  0.05593  1.0000
  C   C2676     1.0  0.87189  0.37794  0.44716  1.0000
  S   S791      1.0  0.76174  0.43853  0.01917  1.0000
  N   N190      1.0  0.73507  0.37191  0.45111  1.0000
  S   S792      1.0  0.78609  0.47418  0.03416  1.0000
  S   S793      1.0  0.92542  0.62828  0.11585  1.0000
  H   H4578     1.0  0.82487  0.38585  0.04840  1.0000
  S   S794      1.0  0.85854  0.38107  0.15548  1.0000
  H   H4579     1.0  0.81848  0.45349  0.46338  1.0000
  C   C2677     1.0  0.85074  0.47492  0.13968  1.0000
  C   C2678     1.0  0.83064  0.50865  0.03284  1.0000
  C   C2679     1.0  0.83077  0.49996  0.01271  1.0000
  C   C2680     1.0  0.81724  0.48945  0.01254  1.0000
  C   C2681     1.0  0.80349  0.48735  0.03289  1.0000
  C   C2682     1.0  0.80348  0.49577  0.05342  1.0000
  C   C2683     1.0  0.81695  0.50644  0.05333  1.0000
  H   H4580     1.0  0.75550  0.36774  0.46337  1.0000
  H   H4581     1.0  0.84001  0.63018  0.24249  1.0000
  H   H4582     1.0  0.79292  0.49417  0.06932  1.0000
  H   H4583     1.0  0.81666  0.51307  0.06889  1.0000
  C   C2684     1.0  0.90597  0.59164  0.07317  1.0000
  C   C2685     1.0  0.89660  0.59461  0.09616  1.0000
  C   C2686     1.0  0.90273  0.60593  0.10889  1.0000
  C   C2687     1.0  0.91818  0.61455  0.09852  1.0000
  C   C2688     1.0  0.92752  0.61167  0.07535  1.0000
  C   C2689     1.0  0.92144  0.60021  0.06282  1.0000
  H   H4584     1.0  0.88466  0.58819  0.10420  1.0000
  H   H4585     1.0  0.89544  0.60811  0.12678  1.0000
  H   H4586     1.0  0.93946  0.61820  0.06726  1.0000
  H   H4587     1.0  0.92880  0.59793  0.04513  1.0000
  H   H4588     1.0  0.87646  0.48118  0.09721  1.0000
  Fe  Fe388     1.0  0.85304  0.35669  0.14848  1.0000
  H   H4589     1.0  0.90779  0.39154  0.09250  1.0000
  C   C2690     1.0  0.93380  0.33255  0.99469  1.0000
  C   C2691     1.0  0.78213  0.54850  0.12813  1.0000
  H   H4590     1.0  0.97119  0.48449  0.34990  1.0000
  C   C2692     1.0  0.76019  0.33779  0.44103  1.0000
  H   H4591     1.0  0.89390  0.58857  0.00244  1.0000
  H   H4592     1.0  0.76815  0.34867  0.42851  1.0000
  S   S795      1.0  0.85564  0.33488  0.17570  1.0000
  H   H4593     1.0  0.91695  0.34293  0.15341  1.0000
  C   C2693     1.0  0.75860  0.33321  0.47026  1.0000
  H   H4594     1.0  0.96021  0.49398  0.23998  1.0000
  C   C2694     1.0  0.87012  0.41071  0.44055  1.0000
  C   C2695     1.0  0.88874  0.40062  0.20976  1.0000
  C   C2696     1.0  0.88384  0.41049  0.18999  1.0000
  C   C2697     1.0  0.87462  0.40429  0.17361  1.0000
  C   C2698     1.0  0.87014  0.38820  0.17677  1.0000
  C   C2699     1.0  0.87485  0.37832  0.19684  1.0000
  C   C2700     1.0  0.88416  0.38451  0.21308  1.0000
  H   H4595     1.0  0.88723  0.42289  0.18720  1.0000
  H   H4596     1.0  0.87098  0.41205  0.15827  1.0000
  H   H4597     1.0  0.87126  0.36591  0.19989  1.0000
  H   H4598     1.0  0.88774  0.37675  0.22851  1.0000
  C   C2701     1.0  0.89697  0.49360  0.17104  1.0000
  C   C2702     1.0  0.88380  0.48945  0.19361  1.0000
  C   C2703     1.0  0.87143  0.49613  0.19107  1.0000
  C   C2704     1.0  0.87218  0.50704  0.16605  1.0000
  C   C2705     1.0  0.88536  0.51118  0.14351  1.0000
  C   C2706     1.0  0.89766  0.50440  0.14595  1.0000
  H   H4599     1.0  0.88318  0.48117  0.21307  1.0000
  H   H4600     1.0  0.86126  0.49288  0.20861  1.0000
  H   H4601     1.0  0.88610  0.51961  0.12419  1.0000
  H   H4602     1.0  0.90782  0.50759  0.12839  1.0000
  C   C2707     1.0  0.85031  0.40846  0.38186  1.0000
  C   C2708     1.0  0.86461  0.40852  0.36497  1.0000
  C   C2709     1.0  0.87351  0.42188  0.34370  1.0000
  C   C2710     1.0  0.86830  0.43538  0.33952  1.0000
  C   C2711     1.0  0.85422  0.43544  0.35700  1.0000
  C   C2712     1.0  0.84519  0.42200  0.37797  1.0000
  H   H4603     1.0  0.86868  0.39811  0.36800  1.0000
  H   H4604     1.0  0.88442  0.42176  0.33058  1.0000
  H   H4605     1.0  0.85016  0.44587  0.35399  1.0000
  H   H4606     1.0  0.83422  0.42211  0.39089  1.0000
  C   C2713     1.0  0.91582  0.45406  0.33771  1.0000
  H   H4607     1.0  0.85300  0.48435  0.15041  1.0000
  H   H4608     1.0  0.91439  0.34774  0.18705  1.0000
  C   C2714     1.0  0.80043  0.56980  0.19855  1.0000
  C   C2715     1.0  0.79896  0.58069  0.17563  1.0000
  C   C2716     1.0  0.80655  0.58123  0.14787  1.0000
  C   C2717     1.0  0.81538  0.57072  0.14285  1.0000
  C   C2718     1.0  0.81695  0.55991  0.16576  1.0000
  C   C2719     1.0  0.80954  0.55951  0.19354  1.0000
  H   H4609     1.0  0.79207  0.58875  0.17926  1.0000
  H   H4610     1.0  0.80549  0.58973  0.13015  1.0000
  H   H4611     1.0  0.82375  0.55177  0.16207  1.0000
  H   H4612     1.0  0.81080  0.55112  0.21122  1.0000
  C   C2720     1.0  0.79135  0.64612  0.26855  1.0000
  N   N191      1.0  0.74333  0.55357  0.44073  1.0000
  C   C2721     1.0  0.77067  0.39178  0.98063  1.0000
  H   H4613     1.0  0.91918  0.39170  0.18536  1.0000
  C   C2722     1.0  0.80079  0.64315  0.31100  1.0000
  C   C2723     1.0  0.79183  0.63687  0.29434  1.0000
  H   H4614     1.0  0.91706  0.36988  0.10092  1.0000
  H   H4615     1.0  0.74455  0.51802  0.42454  1.0000
  H   H4616     1.0  0.80110  0.63586  0.33088  1.0000
  H   H4617     1.0  0.78520  0.62490  0.30158  1.0000
  N   N192      1.0  0.93528  0.47989  0.33300  1.0000
  C   C2724     1.0  0.93240  0.48681  0.30492  1.0000
  C   C2725     1.0  0.93233  0.46260  0.33668  1.0000
  C   C2726     1.0  0.95190  0.48684  0.33183  1.0000
  C   C2727     1.0  0.92451  0.48394  0.35576  1.0000
  C   C2728     1.0  0.93730  0.50471  0.29423  1.0000
  C   C2729     1.0  0.81496  0.60597  0.28269  1.0000
  C   C2730     1.0  0.95960  0.47727  0.35130  1.0000
  C   C2731     1.0  0.92449  0.47700  0.38667  1.0000
  H   H4618     1.0  0.93845  0.48231  0.28797  1.0000
  H   H4619     1.0  0.91995  0.48335  0.30564  1.0000
  H   H4620     1.0  0.93492  0.45658  0.35613  1.0000
  H   H4621     1.0  0.94034  0.46014  0.31918  1.0000
  H   H4622     1.0  0.95937  0.48894  0.31017  1.0000
  H   H4623     1.0  0.95335  0.49846  0.33616  1.0000
  H   H4624     1.0  0.92731  0.49670  0.35285  1.0000
  H   H4625     1.0  0.91241  0.48118  0.35394  1.0000
  H   H4626     1.0  0.93091  0.51028  0.30870  1.0000
  H   H4627     1.0  0.94988  0.50949  0.29038  1.0000
  H   H4628     1.0  0.76145  0.58048  0.45143  1.0000
  C   C2732     1.0  0.91838  0.55384  0.09616  1.0000
  H   H4629     1.0  0.89391  0.56156  0.12793  1.0000
  H   H4630     1.0  0.77537  0.54194  0.11650  1.0000
  H   H4631     1.0  0.75975  0.39593  0.38661  1.0000
  H   H4632     1.0  0.96962  0.63971  0.01120  1.0000
  C   C2733     1.0  0.81888  0.63981  0.20175  1.0000
  H   H4633     1.0  0.93370  0.48438  0.39294  1.0000
  H   H4634     1.0  0.92558  0.46495  0.39102  1.0000
  H   H4635     1.0  0.91318  0.47633  0.40079  1.0000
  N   N193      1.0  0.85240  0.48161  0.10851  1.0000
  C   C2734     1.0  0.84317  0.49356  0.10646  1.0000
  C   C2735     1.0  0.86921  0.48953  0.09485  1.0000
  C   C2736     1.0  0.84685  0.46859  0.09580  1.0000
  C   C2737     1.0  0.82590  0.48752  0.12208  1.0000
  C   C2738     1.0  0.87371  0.49748  0.06294  1.0000
  C   C2739     1.0  0.84141  0.47303  0.06849  1.0000
  H   H4636     1.0  0.84384  0.49934  0.08432  1.0000
  H   H4637     1.0  0.84808  0.50316  0.11512  1.0000
  H   H4638     1.0  0.85595  0.46234  0.09126  1.0000
  H   H4639     1.0  0.83682  0.45981  0.11139  1.0000
  H   H4640     1.0  0.82417  0.48575  0.14528  1.0000
  H   H4641     1.0  0.81976  0.49635  0.11506  1.0000
  H   H4642     1.0  0.82037  0.47667  0.11760  1.0000
  H   H4643     1.0  0.87231  0.48889  0.05033  1.0000
  H   H4644     1.0  0.88612  0.50367  0.05640  1.0000
  H   H4645     1.0  0.86744  0.50635  0.05737  1.0000
  H   H4646     1.0  0.84435  0.46533  0.05485  1.0000
  H   H4647     1.0  0.84660  0.48502  0.05526  1.0000
  H   H4648     1.0  0.82865  0.47077  0.07350  1.0000
  C   C2740     1.0  0.92310  0.63293  0.01033  1.0000
  C   C2741     1.0  0.75908  0.55639  0.44652  1.0000
  H   H4649     1.0  0.82552  0.61355  0.28469  1.0000
  C   C2742     1.0  0.80251  0.40309  0.04859  1.0000
  H   H4650     1.0  0.80591  0.59464  0.25378  1.0000
  H   H4651     1.0  0.80215  0.61945  0.22974  1.0000
  H   H4652     1.0  0.85931  0.37353  0.45049  1.0000
  H   H4653     1.0  0.74190  0.45486  0.44590  1.0000
  N   N194      1.0  0.91211  0.55660  0.14724  1.0000
  C   C2743     1.0  0.91981  0.57375  0.13793  1.0000
  C   C2744     1.0  0.89527  0.55456  0.14798  1.0000
  C   C2745     1.0  0.91909  0.54823  0.12706  1.0000
  C   C2746     1.0  0.91430  0.54995  0.17596  1.0000
  C   C2747     1.0  0.93755  0.57837  0.13120  1.0000
  C   C2748     1.0  0.88553  0.55921  0.17228  1.0000
  H   H4654     1.0  0.76233  0.35224  0.99403  1.0000
  H   H4655     1.0  0.80530  0.61158  0.28575  1.0000
  H   H4656     1.0  0.91673  0.57945  0.11878  1.0000
  H   H4657     1.0  0.91559  0.57958  0.15427  1.0000
  H   H4658     1.0  0.78028  0.55386  0.16835  1.0000
  C   C2749     1.0  0.79146  0.35908  0.05166  1.0000
  H   H4659     1.0  0.93130  0.54870  0.12712  1.0000
  H   H4660     1.0  0.91317  0.53567  0.13409  1.0000
  H   H4661     1.0  0.92674  0.55111  0.17470  1.0000
  H   H4662     1.0  0.91087  0.55671  0.19124  1.0000
  H   H4663     1.0  0.94154  0.59126  0.12528  1.0000
  H   H4664     1.0  0.94186  0.57405  0.14971  1.0000
  H   H4665     1.0  0.94296  0.57460  0.11278  1.0000
  C   C2750     1.0  0.75145  0.32826  0.42790  1.0000
  H   H4666     1.0  0.88471  0.55162  0.19330  1.0000
  H   H4667     1.0  0.88995  0.57155  0.17169  1.0000
  C   C2751     1.0  0.80540  0.32340  0.08475  1.0000
  H   H4668     1.0  0.89859  0.33668  0.17824  1.0000
  H   H4669     1.0  0.91289  0.37093  0.20065  1.0000
  H   H4670     1.0  0.93492  0.36867  0.16057  1.0000
  H   H4671     1.0  0.90331  0.38990  0.15583  1.0000
  H   H4672     1.0  0.77569  0.57121  0.46134  1.0000
  N   N195      1.0  0.85003  0.39807  0.28783  1.0000
  C   C2752     1.0  0.86043  0.38730  0.28444  1.0000
  C   C2753     1.0  0.83847  0.39483  0.27088  1.0000
  C   C2754     1.0  0.84167  0.39390  0.31877  1.0000
  C   C2755     1.0  0.85984  0.41458  0.27792  1.0000
  C   C2756     1.0  0.87288  0.38803  0.30114  1.0000
  C   C2757     1.0  0.84531  0.39750  0.23883  1.0000
  C   C2758     1.0  0.83044  0.40352  0.32764  1.0000
  C   C2759     1.0  0.85177  0.42755  0.26922  1.0000
  H   H4673     1.0  0.85356  0.37500  0.29033  1.0000
  H   H4674     1.0  0.86688  0.38979  0.26198  1.0000
  H   H4675     1.0  0.82991  0.40176  0.27307  1.0000
  H   H4676     1.0  0.83146  0.38256  0.27917  1.0000
  H   H4677     1.0  0.83512  0.38146  0.32605  1.0000
  H   H4678     1.0  0.84992  0.39516  0.33197  1.0000
  H   H4679     1.0  0.86554  0.41744  0.29443  1.0000
  H   H4680     1.0  0.86942  0.41584  0.25913  1.0000
  H   H4681     1.0  0.88001  0.40000  0.29727  1.0000
  H   H4682     1.0  0.86788  0.38275  0.32417  1.0000
  H   H4683     1.0  0.88090  0.38118  0.29382  1.0000
  H   H4684     1.0  0.85048  0.38797  0.23446  1.0000
  H   H4685     1.0  0.83595  0.39747  0.22780  1.0000
  H   H4686     1.0  0.85401  0.40875  0.22918  1.0000
  H   H4687     1.0  0.83665  0.41569  0.32511  1.0000
  H   H4688     1.0  0.82472  0.39866  0.35063  1.0000
  H   H4689     1.0  0.82115  0.40304  0.31655  1.0000
  H   H4690     1.0  0.85631  0.43758  0.27718  1.0000
  H   H4691     1.0  0.83914  0.42446  0.27744  1.0000
  H   H4692     1.0  0.85483  0.43203  0.24580  1.0000
  C   C2760     1.0  0.80780  0.38117  0.01298  1.0000
  C   C2761     1.0  0.74625  0.37360  0.46929  1.0000
  H   H4693     1.0  0.78812  0.56036  0.11457  1.0000
  H   H4694     1.0  0.76830  0.55891  0.42657  1.0000
  H   H4695     1.0  0.81192  0.60203  0.20380  1.0000
  C   C2762     1.0  0.73991  0.52735  0.34638  1.0000
  H   H4696     1.0  0.79135  0.54264  0.13180  1.0000
  H   H4697     1.0  0.82368  0.37418  0.09483  1.0000
  C   C2763     1.0  0.98020  0.47454  0.27857  1.0000
  H   H4698     1.0  0.84514  0.59906  0.20278  1.0000
  H   H4699     1.0  0.90009  0.63013  0.00455  1.0000
  H   H4700     1.0  0.90383  0.61298  0.02230  1.0000
  H   H4701     1.0  0.76386  0.39565  0.41985  1.0000
  C   C2764     1.0  0.80144  0.32337  0.03055  1.0000
  C   C2765     1.0  0.81777  0.33095  0.06101  1.0000
  H   H4702     1.0  0.80594  0.40879  0.02553  1.0000
  H   H4703     1.0  0.81268  0.46072  0.43230  1.0000
  H   H4704     1.0  0.83387  0.59240  0.18038  1.0000
  H   H4705     1.0  0.86087  0.45516  0.13519  1.0000
  C   C2766     1.0  0.92905  0.37825  0.15780  1.0000
  H   H4706     1.0  0.81166  0.59529  0.30044  1.0000
  C   C2767     1.0  0.84048  0.62226  0.22831  1.0000
  H   H4707     1.0  0.74083  0.58510  0.42193  1.0000
  H   H4708     1.0  0.81919  0.63659  0.18155  1.0000
  H   H4709     1.0  0.90706  0.45553  0.35512  1.0000
  H   H4710     1.0  0.82485  0.36755  0.00364  1.0000
  H   H4711     1.0  0.89612  0.34756  0.08278  1.0000
  H   H4712     1.0  0.85711  0.45808  0.17001  1.0000
  H   H4713     1.0  0.93194  0.38142  0.19850  1.0000
  H   H4714     1.0  0.81746  0.48288  0.99688  1.0000
  H   H4715     1.0  0.78485  0.35818  0.03547  1.0000
  H   H4716     1.0  0.79499  0.40968  0.05852  1.0000
  S   S796      1.0  0.77786  0.40644  0.99621  1.0000
  Fe  Fe389     1.0  0.77934  0.46154  0.00195  1.0000
  C   C2768     1.0  0.75431  0.39355  0.40960  1.0000
  H   H4717     1.0  0.86791  0.43346  0.44758  1.0000
  H   H4718     1.0  0.88850  0.39374  0.45938  1.0000
  H   H4719     1.0  0.93222  0.62664  0.01129  1.0000
  H   H4720     1.0  0.95004  0.38466  0.09921  1.0000
  H   H4721     1.0  0.93997  0.38598  0.07169  1.0000
  C   C2769     1.0  0.96887  0.47677  0.26398  1.0000
  H   H4722     1.0  0.77039  0.37344  0.01588  1.0000
  H   H4723     1.0  0.93998  0.32567  0.03371  1.0000
  H   H4724     1.0  0.83871  0.46806  0.15060  1.0000
  H   H4725     1.0  0.89121  0.37906  0.12018  1.0000
  H   H4726     1.0  0.84665  0.63507  0.18196  1.0000
  H   H4727     1.0  0.87323  0.47090  0.14355  1.0000
  Fe  Fe390     1.0  0.86683  0.33070  0.13446  1.0000
  H   H4728     1.0  0.78408  0.35362  0.09861  1.0000
  H   H4729     1.0  0.87327  0.49847  0.10559  1.0000
  H   H4730     1.0  0.82195  0.36644  0.04854  1.0000
  H   H4731     1.0  0.94533  0.34011  0.98228  1.0000
  H   H4732     1.0  0.75243  0.36897  0.41769  1.0000
  C   C2770     1.0  0.86258  0.42448  0.43816  1.0000
  H   H4733     1.0  0.92804  0.64443  0.99483  1.0000
  H   H4734     1.0  0.97933  0.51641  0.24421  1.0000
  H   H4735     1.0  0.74772  0.58643  0.38531  1.0000
  H   H4736     1.0  0.75257  0.54741  0.12293  1.0000
  C   C2771     1.0  0.74965  0.53053  0.42188  1.0000
  H   H4737     1.0  0.81397  0.63068  0.24609  1.0000
  H   H4738     1.0  0.96115  0.62266  0.98171  1.0000
  H   H4739     1.0  0.76281  0.59591  0.12331  1.0000
  C   C2772     1.0  0.86117  0.46415  0.14707  1.0000
  H   H4740     1.0  0.82988  0.64785  0.20081  1.0000
  C   C2773     1.0  0.76176  0.42686  0.45331  1.0000
  H   H4741     1.0  0.92410  0.56633  0.08669  1.0000
  H   H4742     1.0  0.93001  0.36245  0.11743  1.0000
  H   H4743     1.0  0.80007  0.32334  0.00960  1.0000
  H   H4744     1.0  0.74433  0.53475  0.15658  1.0000
  C   C2774     1.0  0.76856  0.37622  0.99499  1.0000
  C   C2775     1.0  0.90552  0.33137  0.10755  1.0000
  H   H4745     1.0  0.79839  0.38404  0.00356  1.0000
  H   H4746     1.0  0.74734  0.40204  0.41203  1.0000
  H   H4747     1.0  0.77793  0.57757  0.13838  1.0000
  H   H4748     1.0  0.92445  0.54734  0.08312  1.0000
  H   H4749     1.0  0.73398  0.56134  0.12483  1.0000
  C   C2776     1.0  0.76615  0.57277  0.13660  1.0000
  C   C2777     1.0  0.75772  0.44033  0.44120  1.0000
  C   C2778     1.0  0.75296  0.55748  0.18604  1.0000
  H   H4750     1.0  0.96154  0.46694  0.34406  1.0000
  H   H4751     1.0  0.77013  0.35971  0.08072  1.0000
  H   H4752     1.0  0.92123  0.36120  0.04790  1.0000
  H   H4753     1.0  0.92806  0.32775  0.97984  1.0000
  H   H4754     1.0  0.89719  0.35788  0.14227  1.0000
  C   C2779     1.0  0.81429  0.62566  0.22763  1.0000
  H   H4755     1.0  0.84995  0.42068  0.44742  1.0000
  H   H4756     1.0  0.76226  0.56376  0.19388  1.0000
  N   N196      1.0  0.80205  0.37515  0.04483  1.0000
  H   H4757     1.0  0.82454  0.59292  0.25622  1.0000
  Fe  Fe391     1.0  0.84234  0.33963  0.10568  1.0000
  S   S797      1.0  0.82967  0.34512  0.14424  1.0000
  C   C2780     1.0  0.92060  0.35155  0.06531  1.0000
  H   H4758     1.0  0.74040  0.54399  0.22876  1.0000
  C   C2781     1.0  0.74509  0.54179  0.20811  1.0000
  C   C2782     1.0  0.93310  0.33423  0.09035  1.0000
  H   H4759     1.0  0.76479  0.44787  0.42101  1.0000
  H   H4760     1.0  0.80678  0.32349  0.10570  1.0000
  Fe  Fe392     1.0  0.83342  0.32288  0.16816  1.0000
  C   C2783     1.0  0.83320  0.59511  0.20118  1.0000
  H   H4761     1.0  0.91826  0.59873  0.00005  1.0000
  C   C2784     1.0  0.76385  0.36418  0.98271  1.0000
  H   H4762     1.0  0.73726  0.37493  0.40585  1.0000
  H   H4763     1.0  0.73414  0.41256  0.01832  1.0000
  S   S798      1.0  0.95159  0.35669  0.04304  1.0000
  C   C2785     1.0  0.93400  0.34682  0.06804  1.0000
  C   C2786     1.0  0.90639  0.34387  0.08507  1.0000
  H   H4764     1.0  0.85862  0.64260  0.20218  1.0000
  H   H4765     1.0  0.75273  0.33200  0.40534  1.0000
  C   C2787     1.0  0.81735  0.60137  0.25442  1.0000
  H   H4766     1.0  0.93456  0.50814  0.27351  1.0000
  H   H4767     1.0  0.90364  0.53024  0.21311  1.0000
  Fe  Fe393     1.0  0.74881  0.44746  0.98845  1.0000
  H   H4768     1.0  0.76754  0.57247  0.11408  1.0000
  H   H4769     1.0  0.74520  0.58183  0.14196  1.0000
  N   N197      1.0  0.75936  0.55663  0.15624  1.0000
  C   C2788     1.0  0.74088  0.54306  0.33464  1.0000
  C   C2789     1.0  0.81589  0.37464  0.05653  1.0000
  C   C2790     1.0  0.74857  0.58095  0.40684  1.0000
  C   C2791     1.0  0.76332  0.56925  0.46148  1.0000
  H   H4770     1.0  0.80600  0.35929  0.99958  1.0000
  C   C2792     1.0  0.92535  0.37283  0.11348  1.0000
  H   H4771     1.0  0.82828  0.61630  0.18246  1.0000
  H   H4772     1.0  0.88959  0.54244  0.14888  1.0000
  H   H4773     1.0  0.76766  0.53620  0.16930  1.0000
  N   N198      1.0  0.91742  0.37541  0.14094  1.0000
  H   H4774     1.0  0.80578  0.44069  0.45003  1.0000
  H   H4775     1.0  0.75173  0.53629  0.39911  1.0000
  C   C2793     1.0  0.96878  0.49199  0.25135  1.0000
  C   C2794     1.0  0.90441  0.36119  0.15652  1.0000
  C   C2795     1.0  0.88701  0.59639  0.99480  1.0000
  S   S799      1.0  0.97046  0.64175  0.07443  1.0000
  C   C2796     1.0  0.91074  0.38926  0.13578  1.0000
  H   H4776     1.0  0.91402  0.52517  0.18298  1.0000
  H   H4777     1.0  0.74908  0.54930  0.31462  1.0000
  H   H4778     1.0  0.81005  0.35657  0.09657  1.0000
  C   C2797     1.0  0.91888  0.32650  0.10998  1.0000
  C   C2798     1.0  0.96892  0.64475  0.99003  1.0000
  H   H4779     1.0  0.93784  0.39779  0.09534  1.0000
  Fe  Fe394     1.0  0.98176  0.65490  0.10137  1.0000
  H   H4780     1.0  0.86603  0.40423  0.42591  1.0000
  Fe  Fe395     1.0  0.94859  0.64609  0.09732  1.0000
  H   H4781     1.0  0.88276  0.41560  0.43122  1.0000
  H   H4782     1.0  0.91498  0.44143  0.34152  1.0000
  C   C2799     1.0  0.90641  0.53253  0.18969  1.0000
  H   H4783     1.0  0.93847  0.38883  0.14611  1.0000
  C   C2800     1.0  0.74476  0.44433  0.45524  1.0000
  H   H4784     1.0  0.89541  0.39958  0.11438  1.0000
  H   H4785     1.0  0.86052  0.62528  0.19289  1.0000
  H   H4786     1.0  0.86448  0.43027  0.41537  1.0000
  S   S800      1.0  0.74851  0.57001  0.25635  1.0000
  H   H4787     1.0  0.82522  0.33660  0.01547  1.0000
  Fe  Fe396     1.0  0.74552  0.59184  0.23001  1.0000
  C   C2801     1.0  0.81300  0.36943  0.08895  1.0000
  C   C2802     1.0  0.93909  0.38613  0.09414  1.0000
  H   H4788     1.0  0.75887  0.58879  0.16070  1.0000
  C   C2803     1.0  0.90078  0.38968  0.11439  1.0000
  H   H4789     1.0  0.89527  0.52862  0.18485  1.0000
  C   C2804     1.0  0.90911  0.34646  0.16936  1.0000
  H   H4790     1.0  0.80410  0.37397  0.10057  1.0000
  C   C2805     1.0  0.82405  0.60750  0.20310  1.0000
  C   C2806     1.0  0.77222  0.54857  0.15708  1.0000
  H   H4791     1.0  0.89640  0.36354  0.17405  1.0000
  C   C2807     1.0  0.85189  0.63167  0.19953  1.0000
  H   H4792     1.0  0.87357  0.55775  0.17003  1.0000
  H   H4793     1.0  0.76072  0.58509  0.40714  1.0000
  H   H4794     1.0  0.92733  0.34019  0.00377  1.0000
  H   H4795     1.0  0.91985  0.40036  0.12888  1.0000
  Fe  Fe397     1.0  0.74732  0.58216  0.29106  1.0000
  C   C2808     1.0  0.92269  0.38064  0.18719  1.0000
  C   C2809     1.0  0.80871  0.45239  0.45362  1.0000
  Fe  Fe398     1.0  0.97197  0.34633  0.04457  1.0000
  H   H4796     1.0  0.79705  0.46865  0.46776  1.0000
  H   H4797     1.0  0.81272  0.40424  0.05734  1.0000
  H   H4798     1.0  0.90633  0.55142  0.09436  1.0000
  N   N199      1.0  0.82441  0.61450  0.22780  1.0000
  Fe  Fe399     1.0  0.77479  0.43091  0.98384  1.0000
  H   H4799     1.0  0.78315  0.38606  0.04634  1.0000
  H   H4800     1.0  0.84141  0.50139  0.99714  1.0000
  H   H4801     1.0  0.73516  0.53519  0.20243  1.0000
  H   H4802     1.0  0.75330  0.53464  0.21168  1.0000
  C   C2810     1.0  0.90894  0.62338  0.00390  1.0000
  H   H4803     1.0  0.88026  0.59923  0.01328  1.0000
  C   C2811     1.0  0.74757  0.54729  0.14521  1.0000
  H   H4804     1.0  0.91951  0.63509  0.03145  1.0000
  H   H4805     1.0  0.87707  0.38443  0.42461  1.0000
  C   C2812     1.0  0.77918  0.35323  0.08029  1.0000
  H   H4806     1.0  0.77330  0.34089  0.08306  1.0000
  H   H4807     1.0  0.79827  0.35036  0.05075  1.0000
  C   C2813     1.0  0.73822  0.53670  0.44107  1.0000
  C   C2814     1.0  0.81463  0.37024  0.99713  1.0000
  H   H4808     1.0  0.75206  0.56066  0.39493  1.0000
  C   C2815     1.0  0.81572  0.33082  0.03394  1.0000
  C   C2816     1.0  0.75756  0.58532  0.14115  1.0000
  H   H4809     1.0  0.81695  0.39221  0.00685  1.0000
  H   H4810     1.0  0.91289  0.45766  0.31730  1.0000
  H   H4811     1.0  0.74729  0.52151  0.33520  1.0000
  H   H4812     1.0  0.95310  0.47366  0.37379  1.0000
  H   H4813     1.0  0.87901  0.58946  0.98550  1.0000
  H   H4814     1.0  0.82728  0.58406  0.21757  1.0000
  H   H4815     1.0  0.94337  0.33048  0.09254  1.0000
  C   C2817     1.0  0.74386  0.56325  0.41189  1.0000
  C   C2818     1.0  0.74449  0.37662  0.42072  1.0000
  H   H4816     1.0  0.74434  0.56440  0.18713  1.0000
  C   C2819     1.0  0.87591  0.38803  0.46716  1.0000
  H   H4817     1.0  0.76034  0.54576  0.46071  1.0000
  C   C2820     1.0  0.97971  0.50471  0.25368  1.0000
  H   H4818     1.0  0.78530  0.45315  0.45939  1.0000
  H   H4819     1.0  0.84473  0.39063  0.46326  1.0000
  H   H4820     1.0  0.73369  0.34732  0.46511  1.0000
  C   C2821     1.0  0.73266  0.55256  0.14488  1.0000
  H   H4821     1.0  0.98040  0.46287  0.28857  1.0000
  H   H4822     1.0  0.73454  0.56885  0.46435  1.0000
  H   H4823     1.0  0.73661  0.38094  0.99193  1.0000
  N   N200      1.0  0.86688  0.40001  0.46984  1.0000
  S   S801      1.0  0.73296  0.57059  0.33598  1.0000
  Fe  Fe400     1.0  0.78580  0.36932  0.47461  1.0000
  C   C2822     1.0  0.79439  0.45587  0.47070  1.0000
  H   H4824     1.0  0.75227  0.38598  0.46571  1.0000
  C   C2823     1.0  0.75250  0.41716  0.47935  1.0000
  H   H4825     1.0  0.88545  0.41520  0.47919  1.0000
  H   H4826     1.0  0.73250  0.56034  0.40716  1.0000
  Fe  Fe401     1.0  0.77507  0.59675  0.59810  1.0000
  S   S802      1.0  0.77570  0.58298  0.64037  1.0000
  S   S803      1.0  0.77951  0.62319  0.58975  1.0000
  Fe  Fe402     1.0  0.76587  0.56679  0.57758  1.0000
  S   S804      1.0  0.76639  0.55148  0.61880  1.0000
  S   S805      1.0  0.76274  0.55534  0.54158  1.0000
  Fe  Fe403     1.0  0.75396  0.56691  0.63885  1.0000
  Fe  Fe404     1.0  0.78797  0.56916  0.61591  1.0000
  S   S806      1.0  0.81049  0.56426  0.62158  1.0000
  S   S807      1.0  0.75231  0.58146  0.59788  1.0000
  S   S808      1.0  0.78853  0.58370  0.57329  1.0000
  S   S809      1.0  0.81303  0.39726  0.53816  1.0000
  Fe  Fe405     1.0  0.87961  0.44687  0.59470  1.0000
  S   S810      1.0  0.86397  0.43948  0.63863  1.0000
  S   S811      1.0  0.87162  0.44256  0.55543  1.0000
  Fe  Fe406     1.0  0.90725  0.46361  0.61467  1.0000
  S   S812      1.0  0.89314  0.45718  0.65979  1.0000
  S   S813      1.0  0.93239  0.47862  0.59833  1.0000
  Fe  Fe407     1.0  0.88429  0.43376  0.65296  1.0000
  S   S814      1.0  0.87998  0.41305  0.69030  1.0000
  Fe  Fe408     1.0  0.87406  0.46341  0.64178  1.0000
  S   S815      1.0  0.85771  0.47555  0.66297  1.0000
  S   S816      1.0  0.89963  0.43948  0.60880  1.0000
  S   S817      1.0  0.88847  0.47152  0.59683  1.0000
  Fe  Fe409     1.0  0.87217  0.56759  0.76263  1.0000
  S   S818      1.0  0.84868  0.55545  0.79153  1.0000
  S   S819      1.0  0.88293  0.59246  0.76124  1.0000
  Fe  Fe410     1.0  0.87303  0.54109  0.73414  1.0000
  S   S820      1.0  0.84948  0.52707  0.76053  1.0000
  S   S821      1.0  0.88862  0.53305  0.70202  1.0000
  Fe  Fe411     1.0  0.84297  0.54975  0.75272  1.0000
  S   S822      1.0  0.81999  0.55197  0.74529  1.0000
  Fe  Fe412     1.0  0.85734  0.53397  0.79668  1.0000
  S   S823      1.0  0.85410  0.51613  0.83785  1.0000
  S   S824      1.0  0.86583  0.56329  0.72332  1.0000
  S   S825      1.0  0.88145  0.54655  0.77092  1.0000
  Fe  Fe413     1.0  0.77855  0.46141  0.94180  1.0000
  H   H4827     1.0  0.76728  0.44304  0.53462  1.0000
  S   S826      1.0  0.78584  0.47542  0.89613  1.0000
  H   H4828     1.0  0.93199  0.59140  0.95893  1.0000
  H   H4829     1.0  0.78434  0.40865  0.53748  1.0000
  C   C2824     1.0  0.96448  0.32607  0.93350  1.0000
  S   S827      1.0  0.76084  0.43845  0.95410  1.0000
  S   S828      1.0  0.93508  0.60547  0.82608  1.0000
  H   H4830     1.0  0.80210  0.39163  0.88105  1.0000
  S   S829      1.0  0.86863  0.34508  0.67454  1.0000
  H   H4831     1.0  0.82703  0.39334  0.68832  1.0000
  H   H4832     1.0  0.84392  0.40138  0.48887  1.0000
  H   H4833     1.0  0.96297  0.54811  0.60624  1.0000
  H   H4834     1.0  0.82853  0.35435  0.88881  1.0000
  S   S830      1.0  0.96839  0.62747  0.84665  1.0000
  H   H4835     1.0  0.91823  0.40770  0.68601  1.0000
  C   C2825     1.0  0.96976  0.50095  0.63842  1.0000
  H   H4836     1.0  0.88427  0.36682  0.75376  1.0000
  H   H4837     1.0  0.80674  0.35480  0.73152  1.0000
  C   C2826     1.0  0.84490  0.35622  0.62891  1.0000
  H   H4838     1.0  0.84856  0.54823  0.94036  1.0000
  C   C2827     1.0  0.77855  0.34679  0.87434  1.0000
  C   C2828     1.0  0.82882  0.52737  0.95370  1.0000
  N   N201      1.0  0.78852  0.44740  0.50178  1.0000
  H   H4839     1.0  0.78604  0.37551  0.88795  1.0000
  H   H4840     1.0  0.76335  0.60314  0.68216  1.0000
  H   H4841     1.0  0.83570  0.51889  0.95859  1.0000
  C   C2829     1.0  0.87055  0.40129  0.51954  1.0000
  H   H4842     1.0  0.80030  0.42908  0.49772  1.0000
  H   H4843     1.0  0.83354  0.64377  0.56285  1.0000
  H   H4844     1.0  0.94922  0.51737  0.67028  1.0000
  C   C2830     1.0  0.83524  0.50444  0.85343  1.0000
  C   C2831     1.0  0.83236  0.49199  0.87741  1.0000
  C   C2832     1.0  0.81724  0.48289  0.89072  1.0000
  C   C2833     1.0  0.80500  0.48616  0.87988  1.0000
  C   C2834     1.0  0.80799  0.49836  0.85549  1.0000
  C   C2835     1.0  0.82304  0.50753  0.84239  1.0000
  H   H4845     1.0  0.84180  0.48950  0.88591  1.0000
  H   H4846     1.0  0.81504  0.47342  0.90937  1.0000
  H   H4847     1.0  0.79856  0.50088  0.84695  1.0000
  H   H4848     1.0  0.82516  0.51708  0.82386  1.0000
  C   C2836     1.0  0.89729  0.59607  0.77956  1.0000
  C   C2837     1.0  0.90393  0.61137  0.77955  1.0000
  C   C2838     1.0  0.91547  0.61451  0.79385  1.0000
  C   C2839     1.0  0.92047  0.60233  0.80816  1.0000
  C   C2840     1.0  0.91379  0.58706  0.80818  1.0000
  C   C2841     1.0  0.90224  0.58392  0.79403  1.0000
  H   H4849     1.0  0.90016  0.62083  0.76842  1.0000
  H   H4850     1.0  0.92055  0.62631  0.79370  1.0000
  H   H4851     1.0  0.91760  0.57759  0.81920  1.0000
  H   H4852     1.0  0.89721  0.57211  0.79426  1.0000
  C   C2842     1.0  0.94664  0.48665  0.61467  1.0000
  C   C2843     1.0  0.94384  0.48459  0.64400  1.0000
  C   C2844     1.0  0.95530  0.49168  0.65570  1.0000
  C   C2845     1.0  0.96117  0.49573  0.59744  1.0000
  H   H4853     1.0  0.93280  0.47763  0.65763  1.0000
  H   H4854     1.0  0.95288  0.49008  0.67836  1.0000
  C   C2846     1.0  0.87629  0.39437  0.68516  1.0000
  C   C2847     1.0  0.86903  0.38165  0.70868  1.0000
  C   C2848     1.0  0.86646  0.36650  0.70557  1.0000
  C   C2849     1.0  0.87134  0.36396  0.67896  1.0000
  C   C2850     1.0  0.87855  0.37669  0.65539  1.0000
  C   C2851     1.0  0.88093  0.39189  0.65842  1.0000
  H   H4855     1.0  0.86543  0.38355  0.72940  1.0000
  H   H4856     1.0  0.86081  0.35683  0.72379  1.0000
  H   H4857     1.0  0.88241  0.37479  0.63475  1.0000
  H   H4858     1.0  0.88663  0.40167  0.64023  1.0000
  C   C2852     1.0  0.86657  0.49127  0.67403  1.0000
  C   C2853     1.0  0.88243  0.49792  0.66428  1.0000
  C   C2854     1.0  0.88910  0.51086  0.67274  1.0000
  C   C2855     1.0  0.87996  0.51719  0.69090  1.0000
  C   C2856     1.0  0.86413  0.51044  0.70072  1.0000
  C   C2857     1.0  0.85748  0.49743  0.69254  1.0000
  H   H4859     1.0  0.88954  0.49320  0.65001  1.0000
  H   H4860     1.0  0.90133  0.51592  0.66519  1.0000
  H   H4861     1.0  0.85697  0.51526  0.71447  1.0000
  H   H4862     1.0  0.84524  0.49215  0.70051  1.0000
  C   C2858     1.0  0.82879  0.41078  0.54266  1.0000
  C   C2859     1.0  0.83140  0.40917  0.56977  1.0000
  C   C2860     1.0  0.84419  0.41895  0.57433  1.0000
  C   C2861     1.0  0.85450  0.43068  0.55175  1.0000
  H   H4863     1.0  0.82348  0.40022  0.58731  1.0000
  H   H4864     1.0  0.84620  0.41732  0.59520  1.0000
  C   C2862     1.0  0.92281  0.39726  0.69010  1.0000
  C   C2863     1.0  0.80785  0.53775  0.89519  1.0000
  H   H4865     1.0  0.80438  0.53465  0.94040  1.0000
  C   C2864     1.0  0.81397  0.63981  0.62490  1.0000
  S   S831      1.0  0.75454  0.35260  0.94062  1.0000
  C   C2865     1.0  0.83745  0.54307  0.95660  1.0000
  H   H4866     1.0  0.83676  0.42455  0.49940  1.0000
  H   H4867     1.0  0.82168  0.63524  0.63608  1.0000
  H   H4868     1.0  0.79840  0.37588  0.91146  1.0000
  H   H4869     1.0  0.84927  0.34563  0.63042  1.0000
  H   H4870     1.0  0.91013  0.38915  0.73344  1.0000
  C   C2866     1.0  0.85151  0.43270  0.52483  1.0000
  H   H4871     1.0  0.74442  0.59907  0.70595  1.0000
  H   H4872     1.0  0.86730  0.41927  0.48887  1.0000
  H   H4873     1.0  0.79307  0.50942  0.94283  1.0000
  C   C2867     1.0  0.81319  0.56200  0.65582  1.0000
  C   C2868     1.0  0.80070  0.55877  0.67937  1.0000
  C   C2869     1.0  0.80297  0.55574  0.70673  1.0000
  C   C2870     1.0  0.81767  0.55580  0.71067  1.0000
  C   C2871     1.0  0.83020  0.55915  0.68710  1.0000
  C   C2872     1.0  0.82797  0.56243  0.65970  1.0000
  H   H4874     1.0  0.78924  0.55832  0.67656  1.0000
  H   H4875     1.0  0.79324  0.55318  0.72492  1.0000
  H   H4876     1.0  0.84158  0.55921  0.68996  1.0000
  H   H4877     1.0  0.83768  0.56505  0.64147  1.0000
  C   C2873     1.0  0.79306  0.63536  0.60189  1.0000
  C   C2874     1.0  0.80300  0.62961  0.61673  1.0000
  H   H4878     1.0  0.80237  0.61733  0.62159  1.0000
  N   N202      1.0  0.82513  0.52753  0.92565  1.0000
  H   H4879     1.0  0.75948  0.64452  0.63815  1.0000
  H   H4880     1.0  0.82232  0.34798  0.71550  1.0000
  C   C2875     1.0  0.81788  0.51113  0.92590  1.0000
  C   C2876     1.0  0.83950  0.53378  0.90144  1.0000
  H   H4881     1.0  0.83694  0.53218  0.88126  1.0000
  H   H4882     1.0  0.93244  0.51397  0.71655  1.0000
  C   C2877     1.0  0.80199  0.50331  0.94703  1.0000
  C   C2878     1.0  0.85300  0.52637  0.90450  1.0000
  H   H4883     1.0  0.83224  0.38016  0.61520  1.0000
  S   S832      1.0  0.85171  0.32604  0.75760  1.0000
  S   S833      1.0  0.77924  0.32476  0.96836  1.0000
  H   H4884     1.0  0.84091  0.36758  0.49549  1.0000
  C   C2879     1.0  0.84431  0.37751  0.50446  1.0000
  H   H4885     1.0  0.93218  0.63732  0.95341  1.0000
  H   H4886     1.0  0.82017  0.55004  0.91904  1.0000
  H   H4887     1.0  0.82409  0.34406  0.66165  1.0000
  C   C2880     1.0  0.83195  0.63302  0.69456  1.0000
  H   H4888     1.0  0.92125  0.32866  0.72327  1.0000
  H   H4889     1.0  0.79124  0.45131  0.54216  1.0000
  H   H4890     1.0  0.77944  0.33884  0.86041  1.0000
  C   C2881     1.0  0.84973  0.39298  0.48090  1.0000
  H   H4891     1.0  0.89829  0.60891  0.95074  1.0000
  H   H4892     1.0  0.88941  0.61946  0.97149  1.0000
  C   C2882     1.0  0.83763  0.65307  0.51660  1.0000
  H   H4893     1.0  0.94290  0.51934  0.61454  1.0000
  C   C2883     1.0  0.82777  0.64253  0.54572  1.0000
  C   C2884     1.0  0.73945  0.42111  0.49331  1.0000
  H   H4894     1.0  0.85780  0.52883  0.92216  1.0000
  H   H4895     1.0  0.77490  0.47223  0.51378  1.0000
  H   H4896     1.0  0.83920  0.35709  0.61131  1.0000
  H   H4897     1.0  0.92175  0.51854  0.69139  1.0000
  Fe  Fe414     1.0  0.85547  0.32494  0.71237  1.0000
  H   H4898     1.0  0.77059  0.41926  0.54601  1.0000
  H   H4899     1.0  0.81923  0.36801  0.92143  1.0000
  H   H4900     1.0  0.83252  0.36749  0.83257  1.0000
  H   H4901     1.0  0.81658  0.51057  0.90454  1.0000
  C   C2885     1.0  0.92344  0.59829  0.95619  1.0000
  H   H4902     1.0  0.81712  0.45453  0.53707  1.0000
  H   H4903     1.0  0.95645  0.56930  0.61222  1.0000
  C   C2886     1.0  0.75095  0.59731  0.68629  1.0000
  H   H4904     1.0  0.81951  0.62816  0.69718  1.0000
  H   H4905     1.0  0.92387  0.53637  0.65050  1.0000
  H   H4906     1.0  0.74914  0.62695  0.61670  1.0000
  H   H4907     1.0  0.83542  0.64413  0.67771  1.0000
  H   H4908     1.0  0.84976  0.51369  0.90707  1.0000
  C   C2887     1.0  0.97051  0.32544  0.90572  1.0000
  C   C2888     1.0  0.82847  0.35473  0.83694  1.0000
  H   H4909     1.0  0.76162  0.53042  0.51462  1.0000
  H   H4910     1.0  0.80077  0.52618  0.89611  1.0000
  H   H4911     1.0  0.97908  0.54416  0.65518  1.0000
  C   C2889     1.0  0.81760  0.35833  0.71439  1.0000
  H   H4912     1.0  0.95484  0.58024  0.63741  1.0000
  H   H4913     1.0  0.92286  0.51830  0.62004  1.0000
  H   H4914     1.0  0.83292  0.40254  0.65045  1.0000
  H   H4915     1.0  0.91239  0.58996  0.95828  1.0000
  C   C2890     1.0  0.80962  0.36381  0.62726  1.0000
  H   H4916     1.0  0.80020  0.54576  0.89426  1.0000
  N   N203      1.0  0.86923  0.48406  0.77498  1.0000
  C   C2891     1.0  0.87819  0.48102  0.74864  1.0000
  C   C2892     1.0  0.87537  0.50096  0.77334  1.0000
  C   C2893     1.0  0.85254  0.48114  0.77423  1.0000
  C   C2894     1.0  0.87117  0.47324  0.80064  1.0000
  C   C2895     1.0  0.87232  0.46510  0.74328  1.0000
  C   C2896     1.0  0.89283  0.50624  0.77029  1.0000
  C   C2897     1.0  0.84121  0.48410  0.79857  1.0000
  C   C2898     1.0  0.86866  0.47827  0.82861  1.0000
  H   H4917     1.0  0.87854  0.48994  0.72942  1.0000
  H   H4918     1.0  0.89045  0.48199  0.74889  1.0000
  H   H4919     1.0  0.86954  0.50434  0.79186  1.0000
  H   H4920     1.0  0.87292  0.50843  0.75500  1.0000
  H   H4921     1.0  0.85146  0.48832  0.75411  1.0000
  H   H4922     1.0  0.84779  0.46887  0.77460  1.0000
  H   H4923     1.0  0.86339  0.46148  0.80489  1.0000
  H   H4924     1.0  0.88310  0.47167  0.79642  1.0000
  H   H4925     1.0  0.86170  0.46455  0.73570  1.0000
  H   H4926     1.0  0.88110  0.46346  0.72599  1.0000
  H   H4927     1.0  0.87035  0.45535  0.76219  1.0000
  H   H4928     1.0  0.89676  0.49832  0.78567  1.0000
  H   H4929     1.0  0.89952  0.50746  0.74840  1.0000
  H   H4930     1.0  0.89556  0.51792  0.77417  1.0000
  H   H4931     1.0  0.83958  0.47551  0.81895  1.0000
  H   H4932     1.0  0.82971  0.48268  0.79405  1.0000
  H   H4933     1.0  0.84453  0.49604  0.80071  1.0000
  H   H4934     1.0  0.86346  0.46777  0.84668  1.0000
  H   H4935     1.0  0.86093  0.48603  0.83070  1.0000
  H   H4936     1.0  0.87986  0.48368  0.83205  1.0000
  S   S834      1.0  0.95892  0.62912  0.92436  1.0000
  N   N204      1.0  0.91367  0.36845  0.72057  1.0000
  H   H4937     1.0  0.79803  0.46795  0.51386  1.0000
  C   C2899     1.0  0.93055  0.36875  0.71459  1.0000
  C   C2900     1.0  0.90615  0.35878  0.70367  1.0000
  H   H4938     1.0  0.76019  0.38584  0.92141  1.0000
  S   S835      1.0  0.93694  0.63867  0.86627  1.0000
  H   H4939     1.0  0.92225  0.62873  0.93172  1.0000
  C   C2901     1.0  0.91223  0.36434  0.67125  1.0000
  H   H4940     1.0  0.91081  0.36752  0.76519  1.0000
  H   H4941     1.0  0.90972  0.34929  0.75764  1.0000
  C   C2902     1.0  0.76753  0.39521  0.95410  1.0000
  H   H4942     1.0  0.93687  0.37534  0.69256  1.0000
  H   H4943     1.0  0.93208  0.35680  0.71620  1.0000
  H   H4944     1.0  0.90697  0.34661  0.71023  1.0000
  H   H4945     1.0  0.76653  0.34311  0.88779  1.0000
  C   C2903     1.0  0.92460  0.32365  0.76528  1.0000
  H   H4946     1.0  0.81965  0.34939  0.94096  1.0000
  H   H4947     1.0  0.79804  0.49144  0.94463  1.0000
  H   H4948     1.0  0.81017  0.35158  0.63300  1.0000
  C   C2904     1.0  0.76853  0.46397  0.50425  1.0000
  C   C2905     1.0  0.75863  0.63620  0.65847  1.0000
  H   H4949     1.0  0.75554  0.40684  0.48906  1.0000
  C   C2906     1.0  0.97265  0.50280  0.60915  1.0000
  H   H4950     1.0  0.90895  0.37508  0.66268  1.0000
  H   H4951     1.0  0.90652  0.35543  0.66201  1.0000
  H   H4952     1.0  0.86249  0.53144  0.88480  1.0000
  H   H4953     1.0  0.79801  0.36451  0.63802  1.0000
  Fe  Fe415     1.0  0.97856  0.65134  0.81774  1.0000
  S   S836      1.0  0.79371  0.45324  0.96886  1.0000
  N   N205      1.0  0.82751  0.51905  0.64806  1.0000
  C   C2907     1.0  0.84251  0.52687  0.65295  1.0000
  C   C2908     1.0  0.81458  0.51944  0.67187  1.0000
  C   C2909     1.0  0.82622  0.52863  0.62046  1.0000
  C   C2910     1.0  0.82789  0.50275  0.64646  1.0000
  C   C2911     1.0  0.85728  0.52829  0.63015  1.0000
  C   C2912     1.0  0.81602  0.51308  0.70211  1.0000
  C   C2913     1.0  0.81093  0.52418  0.61239  1.0000
  C   C2914     1.0  0.81233  0.49042  0.65554  1.0000
  H   H4954     1.0  0.84245  0.53872  0.65525  1.0000
  H   H4955     1.0  0.84414  0.52054  0.67311  1.0000
  H   H4956     1.0  0.80321  0.51303  0.67064  1.0000
  H   H4957     1.0  0.81351  0.53149  0.67011  1.0000
  H   H4958     1.0  0.82815  0.54108  0.62053  1.0000
  H   H4959     1.0  0.83533  0.52823  0.60233  1.0000
  H   H4960     1.0  0.83373  0.50273  0.62463  1.0000
  H   H4961     1.0  0.83500  0.49796  0.65991  1.0000
  H   H4962     1.0  0.86747  0.53253  0.63786  1.0000
  H   H4963     1.0  0.85811  0.51697  0.62601  1.0000
  H   H4964     1.0  0.85828  0.53691  0.61013  1.0000
  H   H4965     1.0  0.81980  0.50218  0.70453  1.0000
  H   H4966     1.0  0.82417  0.52184  0.70805  1.0000
  H   H4967     1.0  0.80467  0.51074  0.71750  1.0000
  H   H4968     1.0  0.80952  0.51305  0.60647  1.0000
  H   H4969     1.0  0.81120  0.53313  0.59323  1.0000
  H   H4970     1.0  0.80077  0.52413  0.62884  1.0000
  H   H4971     1.0  0.80729  0.48741  0.67873  1.0000
  H   H4972     1.0  0.81433  0.47958  0.65044  1.0000
  H   H4973     1.0  0.80379  0.49390  0.64454  1.0000
  H   H4974     1.0  0.73244  0.41372  0.51365  1.0000
  H   H4975     1.0  0.81100  0.36693  0.60398  1.0000
  H   H4976     1.0  0.85249  0.37512  0.51715  1.0000
  H   H4977     1.0  0.95191  0.37802  0.72491  1.0000
  C   C2915     1.0  0.93930  0.37545  0.73437  1.0000
  C   C2916     1.0  0.93178  0.52332  0.69890  1.0000
  H   H4978     1.0  0.93652  0.38627  0.73790  1.0000
  H   H4979     1.0  0.78515  0.34949  0.91223  1.0000
  H   H4980     1.0  0.87593  0.39143  0.52234  1.0000
  C   C2917     1.0  0.79742  0.45533  0.51925  1.0000
  C   C2918     1.0  0.92211  0.60735  0.97899  1.0000
  H   H4981     1.0  0.75552  0.60637  0.64148  1.0000
  H   H4982     1.0  0.89364  0.35804  0.70790  1.0000
  N   N206      1.0  0.83828  0.60633  0.70541  1.0000
  C   C2919     1.0  0.84165  0.60795  0.73308  1.0000
  C   C2920     1.0  0.84194  0.62227  0.68549  1.0000
  C   C2921     1.0  0.84800  0.59698  0.69199  1.0000
  C   C2922     1.0  0.82153  0.59803  0.71114  1.0000
  C   C2923     1.0  0.84051  0.59267  0.75477  1.0000
  H   H4983     1.0  0.84653  0.40350  0.67114  1.0000
  C   C2924     1.0  0.86557  0.60279  0.68745  1.0000
  C   C2925     1.0  0.81532  0.59753  0.68478  1.0000
  H   H4984     1.0  0.85332  0.61569  0.72949  1.0000
  H   H4985     1.0  0.83354  0.61368  0.74406  1.0000
  H   H4986     1.0  0.84120  0.62153  0.66384  1.0000
  H   H4987     1.0  0.85405  0.62867  0.68280  1.0000
  H   H4988     1.0  0.84443  0.58466  0.70463  1.0000
  H   H4989     1.0  0.84621  0.59662  0.67079  1.0000
  H   H4990     1.0  0.81930  0.58574  0.72334  1.0000
  H   H4991     1.0  0.81401  0.60318  0.72486  1.0000
  H   H4992     1.0  0.84308  0.59538  0.77421  1.0000
  H   H4993     1.0  0.82880  0.58472  0.76121  1.0000
  H   H4994     1.0  0.84908  0.58654  0.74698  1.0000
  H   H4995     1.0  0.92478  0.36577  0.66382  1.0000
  S   S837      1.0  0.78092  0.38773  0.49682  1.0000
  H   H4996     1.0  0.82994  0.35184  0.81619  1.0000
  H   H4997     1.0  0.87034  0.61448  0.67257  1.0000
  H   H4998     1.0  0.87132  0.59484  0.67782  1.0000
  H   H4999     1.0  0.86890  0.60271  0.70758  1.0000
  H   H5000     1.0  0.76450  0.44044  0.50176  1.0000
  Fe  Fe416     1.0  0.75703  0.32871  0.96020  1.0000
  H   H5001     1.0  0.82181  0.59202  0.67036  1.0000
  N   N207      1.0  0.82754  0.36865  0.66003  1.0000
  C   C2926     1.0  0.84038  0.38101  0.66273  1.0000
  C   C2927     1.0  0.83359  0.35465  0.65744  1.0000
  C   C2928     1.0  0.81400  0.36390  0.68565  1.0000
  H   H5002     1.0  0.78992  0.42500  0.55064  1.0000
  H   H5003     1.0  0.81756  0.38511  0.63706  1.0000
  H   H5004     1.0  0.84546  0.37629  0.67987  1.0000
  H   H5005     1.0  0.85003  0.38496  0.64318  1.0000
  H   H5006     1.0  0.83365  0.37759  0.51965  1.0000
  H   H5007     1.0  0.83969  0.35166  0.67408  1.0000
  H   H5008     1.0  0.80826  0.37348  0.68688  1.0000
  H   H5009     1.0  0.92524  0.39396  0.66996  1.0000
  S   S838      1.0  0.94413  0.33399  0.75360  1.0000
  H   H5010     1.0  0.80468  0.35136  0.83786  1.0000
  C   C2929     1.0  0.74506  0.60210  0.65963  1.0000
  H   H5011     1.0  0.88499  0.35319  0.78480  1.0000
  H   H5012     1.0  0.78154  0.42504  0.49361  1.0000
  H   H5013     1.0  0.83598  0.34897  0.84797  1.0000
  Fe  Fe417     1.0  0.80588  0.39317  0.49832  1.0000
  H   H5014     1.0  0.78050  0.35873  0.86106  1.0000
  H   H5015     1.0  0.80703  0.37521  0.84859  1.0000
  H   H5016     1.0  0.87473  0.38000  0.48788  1.0000
  H   H5017     1.0  0.81710  0.54202  0.87514  1.0000
  H   H5018     1.0  0.76916  0.40717  0.94279  1.0000
  H   H5019     1.0  0.83377  0.63600  0.71420  1.0000
  H   H5020     1.0  0.92976  0.51036  0.64921  1.0000
  H   H5021     1.0  0.92964  0.53299  0.70801  1.0000
  H   H5022     1.0  0.89946  0.38398  0.70984  1.0000
  C   C2930     1.0  0.78869  0.43056  0.50606  1.0000
  C   C2931     1.0  0.76255  0.38312  0.94196  1.0000
  C   C2932     1.0  0.97788  0.55002  0.63424  1.0000
  C   C2933     1.0  0.91256  0.64575  0.94713  1.0000
  H   H5023     1.0  0.93764  0.57035  0.62974  1.0000
  S   S839      1.0  0.97195  0.34454  0.80244  1.0000
  C   C2934     1.0  0.96359  0.64155  0.94554  1.0000
  H   H5024     1.0  0.84394  0.54653  0.89764  1.0000
  C   C2935     1.0  0.74689  0.54136  0.53861  1.0000
  H   H5025     1.0  0.88329  0.34666  0.75425  1.0000
  H   H5026     1.0  0.78873  0.33300  0.90191  1.0000
  C   C2936     1.0  0.90644  0.36040  0.75158  1.0000
  N   N208      1.0  0.94815  0.54036  0.64935  1.0000
  C   C2937     1.0  0.94710  0.52809  0.67565  1.0000
  C   C2938     1.0  0.96299  0.54195  0.62794  1.0000
  C   C2939     1.0  0.93489  0.53602  0.63665  1.0000
  C   C2940     1.0  0.94763  0.55532  0.65727  1.0000
  H   H5027     1.0  0.82559  0.36761  0.71934  1.0000
  C   C2941     1.0  0.81431  0.53774  0.92141  1.0000
  H   H5028     1.0  0.80319  0.59044  0.69176  1.0000
  H   H5029     1.0  0.80901  0.33558  0.85950  1.0000
  C   C2942     1.0  0.93266  0.52009  0.62991  1.0000
  H   H5030     1.0  0.95638  0.53188  0.68583  1.0000
  H   H5031     1.0  0.96928  0.32737  0.97367  1.0000
  H   H5032     1.0  0.96435  0.53036  0.62591  1.0000
  Fe  Fe418     1.0  0.96023  0.32821  0.78079  1.0000
  H   H5033     1.0  0.76665  0.62883  0.65454  1.0000
  H   H5034     1.0  0.84895  0.65009  0.51373  1.0000
  H   H5035     1.0  0.95629  0.55842  0.66919  1.0000
  H   H5036     1.0  0.82237  0.46413  0.49986  1.0000
  H   H5037     1.0  0.80157  0.35288  0.93805  1.0000
  C   C2943     1.0  0.88871  0.35668  0.76128  1.0000
  H   H5038     1.0  0.81634  0.44323  0.51291  1.0000
  H   H5039     1.0  0.92764  0.60605  0.93442  1.0000
  H   H5040     1.0  0.96354  0.49742  0.57475  1.0000
  H   H5041     1.0  0.77085  0.46898  0.48110  1.0000
  H   H5042     1.0  0.93381  0.40088  0.69577  1.0000
  C   C2944     1.0  0.83617  0.39580  0.66848  1.0000
  C   C2945     1.0  0.83878  0.42284  0.52026  1.0000
  H   H5043     1.0  0.82086  0.37757  0.86837  1.0000
  H   H5044     1.0  0.85927  0.44188  0.50729  1.0000
  H   H5045     1.0  0.73836  0.59135  0.65630  1.0000
  H   H5046     1.0  0.80246  0.50194  0.96935  1.0000
  C   C2946     1.0  0.78977  0.34560  0.89343  1.0000
  C   C2947     1.0  0.80872  0.37153  0.87021  1.0000
  Fe  Fe419     1.0  0.94697  0.62851  0.83177  1.0000
  H   H5047     1.0  0.85816  0.39760  0.53106  1.0000
  C   C2948     1.0  0.92043  0.63232  0.95179  1.0000
  C   C2949     1.0  0.78300  0.42053  0.53696  1.0000
  C   C2950     1.0  0.82235  0.37508  0.63435  1.0000
  H   H5048     1.0  0.80495  0.35423  0.68394  1.0000
  H   H5049     1.0  0.91056  0.65059  0.96571  1.0000
  C   C2951     1.0  0.74983  0.53067  0.52289  1.0000
  H   H5050     1.0  0.93645  0.55401  0.67251  1.0000
  H   H5051     1.0  0.75035  0.58471  0.69082  1.0000
  N   N209      1.0  0.80638  0.35415  0.87935  1.0000
  C   C2952     1.0  0.91087  0.38447  0.71449  1.0000
  C   C2953     1.0  0.76083  0.36758  0.95614  1.0000
  C   C2954     1.0  0.79819  0.37879  0.88899  1.0000
  H   H5052     1.0  0.81626  0.64459  0.55162  1.0000
  H   H5053     1.0  0.93678  0.36679  0.75512  1.0000
  H   H5054     1.0  0.75603  0.46262  0.51316  1.0000
  C   C2955     1.0  0.81604  0.34970  0.89931  1.0000
  H   H5055     1.0  0.92029  0.65533  0.92910  1.0000
  H   H5056     1.0  0.81407  0.33682  0.90586  1.0000
  H   H5057     1.0  0.93632  0.54474  0.61638  1.0000
  C   C2956     1.0  0.81137  0.34843  0.85355  1.0000
  Fe  Fe420     1.0  0.95908  0.63925  0.87891  1.0000
  H   H5058     1.0  0.87614  0.40967  0.52994  1.0000
  C   C2957     1.0  0.94916  0.56949  0.63264  1.0000
  H   H5059     1.0  0.85508  0.36619  0.62369  1.0000
  C   C2958     1.0  0.77190  0.44786  0.51131  1.0000
  C   C2959     1.0  0.96411  0.63512  0.97330  1.0000
  H   H5060     1.0  0.83023  0.55148  0.95614  1.0000
  H   H5061     1.0  0.81520  0.60917  0.67275  1.0000
  S   S840      1.0  0.76893  0.34492  0.48842  1.0000
  H   H5062     1.0  0.82597  0.63020  0.54510  1.0000
  C   C2960     1.0  0.81377  0.35541  0.92635  1.0000
  H   H5063     1.0  0.82545  0.50339  0.93096  1.0000
  C   C2961     1.0  0.81421  0.45421  0.51665  1.0000
  C   C2962     1.0  0.73563  0.43480  0.48147  1.0000
  H   H5064     1.0  0.76272  0.64319  0.67242  1.0000
  S   S841      1.0  0.95796  0.65164  0.79994  1.0000
  H   H5065     1.0  0.83252  0.64900  0.50026  1.0000
  H   H5066     1.0  0.90163  0.64231  0.94116  1.0000
  H   H5067     1.0  0.75674  0.56562  0.48407  1.0000
  S   S842      1.0  0.76528  0.47109  0.97390  1.0000
  C   C2963     1.0  0.73770  0.52034  0.51765  1.0000
  S   S843      1.0  0.81000  0.37329  0.48019  1.0000
  H   H5068     1.0  0.74020  0.51214  0.50572  1.0000
  C   C2964     1.0  0.89687  0.61125  0.97199  1.0000
  H   H5069     1.0  0.81812  0.52332  0.97132  1.0000
  C   C2965     1.0  0.87290  0.40963  0.48824  1.0000
  H   H5070     1.0  0.93407  0.61353  0.97780  1.0000
  H   H5071     1.0  0.74330  0.41333  0.92718  1.0000
  H   H5072     1.0  0.84015  0.54118  0.97756  1.0000
  C   C2966     1.0  0.79416  0.65140  0.59570  1.0000
  C   C2967     1.0  0.97391  0.32680  0.95236  1.0000
  Fe  Fe421     1.0  0.96787  0.32321  0.83801  1.0000
  H   H5073     1.0  0.97870  0.56248  0.63273  1.0000
  H   H5074     1.0  0.74869  0.36881  0.51242  1.0000
  H   H5075     1.0  0.74110  0.62203  0.69544  1.0000
  C   C2968     1.0  0.74183  0.62663  0.67276  1.0000
  H   H5076     1.0  0.81852  0.37614  0.97412  1.0000
  H   H5077     1.0  0.73371  0.53238  0.61649  1.0000
  C   C2969     1.0  0.73928  0.36722  0.50162  1.0000
  N   N210      1.0  0.73584  0.61409  0.65941  1.0000
  C   C2970     1.0  0.73689  0.62203  0.62903  1.0000
  H   H5078     1.0  0.73447  0.63499  0.67269  1.0000
  S   S844      1.0  0.73422  0.55676  0.67835  1.0000
  H   H5079     1.0  0.95249  0.32594  0.94041  1.0000
  C   C2971     1.0  0.91578  0.32325  0.74547  1.0000
  H   H5080     1.0  0.73256  0.60066  0.61458  1.0000
  H   H5081     1.0  0.73381  0.35458  0.50794  1.0000
  H   H5082     1.0  0.73234  0.39362  0.93780  1.0000
  H   H5083     1.0  0.73340  0.61799  0.58916  1.0000
  H   H5084     1.0  0.73842  0.40507  0.97746  1.0000
  N   N211      1.0  0.91206  0.61856  0.97669  1.0000
  H   H5085     1.0  0.73238  0.54990  0.48496  1.0000
  S   S845      1.0  0.95798  0.32259  0.88379  1.0000
  H   H5086     1.0  0.87713  0.92780  0.99110  1.0000
  S   S846      1.0  0.95135  0.66892  0.06651  1.0000
  H   H5087     1.0  0.74669  0.86939  0.36172  1.0000
  H   H5088     1.0  0.94357  0.73915  0.14432  1.0000
  C   C2972     1.0  0.96453  0.78593  0.27165  1.0000
  H   H5089     1.0  0.95302  0.83190  0.07012  1.0000
  H   H5090     1.0  0.78255  0.95920  0.06076  1.0000
  Fe  Fe422     1.0  0.96437  0.68006  0.09373  1.0000
  S   S847      1.0  0.96050  0.70304  0.10070  1.0000
  C   C2973     1.0  0.77678  0.68765  0.20647  1.0000
  H   H5091     1.0  0.78454  0.80783  0.98259  1.0000
  H   H5092     1.0  0.80509  0.70906  0.17560  1.0000
  H   H5093     1.0  0.95677  0.73777  0.18140  1.0000
  C   C2974     1.0  0.73750  0.94211  0.22913  1.0000
  H   H5094     1.0  0.75836  0.86406  0.10908  1.0000
  H   H5095     1.0  0.84635  0.96978  0.04103  1.0000
  H   H5096     1.0  0.97834  0.75104  0.12704  1.0000
  H   H5097     1.0  0.78495  0.97047  0.01349  1.0000
  C   C2975     1.0  0.82867  0.71747  0.46093  1.0000
  H   H5098     1.0  0.95472  0.80750  0.08286  1.0000
  Fe  Fe423     1.0  0.96592  0.78032  0.20050  1.0000
  S   S848      1.0  0.94017  0.77789  0.21568  1.0000
  H   H5099     1.0  0.75432  0.85279  0.36357  1.0000
  H   H5100     1.0  0.77419  0.71382  0.17729  1.0000
  C   C2976     1.0  0.73866  0.94733  0.25316  1.0000
  H   H5101     1.0  0.73939  0.85502  0.34552  1.0000
  H   H5102     1.0  0.78410  0.68081  0.21594  1.0000
  H   H5103     1.0  0.93228  0.82674  0.12940  1.0000
  S   S849      1.0  0.73308  0.73229  0.14034  1.0000
  Fe  Fe424     1.0  0.97398  0.66544  0.04544  1.0000
  C   C2977     1.0  0.82153  0.96586  0.05244  1.0000
  C   C2978     1.0  0.79401  0.78942  0.99923  1.0000
  N   N212      1.0  0.76566  0.83172  0.14271  1.0000
  H   H5104     1.0  0.79942  0.72701  0.17621  1.0000
  H   H5105     1.0  0.75867  0.84884  0.18597  1.0000
  H   H5106     1.0  0.74810  0.83151  0.40765  1.0000
  H   H5107     1.0  0.93538  0.77432  0.11342  1.0000
  H   H5108     1.0  0.97882  0.74806  0.30091  1.0000
  C   C2979     1.0  0.76647  0.69683  0.24867  1.0000
  H   H5109     1.0  0.77693  0.85118  0.10606  1.0000
  C   C2980     1.0  0.97963  0.76064  0.29798  1.0000
  Fe  Fe425     1.0  0.75868  0.75617  0.20608  1.0000
  S   S850      1.0  0.76460  0.78225  0.19114  1.0000
  S   S851      1.0  0.76320  0.74115  0.24468  1.0000
  C   C2981     1.0  0.97242  0.80397  0.31965  1.0000
  H   H5110     1.0  0.77507  0.83153  0.17928  1.0000
  Fe  Fe426     1.0  0.77018  0.77900  0.14694  1.0000
  S   S852      1.0  0.79267  0.79278  0.11461  1.0000
  H   H5111     1.0  0.79775  0.70134  0.22893  1.0000
  S   S853      1.0  0.76619  0.75321  0.16246  1.0000
  Fe  Fe427     1.0  0.83245  0.69100  0.32199  1.0000
  S   S854      1.0  0.81904  0.70706  0.33749  1.0000
  S   S855      1.0  0.82048  0.66597  0.32420  1.0000
  Fe  Fe428     1.0  0.86358  0.71502  0.31079  1.0000
  S   S856      1.0  0.85207  0.73263  0.32505  1.0000
  S   S857      1.0  0.88975  0.71845  0.29909  1.0000
  Fe  Fe429     1.0  0.83699  0.71272  0.36149  1.0000
  S   S858      1.0  0.82830  0.71425  0.40730  1.0000
  Fe  Fe430     1.0  0.83524  0.72535  0.30007  1.0000
  S   S859      1.0  0.82916  0.74360  0.26859  1.0000
  S   S860      1.0  0.84927  0.69535  0.34857  1.0000
  S   S861      1.0  0.84787  0.70908  0.28324  1.0000
  H   H5112     1.0  0.76362  0.79280  0.98169  1.0000
  C   C2982     1.0  0.79722  0.82509  0.02750  1.0000
  C   C2983     1.0  0.78257  0.81693  0.04526  1.0000
  C   C2984     1.0  0.78099  0.80655  0.07153  1.0000
  C   C2985     1.0  0.79407  0.80455  0.08062  1.0000
  C   C2986     1.0  0.80872  0.81258  0.06273  1.0000
  C   C2987     1.0  0.81030  0.82271  0.03618  1.0000
  H   H5113     1.0  0.77238  0.81861  0.03860  1.0000
  H   H5114     1.0  0.76968  0.80025  0.08492  1.0000
  H   H5115     1.0  0.81890  0.81105  0.06953  1.0000
  H   H5116     1.0  0.82164  0.82888  0.02268  1.0000
  C   C2988     1.0  0.78162  0.74216  0.25110  1.0000
  C   C2989     1.0  0.79481  0.75304  0.23309  1.0000
  C   C2990     1.0  0.80929  0.75330  0.23871  1.0000
  C   C2991     1.0  0.81078  0.74246  0.26191  1.0000
  C   C2992     1.0  0.79763  0.73137  0.27957  1.0000
  C   C2993     1.0  0.78309  0.73144  0.27453  1.0000
  H   H5117     1.0  0.79386  0.76133  0.21495  1.0000
  H   H5118     1.0  0.81941  0.76191  0.22490  1.0000
  H   H5119     1.0  0.79867  0.72279  0.29713  1.0000
  H   H5120     1.0  0.77295  0.72301  0.28865  1.0000
  H   H5121     1.0  0.73656  0.85263  0.40878  1.0000
  H   H5122     1.0  0.97210  0.81127  0.25480  1.0000
  H   H5123     1.0  0.91398  0.81044  0.16409  1.0000
  C   C2994     1.0  0.95271  0.81751  0.15776  1.0000
  H   H5124     1.0  0.81518  0.68012  0.26961  1.0000
  C   C2995     1.0  0.95896  0.71749  0.22477  1.0000
  C   C2996     1.0  0.93873  0.70921  0.18576  1.0000
  Fe  Fe431     1.0  0.75835  0.98770  0.21218  1.0000
  C   C2997     1.0  0.94626  0.77911  0.31985  1.0000
  S   S862      1.0  0.97477  0.77812  0.15659  1.0000
  C   C2998     1.0  0.94421  0.73664  0.18867  1.0000
  C   C2999     1.0  0.79991  0.66174  0.25975  1.0000
  C   C3000     1.0  0.76148  0.67620  0.20848  1.0000
  H   H5125     1.0  0.74915  0.71797  0.18894  1.0000
  H   H5126     1.0  0.91628  0.69893  0.17904  1.0000
  C   C3001     1.0  0.75901  0.85854  0.13071  1.0000
  H   H5127     1.0  0.78177  0.96290  0.10635  1.0000
  C   C3002     1.0  0.96126  0.80187  0.26151  1.0000
  C   C3003     1.0  0.83636  0.96363  0.03483  1.0000
  C   C3004     1.0  0.95067  0.83395  0.09152  1.0000
  H   H5128     1.0  0.95478  0.78217  0.11595  1.0000
  H   H5129     1.0  0.79187  0.71869  0.22936  1.0000
  H   H5130     1.0  0.74696  0.71236  0.22613  1.0000
  H   H5131     1.0  0.95585  0.75619  0.29774  1.0000
  C   C3005     1.0  0.95169  0.80634  0.13840  1.0000
  S   S863      1.0  0.79857  0.83830  0.99501  1.0000
  S   S864      1.0  0.74631  0.77758  0.14151  1.0000
  H   H5132     1.0  0.92714  0.82060  0.10097  1.0000
  C   C3006     1.0  0.79406  0.96447  0.06331  1.0000
  H   H5133     1.0  0.96117  0.83448  0.09934  1.0000
  H   H5134     1.0  0.82446  0.77954  0.31774  1.0000
  C   C3007     1.0  0.75031  0.82734  0.10585  1.0000
  H   H5135     1.0  0.78033  0.85431  0.13820  1.0000
  H   H5136     1.0  0.75348  0.83985  0.09487  1.0000
  H   H5137     1.0  0.76642  0.70733  0.25664  1.0000
  C   C3008     1.0  0.92633  0.76153  0.23980  1.0000
  C   C3009     1.0  0.91060  0.76048  0.24212  1.0000
  C   C3010     1.0  0.89922  0.74754  0.26063  1.0000
  C   C3011     1.0  0.90348  0.73556  0.27721  1.0000
  C   C3012     1.0  0.91921  0.73682  0.27544  1.0000
  C   C3013     1.0  0.93061  0.74969  0.25673  1.0000
  H   H5138     1.0  0.90716  0.76964  0.22931  1.0000
  H   H5139     1.0  0.88715  0.74673  0.26182  1.0000
  H   H5140     1.0  0.92256  0.72765  0.28841  1.0000
  H   H5141     1.0  0.94266  0.75042  0.25536  1.0000
  H   H5142     1.0  0.77363  0.72475  0.20275  1.0000
  H   H5143     1.0  0.96539  0.72986  0.21917  1.0000
  H   H5144     1.0  0.94466  0.79086  0.31937  1.0000
  C   C3014     1.0  0.86009  0.72027  0.45384  1.0000
  C   C3015     1.0  0.85338  0.71848  0.43129  1.0000
  C   C3016     1.0  0.83757  0.71695  0.43472  1.0000
  H   H5145     1.0  0.92675  0.71681  0.15283  1.0000
  H   H5146     1.0  0.75714  0.67979  0.18961  1.0000
  H   H5147     1.0  0.87231  0.72128  0.45093  1.0000
  H   H5148     1.0  0.86044  0.71819  0.41132  1.0000
  H   H5149     1.0  0.74786  0.81142  0.14578  1.0000
  C   C3017     1.0  0.77756  0.82400  0.13036  1.0000
  H   H5150     1.0  0.79194  0.94814  0.10442  1.0000
  C   C3018     1.0  0.93264  0.77056  0.31058  1.0000
  H   H5151     1.0  0.96296  0.82753  0.14805  1.0000
  H   H5152     1.0  0.80567  0.93722  0.07273  1.0000
  H   H5153     1.0  0.83659  0.95127  0.03923  1.0000
  H   H5154     1.0  0.93506  0.80002  0.08472  1.0000
  H   H5155     1.0  0.74069  0.82744  0.14879  1.0000
  H   H5156     1.0  0.77336  0.81113  0.13824  1.0000
  H   H5157     1.0  0.82109  0.96053  0.07484  1.0000
  C   C3019     1.0  0.77167  0.68526  0.26967  1.0000
  H   H5158     1.0  0.93190  0.75800  0.31393  1.0000
  H   H5159     1.0  0.95465  0.81142  0.17792  1.0000
  N   N213      1.0  0.77589  0.70144  0.21830  1.0000
  N   N214      1.0  0.80665  0.95951  0.04551  1.0000
  H   H5160     1.0  0.74558  0.82549  0.37688  1.0000
  H   H5161     1.0  0.73935  0.80708  0.43717  1.0000
  H   H5162     1.0  0.96270  0.80213  0.33838  1.0000
  H   H5163     1.0  0.96150  0.71174  0.24458  1.0000
  H   H5164     1.0  0.74477  0.80200  0.40503  1.0000
  H   H5165     1.0  0.96522  0.73510  0.10004  1.0000
  H   H5166     1.0  0.94304  0.74427  0.20328  1.0000
  C   C3020     1.0  0.80969  0.93447  0.03008  1.0000
  H   H5167     1.0  0.92168  0.77149  0.32368  1.0000
  H   H5168     1.0  0.80473  0.78545  0.99541  1.0000
  C   C3021     1.0  0.80323  0.71745  0.18825  1.0000
  H   H5169     1.0  0.91710  0.72877  0.22409  1.0000
  H   H5170     1.0  0.93267  0.69945  0.15226  1.0000
  H   H5171     1.0  0.91541  0.79355  0.12926  1.0000
  H   H5172     1.0  0.82098  0.94127  0.01591  1.0000
  H   H5173     1.0  0.91337  0.72129  0.19588  1.0000
  H   H5174     1.0  0.94831  0.84558  0.08886  1.0000
  N   N215      1.0  0.93561  0.72007  0.20405  1.0000
  C   C3022     1.0  0.77120  0.84895  0.12900  1.0000
  H   H5175     1.0  0.81142  0.92321  0.04078  1.0000
  H   H5176     1.0  0.93597  0.70327  0.24174  1.0000
  H   H5177     1.0  0.93308  0.77580  0.28819  1.0000
  H   H5178     1.0  0.95776  0.77762  0.26256  1.0000
  H   H5179     1.0  0.78378  0.77953  0.00409  1.0000
  H   H5180     1.0  0.93820  0.72251  0.24515  1.0000
  C   C3023     1.0  0.94631  0.78339  0.10325  1.0000
  H   H5181     1.0  0.94467  0.77358  0.34275  1.0000
  C   C3024     1.0  0.94142  0.71564  0.23003  1.0000
  H   H5182     1.0  0.96318  0.80965  0.12296  1.0000
  H   H5183     1.0  0.78290  0.69155  0.18359  1.0000
  C   C3025     1.0  0.91870  0.71927  0.21387  1.0000
  H   H5184     1.0  0.79990  0.66894  0.23965  1.0000
  H   H5185     1.0  0.79825  0.84118  0.13159  1.0000
  C   C3026     1.0  0.76383  0.82813  0.17427  1.0000
  H   H5186     1.0  0.97900  0.79696  0.04379  1.0000
  C   C3027     1.0  0.75196  0.70985  0.20592  1.0000
  H   H5187     1.0  0.92708  0.74329  0.16604  1.0000
  C   C3028     1.0  0.92422  0.79491  0.14159  1.0000
  Fe  Fe432     1.0  0.74026  0.77899  0.18704  1.0000
  H   H5188     1.0  0.89632  0.70342  0.23662  1.0000
  C   C3029     1.0  0.73957  0.82455  0.39918  1.0000
  H   H5189     1.0  0.91023  0.70347  0.25673  1.0000
  H   H5190     1.0  0.95068  0.79454  0.15163  1.0000
  H   H5191     1.0  0.73512  0.80252  0.28814  1.0000
  H   H5192     1.0  0.95927  0.75684  0.33124  1.0000
  H   H5193     1.0  0.77988  0.76023  0.36719  1.0000
  C   C3030     1.0  0.96336  0.76292  0.30820  1.0000
  H   H5194     1.0  0.92583  0.78313  0.14934  1.0000
  C   C3031     1.0  0.91686  0.79911  0.16856  1.0000
  C   C3032     1.0  0.94375  0.79986  0.09739  1.0000
  C   C3033     1.0  0.80866  0.66811  0.27665  1.0000
  H   H5195     1.0  0.94240  0.82177  0.16380  1.0000
  H   H5196     1.0  0.78990  0.93737  0.05720  1.0000
  H   H5197     1.0  0.75938  0.81538  0.18401  1.0000
  N   N216      1.0  0.93914  0.80589  0.12297  1.0000
  N   N217      1.0  0.81173  0.75208  0.36323  1.0000
  C   C3034     1.0  0.82528  0.75318  0.37620  1.0000
  C   C3035     1.0  0.81796  0.75385  0.33204  1.0000
  C   C3036     1.0  0.80082  0.73622  0.37715  1.0000
  C   C3037     1.0  0.80409  0.76469  0.36890  1.0000
  C   C3038     1.0  0.82144  0.75050  0.40871  1.0000
  C   C3039     1.0  0.82929  0.76958  0.31511  1.0000
  C   C3040     1.0  0.78943  0.72996  0.36095  1.0000
  C   C3041     1.0  0.79137  0.76746  0.35395  1.0000
  H   H5198     1.0  0.83192  0.74472  0.37091  1.0000
  H   H5199     1.0  0.83357  0.76478  0.36737  1.0000
  H   H5200     1.0  0.80873  0.75204  0.32095  1.0000
  H   H5201     1.0  0.82391  0.74458  0.32901  1.0000
  H   H5202     1.0  0.80739  0.72728  0.38094  1.0000
  H   H5203     1.0  0.79384  0.73582  0.39843  1.0000
  H   H5204     1.0  0.79859  0.76224  0.39192  1.0000
  H   H5205     1.0  0.81272  0.77600  0.36432  1.0000
  H   H5206     1.0  0.81681  0.75983  0.41551  1.0000
  H   H5207     1.0  0.81343  0.73903  0.42016  1.0000
  H   H5208     1.0  0.83224  0.75064  0.41561  1.0000
  C   C3042     1.0  0.97069  0.71410  0.11921  1.0000
  H   H5209     1.0  0.74318  0.94978  0.20831  1.0000
  H   H5210     1.0  0.84055  0.77090  0.32046  1.0000
  H   H5211     1.0  0.78113  0.71913  0.37501  1.0000
  H   H5212     1.0  0.79553  0.72673  0.34243  1.0000
  H   H5213     1.0  0.78267  0.73808  0.35402  1.0000
  S   S865      1.0  0.97519  0.82137  0.00120  1.0000
  H   H5214     1.0  0.79323  0.76549  0.33260  1.0000
  H   H5215     1.0  0.79116  0.77985  0.35043  1.0000
  C   C3043     1.0  0.79364  0.82851  0.13583  1.0000
  H   H5216     1.0  0.78309  0.69038  0.27259  1.0000
  H   H5217     1.0  0.74168  0.83416  0.18757  1.0000
  H   H5218     1.0  0.75414  0.69165  0.25092  1.0000
  H   H5219     1.0  0.92414  0.79860  0.18373  1.0000
  Fe  Fe433     1.0  0.74173  0.75179  0.15988  1.0000
  H   H5220     1.0  0.95263  0.80477  0.27699  1.0000
  C   C3044     1.0  0.97441  0.78849  0.31366  1.0000
  C   C3045     1.0  0.80919  0.65882  0.30242  1.0000
  C   C3046     1.0  0.79255  0.96051  0.09548  1.0000
  H   H5221     1.0  0.74724  0.85204  0.14318  1.0000
  H   H5222     1.0  0.85223  0.66467  0.45979  1.0000
  H   H5223     1.0  0.81207  0.97966  0.00991  1.0000
  S   S866      1.0  0.74862  0.96665  0.25081  1.0000
  C   C3047     1.0  0.75339  0.83623  0.19089  1.0000
  H   H5224     1.0  0.97750  0.69518  0.14266  1.0000
  C   C3048     1.0  0.76963  0.71286  0.20019  1.0000
  H   H5225     1.0  0.75199  0.83148  0.21390  1.0000
  H   H5226     1.0  0.77964  0.82664  0.10695  1.0000
  H   H5227     1.0  0.83838  0.96882  0.01188  1.0000
  H   H5228     1.0  0.79559  0.97718  0.05609  1.0000
  C   C3049     1.0  0.80260  0.94199  0.05284  1.0000
  C   C3050     1.0  0.93651  0.82163  0.11212  1.0000
  C   C3051     1.0  0.85589  0.67696  0.46014  1.0000
  H   H5229     1.0  0.73762  0.79058  0.24761  1.0000
  H   H5230     1.0  0.83172  0.77010  0.29219  1.0000
  H   H5231     1.0  0.76337  0.68211  0.29080  1.0000
  H   H5232     1.0  0.95115  0.78111  0.08270  1.0000
  H   H5233     1.0  0.76258  0.86817  0.14027  1.0000
  H   H5234     1.0  0.91122  0.69363  0.22874  1.0000
  C   C3052     1.0  0.90869  0.70396  0.23512  1.0000
  C   C3053     1.0  0.92789  0.70614  0.16655  1.0000
  H   H5235     1.0  0.80154  0.93154  0.01720  1.0000
  C   C3054     1.0  0.74358  0.85667  0.36417  1.0000
  H   H5236     1.0  0.94551  0.75657  0.15514  1.0000
  C   C3055     1.0  0.93956  0.74404  0.16214  1.0000
  H   H5237     1.0  0.93830  0.69754  0.19885  1.0000
  H   H5238     1.0  0.76349  0.66449  0.20952  1.0000
  H   H5239     1.0  0.75238  0.67448  0.22793  1.0000
  H   H5240     1.0  0.95066  0.71346  0.17187  1.0000
  H   H5241     1.0  0.80192  0.82446  0.12138  1.0000
  H   H5242     1.0  0.79360  0.82253  0.15764  1.0000
  H   H5243     1.0  0.90583  0.79026  0.17960  1.0000
  C   C3056     1.0  0.75070  0.82426  0.13721  1.0000
  C   C3057     1.0  0.79207  0.70954  0.21780  1.0000
  C   C3058     1.0  0.80779  0.96682  0.01487  1.0000
  H   H5244     1.0  0.84903  0.68386  0.44939  1.0000
  H   H5245     1.0  0.77177  0.67431  0.26339  1.0000
  H   H5246     1.0  0.81464  0.72280  0.19104  1.0000
  H   H5247     1.0  0.81644  0.96344  0.00009  1.0000
  H   H5248     1.0  0.73708  0.68145  0.15738  1.0000
  H   H5249     1.0  0.82335  0.97855  0.05022  1.0000
  H   H5250     1.0  0.97113  0.81223  0.30123  1.0000
  C   C3059     1.0  0.97079  0.72985  0.11524  1.0000
  H   H5251     1.0  0.96345  0.71199  0.20819  1.0000
  S   S867      1.0  0.73379  0.75301  0.20487  1.0000
  H   H5252     1.0  0.86803  0.68167  0.44735  1.0000
  H   H5253     1.0  0.75780  0.82144  0.09406  1.0000
  H   H5254     1.0  0.80208  0.96809  0.10065  1.0000
  H   H5255     1.0  0.79519  0.96684  0.98236  1.0000
  H   H5256     1.0  0.87647  0.88978  0.99105  1.0000
  N   N218      1.0  0.96209  0.77951  0.30307  1.0000
  H   H5257     1.0  0.73840  0.82241  0.10479  1.0000
  H   H5258     1.0  0.78649  0.95095  0.01322  1.0000
  H   H5259     1.0  0.74621  0.69799  0.20602  1.0000
  C   C3060     1.0  0.97813  0.73888  0.13063  1.0000
  H   H5260     1.0  0.83415  0.92409  0.98164  1.0000
  H   H5261     1.0  0.97665  0.78719  0.26029  1.0000
  H   H5262     1.0  0.81644  0.71633  0.46393  1.0000
  H   H5263     1.0  0.79349  0.79358  0.01865  1.0000
  C   C3061     1.0  0.79263  0.96341  0.00581  1.0000
  S   S868      1.0  0.95959  0.65754  0.12662  1.0000
  H   H5264     1.0  0.95635  0.80193  0.24295  1.0000
  H   H5265     1.0  0.97537  0.78134  0.33397  1.0000
  C   C3062     1.0  0.97782  0.70738  0.13900  1.0000
  C   C3063     1.0  0.73662  0.80752  0.41642  1.0000
  S   S869      1.0  0.75448  0.98820  0.16910  1.0000
  S   S870      1.0  0.98094  0.76696  0.21944  1.0000
  H   H5266     1.0  0.86577  0.91218  0.98213  1.0000
  S   S871      1.0  0.98188  0.67303  0.99756  1.0000
  H   H5267     1.0  0.73242  0.94085  0.29881  1.0000
  H   H5268     1.0  0.77692  0.94412  0.49062  1.0000
  H   H5269     1.0  0.81544  0.93665  0.91007  1.0000
  H   H5270     1.0  0.75334  0.88792  0.54487  1.0000
  H   H5271     1.0  0.87025  0.87418  0.97651  1.0000
  S   S872      1.0  0.93913  0.68216  0.83163  1.0000
  H   H5272     1.0  0.75267  0.88437  0.51148  1.0000
  H   H5273     1.0  0.94286  0.74509  0.68637  1.0000
  H   H5274     1.0  0.77488  0.92693  0.51637  1.0000
  H   H5275     1.0  0.94629  0.74046  0.83239  1.0000
  H   H5276     1.0  0.74411  0.84926  0.78898  1.0000
  H   H5277     1.0  0.76426  0.87568  0.73675  1.0000
  Fe  Fe434     1.0  0.96965  0.76517  0.73122  1.0000
  S   S873      1.0  0.94646  0.76616  0.75434  1.0000
  C   C3064     1.0  0.75175  0.86143  0.68730  1.0000
  H   H5278     1.0  0.83683  0.74445  0.70162  1.0000
  S   S874      1.0  0.95386  0.80124  0.71624  1.0000
  Fe  Fe435     1.0  0.95853  0.78978  0.75732  1.0000
  S   S875      1.0  0.95387  0.79523  0.80109  1.0000
  Fe  Fe436     1.0  0.94387  0.77727  0.71124  1.0000
  S   S876      1.0  0.92020  0.76671  0.70336  1.0000
  S   S877      1.0  0.96696  0.77539  0.68802  1.0000
  Fe  Fe437     1.0  0.83807  0.69489  0.61274  1.0000
  S   S878      1.0  0.82755  0.70902  0.58320  1.0000
  S   S879      1.0  0.82949  0.66826  0.62876  1.0000
  Fe  Fe438     1.0  0.86479  0.72344  0.60929  1.0000
  S   S880      1.0  0.85600  0.73879  0.57797  1.0000
  S   S881      1.0  0.88783  0.73443  0.61906  1.0000
  Fe  Fe439     1.0  0.83250  0.72700  0.60749  1.0000
  S   S882      1.0  0.81714  0.74314  0.61643  1.0000
  Fe  Fe440     1.0  0.85180  0.71957  0.55628  1.0000
  S   S883      1.0  0.84122  0.71212  0.63942  1.0000
  S   S884      1.0  0.86239  0.70495  0.58525  1.0000
  Fe  Fe441     1.0  0.96638  0.86644  0.93178  1.0000
  S   S885      1.0  0.94740  0.87823  0.92327  1.0000
  S   S886      1.0  0.96444  0.84138  0.93296  1.0000
  H   H5279     1.0  0.84203  0.97770  0.82915  1.0000
  H   H5280     1.0  0.89121  0.93472  0.90752  1.0000
  H   H5281     1.0  0.85177  0.67410  0.57270  1.0000
  Fe  Fe442     1.0  0.75648  0.96236  0.70860  1.0000
  H   H5282     1.0  0.89485  0.91304  0.97487  1.0000
  S   S887      1.0  0.74718  0.93865  0.69929  1.0000
  C   C3065     1.0  0.74826  0.91494  0.55716  1.0000
  H   H5283     1.0  0.73988  0.76999  0.67068  1.0000
  H   H5284     1.0  0.80976  0.96271  0.82630  1.0000
  S   S888      1.0  0.78119  0.97339  0.70802  1.0000
  S   S889      1.0  0.74757  0.96556  0.75221  1.0000
  H   H5285     1.0  0.77436  0.86819  0.69387  1.0000
  H   H5286     1.0  0.83648  0.94855  0.80659  1.0000
  H   H5287     1.0  0.82981  0.66930  0.55610  1.0000
  Fe  Fe443     1.0  0.74530  0.77245  0.77092  1.0000
  S   S890      1.0  0.75751  0.77373  0.72634  1.0000
  C   C3066     1.0  0.79412  0.80289  0.97455  1.0000
  Fe  Fe444     1.0  0.77213  0.79723  0.77778  1.0000
  S   S891      1.0  0.78624  0.79981  0.73366  1.0000
  S   S892      1.0  0.77637  0.81397  0.80572  1.0000
  Fe  Fe445     1.0  0.76416  0.79956  0.72024  1.0000
  S   S893      1.0  0.76441  0.81793  0.68128  1.0000
  Fe  Fe446     1.0  0.77837  0.77375  0.74336  1.0000
  S   S894      1.0  0.79375  0.75760  0.73482  1.0000
  S   S895      1.0  0.75049  0.79831  0.76344  1.0000
  S   S896      1.0  0.76570  0.77102  0.78885  1.0000
  C   C3067     1.0  0.73289  0.81410  0.69050  1.0000
  H   H5288     1.0  0.87263  0.92241  0.91953  1.0000
  Fe  Fe447     1.0  0.85543  0.85336  0.93666  1.0000
  S   S897      1.0  0.85525  0.86581  0.89297  1.0000
  S   S898      1.0  0.87557  0.84583  0.95095  1.0000
  Fe  Fe448     1.0  0.82065  0.84872  0.95953  1.0000
  S   S899      1.0  0.81805  0.86123  0.91735  1.0000
  Fe  Fe449     1.0  0.83330  0.84764  0.89833  1.0000
  S   S900      1.0  0.83020  0.83381  0.86547  1.0000
  Fe  Fe450     1.0  0.83993  0.87847  0.91540  1.0000
  S   S901      1.0  0.84490  0.90465  0.89648  1.0000
  S   S902      1.0  0.83466  0.83419  0.94064  1.0000
  H   H5289     1.0  0.78249  0.83205  0.91573  1.0000
  C   C3068     1.0  0.79150  0.81925  0.82216  1.0000
  C   C3069     1.0  0.79017  0.82952  0.83950  1.0000
  C   C3070     1.0  0.80187  0.83419  0.85275  1.0000
  C   C3071     1.0  0.81513  0.82867  0.84883  1.0000
  C   C3072     1.0  0.81645  0.81842  0.83149  1.0000
  C   C3073     1.0  0.80473  0.81371  0.81831  1.0000
  H   H5290     1.0  0.78002  0.83393  0.84263  1.0000
  H   H5291     1.0  0.80069  0.84216  0.86580  1.0000
  H   H5292     1.0  0.82663  0.81406  0.82823  1.0000
  H   H5293     1.0  0.80599  0.80585  0.80504  1.0000
  C   C3074     1.0  0.85426  0.67370  0.55023  1.0000
  H   H5294     1.0  0.85286  0.97468  0.79785  1.0000
  N   N219      1.0  0.88953  0.91205  0.93487  1.0000
  H   H5295     1.0  0.84590  0.95028  0.83396  1.0000
  H   H5296     1.0  0.75462  0.92625  0.58873  1.0000
  H   H5297     1.0  0.80868  0.78364  0.95150  1.0000
  H   H5298     1.0  0.76253  0.86226  0.78534  1.0000
  C   C3075     1.0  0.75296  0.93095  0.50735  1.0000
  C   C3076     1.0  0.88644  0.91792  0.88374  1.0000
  C   C3077     1.0  0.73817  0.93069  0.67473  1.0000
  C   C3078     1.0  0.84333  0.94282  0.94351  1.0000
  C   C3079     1.0  0.84887  0.94657  0.91410  1.0000
  C   C3080     1.0  0.84925  0.93472  0.90013  1.0000
  C   C3081     1.0  0.84388  0.91900  0.91532  1.0000
  C   C3082     1.0  0.83847  0.91522  0.94480  1.0000
  C   C3083     1.0  0.83827  0.92710  0.95882  1.0000
  H   H5299     1.0  0.85315  0.95862  0.90219  1.0000
  H   H5300     1.0  0.84009  0.68804  0.53509  1.0000
  H   H5301     1.0  0.78162  0.77427  0.96167  1.0000
  C   C3084     1.0  0.74882  0.83291  0.64754  1.0000
  H   H5302     1.0  0.85393  0.93777  0.87744  1.0000
  Fe  Fe451     1.0  0.97723  0.79836  0.69563  1.0000
  H   H5303     1.0  0.97590  0.73303  0.81271  1.0000
  H   H5304     1.0  0.86576  0.89814  0.94953  1.0000
  C   C3085     1.0  0.83983  0.78908  0.65711  1.0000
  H   H5305     1.0  0.74688  0.87055  0.69438  1.0000
  H   H5306     1.0  0.89868  0.91984  0.87242  1.0000
  H   H5307     1.0  0.81880  0.96656  0.86451  1.0000
  C   C3086     1.0  0.87896  0.88536  0.97205  1.0000
  H   H5308     1.0  0.83146  0.76472  0.66933  1.0000
  H   H5309     1.0  0.83339  0.97534  0.80032  1.0000
  H   H5310     1.0  0.79857  0.98508  0.87301  1.0000
  H   H5311     1.0  0.82989  0.92292  0.82068  1.0000
  H   H5312     1.0  0.92322  0.88717  0.90095  1.0000
  C   C3087     1.0  0.96748  0.65765  0.93480  1.0000
  C   C3088     1.0  0.87255  0.77253  0.60118  1.0000
  H   H5313     1.0  0.78816  0.83022  0.94793  1.0000
  C   C3089     1.0  0.92760  0.86872  0.93040  1.0000
  C   C3090     1.0  0.92104  0.85424  0.94988  1.0000
  C   C3091     1.0  0.90511  0.84742  0.95577  1.0000
  C   C3092     1.0  0.89559  0.85488  0.94209  1.0000
  C   C3093     1.0  0.90224  0.86916  0.92200  1.0000
  C   C3094     1.0  0.75106  0.92936  0.56876  1.0000
  H   H5314     1.0  0.77892  0.97405  0.84993  1.0000
  H   H5315     1.0  0.81152  0.95452  0.91406  1.0000
  H   H5316     1.0  0.75166  0.94197  0.51264  1.0000
  C   C3095     1.0  0.84122  0.97130  0.81272  1.0000
  H   H5317     1.0  0.74911  0.93163  0.48754  1.0000
  C   C3096     1.0  0.80948  0.74607  0.64990  1.0000
  C   C3097     1.0  0.81055  0.73676  0.67517  1.0000
  C   C3098     1.0  0.80527  0.74019  0.70110  1.0000
  C   C3099     1.0  0.79877  0.75284  0.70211  1.0000
  C   C3100     1.0  0.79727  0.76186  0.67695  1.0000
  C   C3101     1.0  0.80262  0.75849  0.65100  1.0000
  H   H5318     1.0  0.81562  0.72706  0.67470  1.0000
  H   H5319     1.0  0.80637  0.73309  0.72049  1.0000
  H   H5320     1.0  0.79231  0.77164  0.67741  1.0000
  H   H5321     1.0  0.80167  0.76570  0.63159  1.0000
  C   C3102     1.0  0.96493  0.80844  0.81588  1.0000
  C   C3103     1.0  0.96849  0.81741  0.85785  1.0000
  C   C3104     1.0  0.96054  0.80691  0.84527  1.0000
  H   H5322     1.0  0.96499  0.81594  0.88046  1.0000
  H   H5323     1.0  0.95085  0.79755  0.85841  1.0000
  C   C3105     1.0  0.91159  0.75786  0.67931  1.0000
  C   C3106     1.0  0.91970  0.75884  0.65170  1.0000
  C   C3107     1.0  0.91227  0.75165  0.63376  1.0000
  C   C3108     1.0  0.89666  0.74319  0.64299  1.0000
  C   C3109     1.0  0.88871  0.74184  0.67086  1.0000
  C   C3110     1.0  0.89601  0.74929  0.68860  1.0000
  H   H5324     1.0  0.93166  0.76528  0.64402  1.0000
  H   H5325     1.0  0.91870  0.75272  0.61242  1.0000
  H   H5326     1.0  0.87697  0.73489  0.67886  1.0000
  H   H5327     1.0  0.88957  0.74823  0.70991  1.0000
  H   H5328     1.0  0.83045  0.79090  0.67309  1.0000
  H   H5329     1.0  0.88337  0.77919  0.60409  1.0000
  C   C3111     1.0  0.79293  0.98446  0.80722  1.0000
  H   H5330     1.0  0.87271  0.76020  0.60441  1.0000
  N   N220      1.0  0.97863  0.75309  0.82971  1.0000
  H   H5331     1.0  0.77184  0.84472  0.76547  1.0000
  C   C3112     1.0  0.97358  0.66084  0.97879  1.0000
  S   S903      1.0  0.97116  0.66319  0.85134  1.0000
  H   H5332     1.0  0.94398  0.75873  0.81516  1.0000
  H   H5333     1.0  0.82611  0.67150  0.48114  1.0000
  C   C3113     1.0  0.95063  0.69942  0.80697  1.0000
  C   C3114     1.0  0.94509  0.71277  0.80371  1.0000
  C   C3115     1.0  0.95356  0.72640  0.78280  1.0000
  C   C3116     1.0  0.96780  0.72688  0.76548  1.0000
  H   H5334     1.0  0.77103  0.81704  0.94609  1.0000
  C   C3117     1.0  0.96496  0.69993  0.78993  1.0000
  H   H5335     1.0  0.93402  0.71242  0.81690  1.0000
  H   H5336     1.0  0.94899  0.73646  0.78007  1.0000
  C   C3118     1.0  0.74812  0.83673  0.74344  1.0000
  H   H5337     1.0  0.87826  0.89021  0.92858  1.0000
  H   H5338     1.0  0.79898  0.94222  0.90030  1.0000
  H   H5339     1.0  0.73669  0.84431  0.62003  1.0000
  H   H5340     1.0  0.80151  0.78009  0.90776  1.0000
  H   H5341     1.0  0.79149  0.83614  0.74039  1.0000
  H   H5342     1.0  0.94769  0.75637  0.84895  1.0000
  H   H5343     1.0  0.84281  0.77180  0.69078  1.0000
  H   H5344     1.0  0.90010  0.83631  0.97124  1.0000
  H   H5345     1.0  0.80587  0.67389  0.59873  1.0000
  H   H5346     1.0  0.85011  0.79868  0.65341  1.0000
  C   C3119     1.0  0.84754  0.74238  0.68996  1.0000
  H   H5347     1.0  0.82921  0.92801  0.86780  1.0000
  H   H5348     1.0  0.78926  0.84459  0.70634  1.0000
  H   H5349     1.0  0.84513  0.72974  0.69165  1.0000
  H   H5350     1.0  0.78316  0.86110  0.73748  1.0000
  H   H5351     1.0  0.86244  0.74740  0.64842  1.0000
  C   C3120     1.0  0.84238  0.77296  0.66834  1.0000
  H   H5352     1.0  0.88955  0.79446  0.65212  1.0000
  S   S904      1.0  0.97968  0.86682  0.96541  1.0000
  Fe  Fe452     1.0  0.97945  0.84226  0.96368  1.0000
  H   H5353     1.0  0.74486  0.86720  0.73982  1.0000
  H   H5354     1.0  0.76852  0.84880  0.69155  1.0000
  H   H5355     1.0  0.85712  0.66255  0.54937  1.0000
  C   C3121     1.0  0.87528  0.92288  0.97321  1.0000
  H   H5356     1.0  0.74114  0.90489  0.49757  1.0000
  C   C3122     1.0  0.74171  0.90246  0.52007  1.0000
  H   H5357     1.0  0.90841  0.90183  0.94059  1.0000
  C   C3123     1.0  0.78300  0.82344  0.93468  1.0000
  C   C3124     1.0  0.77452  0.84977  0.74215  1.0000
  H   H5358     1.0  0.80996  0.94679  0.81255  1.0000
  C   C3125     1.0  0.97273  0.66727  0.95123  1.0000
  H   H5359     1.0  0.82832  0.71935  0.50361  1.0000
  Fe  Fe453     1.0  0.84317  0.98229  0.94178  1.0000
  H   H5360     1.0  0.73657  0.90710  0.69636  1.0000
  C   C3126     1.0  0.74752  0.82178  0.67271  1.0000
  H   H5361     1.0  0.85905  0.78743  0.61406  1.0000
  H   H5362     1.0  0.78428  0.94218  0.83602  1.0000
  C   C3127     1.0  0.75175  0.86100  0.77823  1.0000
  C   C3128     1.0  0.82159  0.95517  0.87040  1.0000
  H   H5363     1.0  0.80926  0.92098  0.82679  1.0000
  H   H5364     1.0  0.92816  0.84842  0.96081  1.0000
  H   H5365     1.0  0.78948  0.80958  0.90679  1.0000
  S   S905      1.0  0.84134  0.86700  0.95897  1.0000
  C   C3129     1.0  0.87033  0.77430  0.66096  1.0000
  C   C3130     1.0  0.87694  0.79198  0.65410  1.0000
  H   H5366     1.0  0.86824  0.77002  0.68429  1.0000
  H   H5367     1.0  0.87974  0.76917  0.65251  1.0000
  H   H5368     1.0  0.85674  0.74512  0.70076  1.0000
  H   H5369     1.0  0.83579  0.78972  0.63752  1.0000
  H   H5370     1.0  0.87152  0.79669  0.67124  1.0000
  H   H5371     1.0  0.87585  0.79838  0.63354  1.0000
  Fe  Fe454     1.0  0.94981  0.66181  0.83574  1.0000
  N   N221      1.0  0.74288  0.91700  0.53033  1.0000
  C   C3131     1.0  0.96792  0.75900  0.81344  1.0000
  N   N222      1.0  0.79336  0.79887  0.94701  1.0000
  C   C3132     1.0  0.91813  0.87611  0.91645  1.0000
  C   C3133     1.0  0.95057  0.75316  0.82874  1.0000
  C   C3134     1.0  0.80517  0.66160  0.60376  1.0000
  C   C3135     1.0  0.97576  0.73583  0.83328  1.0000
  H   H5372     1.0  0.75679  0.86594  0.66407  1.0000
  H   H5373     1.0  0.82167  0.78824  0.90143  1.0000
  H   H5374     1.0  0.74883  0.83027  0.76451  1.0000
  H   H5375     1.0  0.88134  0.92543  0.86981  1.0000
  C   C3136     1.0  0.84019  0.67556  0.53865  1.0000
  H   H5376     1.0  0.77903  0.78371  0.92940  1.0000
  H   H5377     1.0  0.96304  0.86068  0.82690  1.0000
  H   H5378     1.0  0.90467  0.90266  0.90752  1.0000
  H   H5379     1.0  0.91541  0.93440  0.90130  1.0000
  H   H5380     1.0  0.96159  0.74192  0.67907  1.0000
  C   C3137     1.0  0.88485  0.92235  0.91209  1.0000
  C   C3138     1.0  0.89046  0.91981  0.95844  1.0000
  C   C3139     1.0  0.81950  0.92984  0.85849  1.0000
  H   H5381     1.0  0.87163  0.93158  0.95868  1.0000
  H   H5382     1.0  0.75048  0.82925  0.72900  1.0000
  H   H5383     1.0  0.73376  0.73632  0.77245  1.0000
  C   C3140     1.0  0.75521  0.86450  0.74566  1.0000
  H   H5384     1.0  0.74254  0.85085  0.69024  1.0000
  C   C3141     1.0  0.82712  0.67555  0.50033  1.0000
  N   N223      1.0  0.93295  0.84320  0.86482  1.0000
  C   C3142     1.0  0.94804  0.85030  0.87035  1.0000
  C   C3143     1.0  0.92350  0.83119  0.89171  1.0000
  C   C3144     1.0  0.92495  0.85596  0.85802  1.0000
  C   C3145     1.0  0.93652  0.83637  0.84003  1.0000
  C   C3146     1.0  0.95900  0.86412  0.84654  1.0000
  C   C3147     1.0  0.93025  0.81737  0.90116  1.0000
  C   C3148     1.0  0.90730  0.85110  0.86277  1.0000
  C   C3149     1.0  0.92291  0.82629  0.83309  1.0000
  H   H5385     1.0  0.94595  0.85436  0.88999  1.0000
  H   H5386     1.0  0.95484  0.84162  0.87409  1.0000
  H   H5387     1.0  0.91172  0.82610  0.89042  1.0000
  H   H5388     1.0  0.92164  0.83672  0.90953  1.0000
  H   H5389     1.0  0.92700  0.86429  0.87106  1.0000
  H   H5390     1.0  0.92986  0.86294  0.83561  1.0000
  H   H5391     1.0  0.94240  0.84571  0.82023  1.0000
  H   H5392     1.0  0.94519  0.82958  0.84209  1.0000
  H   H5393     1.0  0.95382  0.87407  0.84204  1.0000
  H   H5394     1.0  0.96945  0.86832  0.85353  1.0000
  H   H5395     1.0  0.96465  0.74849  0.87272  1.0000
  H   H5396     1.0  0.93250  0.81123  0.88445  1.0000
  H   H5397     1.0  0.94084  0.82093  0.90808  1.0000
  H   H5398     1.0  0.92175  0.80885  0.91982  1.0000
  H   H5399     1.0  0.90354  0.84219  0.85199  1.0000
  H   H5400     1.0  0.90329  0.86140  0.85419  1.0000
  H   H5401     1.0  0.90131  0.84695  0.88570  1.0000
  H   H5402     1.0  0.91811  0.83349  0.81805  1.0000
  H   H5403     1.0  0.91356  0.81928  0.85180  1.0000
  H   H5404     1.0  0.92710  0.81763  0.82298  1.0000
  N   N224      1.0  0.92827  0.71386  0.72225  1.0000
  C   C3150     1.0  0.92688  0.70175  0.74910  1.0000
  C   C3151     1.0  0.91901  0.72488  0.73046  1.0000
  C   C3152     1.0  0.94501  0.72258  0.71064  1.0000
  C   C3153     1.0  0.92258  0.70575  0.70153  1.0000
  C   C3154     1.0  0.93723  0.69042  0.74666  1.0000
  C   C3155     1.0  0.90184  0.71748  0.74559  1.0000
  C   C3156     1.0  0.94914  0.73608  0.68379  1.0000
  C   C3157     1.0  0.91693  0.71540  0.67822  1.0000
  H   H5405     1.0  0.92935  0.70736  0.76593  1.0000
  H   H5406     1.0  0.91488  0.69434  0.75783  1.0000
  H   H5407     1.0  0.91939  0.73415  0.71203  1.0000
  H   H5408     1.0  0.92414  0.73119  0.74454  1.0000
  H   H5409     1.0  0.94929  0.72744  0.72704  1.0000
  H   H5410     1.0  0.95231  0.71474  0.70510  1.0000
  H   H5411     1.0  0.93166  0.70090  0.69085  1.0000
  H   H5412     1.0  0.91262  0.69561  0.71309  1.0000
  H   H5413     1.0  0.94949  0.69621  0.74403  1.0000
  H   H5414     1.0  0.93375  0.68107  0.76677  1.0000
  H   H5415     1.0  0.93612  0.68482  0.72931  1.0000
  H   H5416     1.0  0.89613  0.70980  0.73430  1.0000
  H   H5417     1.0  0.90033  0.71095  0.76781  1.0000
  H   H5418     1.0  0.89580  0.72685  0.74652  1.0000
  H   H5419     1.0  0.73282  0.68896  0.84146  1.0000
  H   H5420     1.0  0.73983  0.90529  0.57430  1.0000
  C   C3158     1.0  0.78993  0.98148  0.83695  1.0000
  H   H5421     1.0  0.91985  0.71161  0.65853  1.0000
  H   H5422     1.0  0.92199  0.72802  0.67233  1.0000
  H   H5423     1.0  0.90416  0.71305  0.68410  1.0000
  C   C3159     1.0  0.81017  0.79058  0.90737  1.0000
  H   H5424     1.0  0.88008  0.90577  0.88651  1.0000
  C   C3160     1.0  0.87769  0.89660  0.94526  1.0000
  C   C3161     1.0  0.85240  0.75128  0.65826  1.0000
  N   N225      1.0  0.83970  0.67037  0.51207  1.0000
  C   C3162     1.0  0.98091  0.82977  0.84117  1.0000
  C   C3163     1.0  0.73464  0.93990  0.65193  1.0000
  C   C3164     1.0  0.90502  0.90937  0.92363  1.0000
  H   H5425     1.0  0.94756  0.73186  0.66510  1.0000
  N   N226      1.0  0.85599  0.76877  0.65181  1.0000
  H   H5426     1.0  0.78815  0.95015  0.86459  1.0000
  H   H5427     1.0  0.74587  0.86954  0.78544  1.0000
  C   C3165     1.0  0.78287  0.83897  0.72876  1.0000
  H   H5428     1.0  0.80907  0.92428  0.87624  1.0000
  H   H5429     1.0  0.83446  0.90318  0.95678  1.0000
  C   C3166     1.0  0.76450  0.85765  0.70129  1.0000
  C   C3167     1.0  0.83642  0.95350  0.82510  1.0000
  H   H5430     1.0  0.96404  0.72965  0.84709  1.0000
  H   H5431     1.0  0.76047  0.93902  0.55386  1.0000
  C   C3168     1.0  0.80866  0.95005  0.83298  1.0000
  C   C3169     1.0  0.77987  0.78546  0.95045  1.0000
  Fe  Fe455     1.0  0.77190  0.97844  0.74998  1.0000
  H   H5432     1.0  0.96933  0.68969  0.79234  1.0000
  H   H5433     1.0  0.75918  0.91133  0.55472  1.0000
  H   H5434     1.0  0.76613  0.90121  0.51248  1.0000
  C   C3170     1.0  0.97602  0.77300  0.85920  1.0000
  C   C3171     1.0  0.85816  0.77483  0.62036  1.0000
  S   S906      1.0  0.98199  0.78782  0.73677  1.0000
  N   N227      1.0  0.82116  0.94696  0.84712  1.0000
  C   C3172     1.0  0.80796  0.79421  0.93653  1.0000
  H   H5435     1.0  0.81830  0.80347  0.93514  1.0000
  H   H5436     1.0  0.84783  0.76935  0.61401  1.0000
  H   H5437     1.0  0.77483  0.82787  0.73024  1.0000
  C   C3173     1.0  0.81115  0.94647  0.90021  1.0000
  H   H5438     1.0  0.97095  0.77190  0.80707  1.0000
  H   H5439     1.0  0.92731  0.92191  0.89436  1.0000
  C   C3174     1.0  0.81881  0.92002  0.83696  1.0000
  H   H5440     1.0  0.80322  0.67630  0.50942  1.0000
  S   S907      1.0  0.86022  0.72144  0.50855  1.0000
  S   S908      1.0  0.84337  0.95739  0.96198  1.0000
  H   H5441     1.0  0.81667  0.90762  0.84837  1.0000
  H   H5442     1.0  0.75821  0.79207  0.94910  1.0000
  C   C3175     1.0  0.79188  0.94289  0.85066  1.0000
  H   H5443     1.0  0.78976  0.93082  0.86334  1.0000
  H   H5444     1.0  0.96700  0.77708  0.85031  1.0000
  H   H5445     1.0  0.81005  0.80048  0.89034  1.0000
  C   C3176     1.0  0.91867  0.92397  0.91135  1.0000
  C   C3177     1.0  0.97582  0.75609  0.85861  1.0000
  H   H5446     1.0  0.89513  0.87477  0.91074  1.0000
  S   S909      1.0  0.77933  0.97413  0.79208  1.0000
  H   H5447     1.0  0.87255  0.77686  0.57868  1.0000
  H   H5448     1.0  0.96687  0.66269  0.91358  1.0000
  H   H5449     1.0  0.96925  0.75567  0.79310  1.0000
  N   N228      1.0  0.76016  0.85205  0.73319  1.0000
  H   H5450     1.0  0.84299  0.74676  0.64885  1.0000
  H   H5451     1.0  0.80495  0.82082  0.91593  1.0000
  H   H5452     1.0  0.83344  0.95807  0.87337  1.0000
  C   C3178     1.0  0.73558  0.83603  0.63980  1.0000
  C   C3179     1.0  0.77030  0.93176  0.49863  1.0000
  H   H5453     1.0  0.76011  0.83895  0.63373  1.0000
  H   H5454     1.0  0.85762  0.69131  0.48907  1.0000
  H   H5455     1.0  0.89026  0.88251  0.96939  1.0000
  S   S910      1.0  0.75282  0.98490  0.68642  1.0000
  C   C3180     1.0  0.79313  0.81298  0.92501  1.0000
  C   C3181     1.0  0.73398  0.91444  0.67890  1.0000
  C   C3182     1.0  0.75436  0.89375  0.52245  1.0000
  C   C3183     1.0  0.97353  0.71365  0.76929  1.0000
  H   H5456     1.0  0.77284  0.92588  0.48156  1.0000
  H   H5457     1.0  0.81007  0.67358  0.54030  1.0000
  H   H5458     1.0  0.89903  0.93131  0.95037  1.0000
  S   S911      1.0  0.82085  0.98607  0.93370  1.0000
  C   C3184     1.0  0.81072  0.67030  0.52009  1.0000
  H   H5459     1.0  0.86448  0.68345  0.53840  1.0000
  H   H5460     1.0  0.92428  0.92660  0.92809  1.0000
  H   H5461     1.0  0.80565  0.65774  0.52374  1.0000
  H   H5462     1.0  0.75636  0.77473  0.97604  1.0000
  H   H5463     1.0  0.74117  0.75299  0.69498  1.0000
  H   H5464     1.0  0.80466  0.81228  0.97124  1.0000
  H   H5465     1.0  0.74053  0.93343  0.57427  1.0000
  H   H5466     1.0  0.73776  0.95239  0.64812  1.0000
  C   C3185     1.0  0.76374  0.78660  0.96497  1.0000
  H   H5467     1.0  0.97361  0.77367  0.88154  1.0000
  C   C3186     1.0  0.97759  0.82057  0.79932  1.0000
  C   C3187     1.0  0.83538  0.71920  0.48354  1.0000
  C   C3188     1.0  0.80109  0.98772  0.85016  1.0000
  H   H5468     1.0  0.86455  0.67459  0.49699  1.0000
  H   H5469     1.0  0.97627  0.67972  0.94254  1.0000
  S   S912      1.0  0.97878  0.74380  0.73912  1.0000
  C   C3189     1.0  0.85484  0.67867  0.49048  1.0000
  H   H5470     1.0  0.83003  0.68840  0.49330  1.0000
  H   H5471     1.0  0.98119  0.82197  0.77672  1.0000
  C   C3190     1.0  0.85115  0.72043  0.48027  1.0000
  C   C3191     1.0  0.73302  0.75892  0.68629  1.0000
  Fe  Fe456     1.0  0.74525  0.98860  0.72954  1.0000
  C   C3192     1.0  0.81524  0.65589  0.61829  1.0000
  H   H5472     1.0  0.78652  0.65601  0.58434  1.0000
