data_image0
_chemical_formula_structural       FeCHFeS2FeSFeS3FeS2FeS2FeSFeS3H2C2H3C2H3C2HC2HN2C6H5CH2CH6SCH2CH6C2HC2HC2H3C2HC2H2C3HCNCHCH3C2H3CH3CNH6CH3CH4CH2NH3C4H6C3HCH3CH6C3HCH4CHCH7C2H4CH4SH3CHSHCH7SH2C2HCSCH2CHCNHC3H2C3H2CH3CHCHCHC2H3CFeH4SCH4CH3NCH5C2H3CHCHC2HCS2HCHS2CHSFeCH3C2H5FeHCH6CH3SH4C2H2CH2C3HCHCH2C3HCNC6HCSH2CHCHC2H3FeCH3FeH2SH4NSH3NFeS2FeS2FeSFeS3FeS2FeSHFeSFeS2C2SCH3CH2CH2CH4C6H4CHCH2C3H5CH5CHCH7CHC2NC5HCH4CH3CH3CH8NC7H4C2HNCHCH3CHCH2CH4CHC2H11C3H6CHC2H3CHSCH2CH2NH3CFeS2C2HSHFeS2Fe2HS2FeS2H2S2FeS2H2S2HCHC2HC6H6C7SH4CH3CSHC2HCHNHSHCH2CHCHFeHC2H3FeHC3HCH3NC8H19C2H5CSH2C2H2FeH2CNH3C2H5SFeH2C2HSHFeSCHFeCSH2SCSNFeS2FeS2H3SHSCSFeS2CHCHCHC6HCH2SHC6H3C2HCHCHCHCH2FeC2H2SCFeH4CHCH3C4FeH2CFeH2CH2NH2CHCH3CFeH3CH2SH6C3HC2HNH14CH2SCHCH2FeH2CH4SH6CH4CHC2H2NHCH2CH4C3HCHCHCFeSHFeS2FeSFeCSHFeS2FeS2FeSFeS3HCH2C2H4C6H6C5NH3C3H2C2H2NC5H12CH3C2H6S2H2CHC3H5SC2H3C2H4CHC3H6S2H3SC2HFeH6C2H4C3H2CH2C2H2CH4FeHC3H3CNHCHSH2C2H3FeCH6C2SHNH5C5NCHC3H2SHFe2CHSH4CNS2CH2C3H8C2HCH7CSH2C3NHNH5C3HCHCSCHCHCHCH2CH4FeH5CHCHCHCH3C3HC2H3S2H2C2HCFeS2FeS2FeSFeS3FeS2FeSCFeSFeSHSH4C2H3C6H4CHCH5C3HSHC2H2NH3CH3CHCH8CHCH2CHC2NC8H19CNCHC4HCHC3H10C3H3C2H6CH2CH2C
_chemical_formula_sum              "Fe64 C448 H768 S128 N32"
_cell_length_a       44.4833
_cell_length_b       40.4397
_cell_length_c       39.3097
_cell_angle_alpha    90.0275
_cell_angle_beta     89.8091
_cell_angle_gamma    89.7939

_space_group_name_H-M_alt    "P 1"
_space_group_IT_number       1

loop_
  _space_group_symop_operation_xyz
  'x, y, z'

loop_
  _atom_site_type_symbol
  _atom_site_label
  _atom_site_symmetry_multiplicity
  _atom_site_fract_x
  _atom_site_fract_y
  _atom_site_fract_z
  _atom_site_occupancy
  Fe  Fe1       1.0  0.16455  0.38734  0.47329  1.0000
  C   C1        1.0  0.08407  0.43580  0.10463  1.0000
  H   H1        1.0  0.26328  0.36482  0.45636  1.0000
  Fe  Fe2       1.0  0.16259  0.37133  0.39685  1.0000
  S   S1        1.0  0.15162  0.31837  0.40664  1.0000
  S   S2        1.0  0.16445  0.39412  0.34386  1.0000
  Fe  Fe3       1.0  0.11883  0.33813  0.44547  1.0000
  S   S3        1.0  0.07319  0.31320  0.44057  1.0000
  Fe  Fe4       1.0  0.18629  0.31958  0.44839  1.0000
  S   S4        1.0  0.22202  0.27848  0.45089  1.0000
  S   S5        1.0  0.12815  0.39150  0.43374  1.0000
  S   S6        1.0  0.19993  0.37168  0.43542  1.0000
  Fe  Fe5       1.0  0.16437  0.33342  0.14952  1.0000
  S   S7        1.0  0.16030  0.29633  0.10666  1.0000
  S   S8        1.0  0.16186  0.31372  0.20397  1.0000
  Fe  Fe6       1.0  0.17210  0.39106  0.09932  1.0000
  S   S9        1.0  0.16920  0.35838  0.05351  1.0000
  S   S10       1.0  0.17660  0.44700  0.09755  1.0000
  Fe  Fe7       1.0  0.13054  0.33478  0.08194  1.0000
  S   S11       1.0  0.08695  0.32704  0.05265  1.0000
  Fe  Fe8       1.0  0.19927  0.32277  0.08191  1.0000
  S   S12       1.0  0.24489  0.30123  0.06429  1.0000
  S   S13       1.0  0.13201  0.36959  0.12627  1.0000
  S   S14       1.0  0.20481  0.35772  0.12636  1.0000
  H   H2        1.0  0.11346  0.18122  0.47785  1.0000
  H   H3        1.0  0.07193  0.34453  0.27377  1.0000
  C   C2        1.0  0.05136  0.33251  0.07244  1.0000
  C   C3        1.0  0.04884  0.33889  0.10728  1.0000
  H   H4        1.0  0.17617  0.23574  0.48619  1.0000
  H   H5        1.0  0.06881  0.34007  0.12281  1.0000
  H   H6        1.0  0.11216  0.48852  0.06957  1.0000
  C   C4        1.0  0.29344  0.08262  0.06234  1.0000
  C   C5        1.0  0.27155  0.17598  0.06699  1.0000
  H   H7        1.0  0.10311  0.44797  0.11791  1.0000
  H   H8        1.0  0.29530  0.07844  0.03451  1.0000
  H   H9        1.0  0.25413  0.44426  0.10254  1.0000
  C   C6        1.0  0.25804  0.27381  0.03180  1.0000
  C   C7        1.0  0.04823  0.41961  0.03331  1.0000
  H   H10       1.0  0.28076  0.06135  0.07295  1.0000
  C   C8        1.0  0.03842  0.33280  0.45046  1.0000
  C   C9        1.0  0.03679  0.35976  0.47268  1.0000
  H   H11       1.0  0.27759  0.19780  0.05119  1.0000
  N   N1        1.0  0.07730  0.43800  0.03859  1.0000
  N   N2        1.0  0.06880  0.36092  0.32641  1.0000
  C   C10       1.0  0.16529  0.37140  0.30517  1.0000
  C   C11       1.0  0.16539  0.33681  0.30475  1.0000
  C   C12       1.0  0.16446  0.31965  0.27354  1.0000
  C   C13       1.0  0.16369  0.33677  0.24240  1.0000
  C   C14       1.0  0.16379  0.37137  0.24280  1.0000
  C   C15       1.0  0.16455  0.38855  0.27404  1.0000
  H   H12       1.0  0.16612  0.32325  0.32842  1.0000
  H   H13       1.0  0.16448  0.29290  0.27347  1.0000
  H   H14       1.0  0.16318  0.38486  0.21905  1.0000
  H   H15       1.0  0.16444  0.41531  0.27408  1.0000
  H   H16       1.0  0.09506  0.40118  0.34699  1.0000
  C   C16       1.0  0.19478  0.19082  0.46730  1.0000
  H   H17       1.0  0.23757  0.46093  0.04211  1.0000
  H   H18       1.0  0.11834  0.44573  0.00967  1.0000
  C   C17       1.0  0.26718  0.23978  0.47804  1.0000
  H   H19       1.0  0.01502  0.39610  0.31971  1.0000
  H   H20       1.0  0.22690  0.19754  0.07062  1.0000
  H   H21       1.0  0.11871  0.20700  0.38466  1.0000
  H   H22       1.0  0.31610  0.08180  0.07395  1.0000
  H   H23       1.0  0.05474  0.48068  0.06156  1.0000
  H   H24       1.0  0.30314  0.20934  0.49842  1.0000
  S   S15       1.0  0.15264  0.33487  0.48819  1.0000
  C   C18       1.0  0.07104  0.47464  0.04123  1.0000
  H   H25       1.0  0.30171  0.01381  0.34292  1.0000
  H   H26       1.0  0.07084  0.37551  0.39907  1.0000
  C   C19       1.0  0.26093  0.45490  0.03403  1.0000
  H   H27       1.0  0.22680  0.40692  0.06489  1.0000
  H   H28       1.0  0.33858  0.19041  0.04012  1.0000
  H   H29       1.0  0.03621  0.32431  0.31105  1.0000
  H   H30       1.0  0.31386  0.02792  0.30244  1.0000
  H   H31       1.0  0.11513  0.14008  0.42565  1.0000
  H   H32       1.0  0.25308  0.11138  0.06221  1.0000
  C   C20       1.0  0.15574  0.22368  0.41781  1.0000
  C   C21       1.0  0.26332  0.41897  0.09854  1.0000
  H   H33       1.0  0.10415  0.24947  0.44644  1.0000
  C   C22       1.0  0.08015  0.36497  0.29030  1.0000
  C   C23       1.0  0.09314  0.30252  0.32629  1.0000
  H   H34       1.0  0.10226  0.30478  0.30011  1.0000
  C   C24       1.0  0.27650  0.11498  0.07087  1.0000
  C   C25       1.0  0.28887  0.26570  0.03062  1.0000
  H   H35       1.0  0.27553  0.46634  0.05371  1.0000
  H   H36       1.0  0.14366  0.13885  0.45802  1.0000
  H   H37       1.0  0.31172  0.42685  0.04722  1.0000
  C   C26       1.0  0.03735  0.34714  0.32678  1.0000
  C   C27       1.0  0.02504  0.33076  0.05275  1.0000
  H   H38       1.0  0.32001  0.14550  0.10038  1.0000
  C   C28       1.0  0.02030  0.34286  0.12235  1.0000
  C   C29       1.0  0.12427  0.24626  0.46286  1.0000
  H   H39       1.0  0.22860  0.16474  0.04062  1.0000
  H   H40       1.0  0.25580  0.37669  0.06690  1.0000
  C   C30       1.0  0.30657  0.00560  0.31669  1.0000
  C   C31       1.0  0.25173  0.40384  0.06498  1.0000
  C   C32       1.0  0.17827  0.45618  0.02767  1.0000
  H   H41       1.0  0.32496  0.20377  0.08122  1.0000
  C   C33       1.0  0.29842  0.40892  0.03198  1.0000
  N   N3        1.0  0.26536  0.41782  0.03280  1.0000
  C   C34       1.0  0.07112  0.39309  0.34573  1.0000
  H   H42       1.0  0.13778  0.26915  0.45962  1.0000
  C   C35       1.0  0.29419  0.14464  0.01865  1.0000
  H   H43       1.0  0.02676  0.32575  0.02579  1.0000
  H   H44       1.0  0.03216  0.40965  0.08542  1.0000
  H   H45       1.0  0.17130  0.20402  0.40899  1.0000
  C   C36       1.0  0.16704  0.21134  0.47819  1.0000
  C   C37       1.0  0.08910  0.33635  0.34406  1.0000
  H   H46       1.0  0.27653  0.18318  0.09378  1.0000
  H   H47       1.0  0.17657  0.42963  0.02537  1.0000
  H   H48       1.0  0.05992  0.48370  0.01761  1.0000
  C   C38       1.0  0.09421  0.42436  0.06872  1.0000
  H   H49       1.0  0.09331  0.39687  0.06865  1.0000
  H   H50       1.0  0.07789  0.41391  0.12022  1.0000
  H   H51       1.0  0.07963  0.39534  0.24476  1.0000
  C   C39       1.0  0.13299  0.22905  0.38877  1.0000
  N   N4        1.0  0.29015  0.14620  0.05671  1.0000
  H   H52       1.0  0.11860  0.43014  0.06650  1.0000
  H   H53       1.0  0.01698  0.44761  0.06715  1.0000
  H   H54       1.0  0.31192  0.12651  0.01117  1.0000
  H   H55       1.0  0.07194  0.28821  0.32596  1.0000
  H   H56       1.0  0.17013  0.24614  0.41925  1.0000
  H   H57       1.0  0.06116  0.41778  0.39366  1.0000
  C   C40       1.0  0.07279  0.39765  0.27189  1.0000
  H   H58       1.0  0.14198  0.46630  0.47367  1.0000
  H   H59       1.0  0.28819  0.41933  0.09978  1.0000
  H   H60       1.0  0.15052  0.15714  0.41678  1.0000
  C   C41       1.0  0.09633  0.43315  0.00700  1.0000
  H   H61       1.0  0.27598  0.23913  0.45235  1.0000
  H   H62       1.0  0.22853  0.15607  0.08585  1.0000
  H   H63       1.0  0.10510  0.36311  0.28940  1.0000
  H   H64       1.0  0.30383  0.27603  0.04945  1.0000
  C   C42       1.0  0.05848  0.39279  0.38236  1.0000
  H   H65       1.0  0.27473  0.11670  0.09912  1.0000
  H   H66       1.0  0.24997  0.12047  0.00887  1.0000
  N   N5        1.0  0.14237  0.21623  0.45230  1.0000
  H   H67       1.0  0.08607  0.41840  0.28262  1.0000
  H   H68       1.0  0.10975  0.28773  0.34087  1.0000
  H   H69       1.0  0.11198  0.34694  0.34751  1.0000
  C   C43       1.0  0.14815  0.47945  0.49657  1.0000
  C   C44       1.0  0.23907  0.26036  0.00709  1.0000
  C   C45       1.0  0.23702  0.17280  0.06563  1.0000
  C   C46       1.0  0.32098  0.14980  0.07238  1.0000
  H   H70       1.0  0.11870  0.25120  0.39298  1.0000
  H   H71       1.0  0.14559  0.23348  0.36474  1.0000
  H   H72       1.0  0.10019  0.19299  0.43790  1.0000
  H   H73       1.0  0.30252  0.38452  0.04440  1.0000
  H   H74       1.0  0.23912  0.32855  0.50141  1.0000
  H   H75       1.0  0.20846  0.20407  0.44798  1.0000
  C   C47       1.0  0.02447  0.42201  0.06184  1.0000
  C   C48       1.0  0.24069  0.25777  0.48494  1.0000
  C   C49       1.0  0.12139  0.18704  0.45168  1.0000
  H   H76       1.0  0.03415  0.38695  0.38310  1.0000
  C   C50       1.0  0.17759  0.47086  0.05988  1.0000
  H   H77       1.0  0.01859  0.34716  0.14946  1.0000
  H   H78       1.0  0.08077  0.33068  0.37005  1.0000
  H   H79       1.0  0.21534  0.26633  0.00754  1.0000
  C   C51       1.0  0.13382  0.15418  0.43738  1.0000
  H   H80       1.0  0.25529  0.40385  0.12029  1.0000
  H   H81       1.0  0.06462  0.45270  0.10554  1.0000
  H   H82       1.0  0.05935  0.41363  0.33269  1.0000
  H   H83       1.0  0.20964  0.18744  0.48973  1.0000
  H   H84       1.0  0.30328  0.16835  0.00899  1.0000
  H   H85       1.0  0.18913  0.16592  0.45792  1.0000
  C   C52       1.0  0.11236  0.24666  0.49982  1.0000
  C   C53       1.0  0.30063  0.24456  0.00516  1.0000
  C   C54       1.0  0.01211  0.36973  0.31320  1.0000
  H   H86       1.0  0.22892  0.35656  0.01982  1.0000
  C   C55       1.0  0.00859  0.37282  0.48233  1.0000
  H   H87       1.0  0.00971  0.36704  0.28521  1.0000
  H   H88       1.0  0.04860  0.40388  0.27237  1.0000
  H   H89       1.0  0.00760  0.39283  0.50053  1.0000
  H   H90       1.0  0.29110  0.37725  0.48649  1.0000
  C   C56       1.0  0.33657  0.18356  0.06724  1.0000
  H   H91       1.0  0.32760  0.00470  0.39804  1.0000
  C   C57       1.0  0.33574  0.01131  0.48673  1.0000
  H   H92       1.0  0.05718  0.36980  0.48343  1.0000
  H   H93       1.0  0.33596  0.02268  0.46186  1.0000
  H   H94       1.0  0.28535  0.99762  0.30437  1.0000
  H   H95       1.0  0.28768  0.33427  0.47359  1.0000
  H   H96       1.0  0.05254  0.39266  0.03039  1.0000
  H   H97       1.0  0.11489  0.38359  0.01833  1.0000
  H   H98       1.0  0.26805  0.35333  0.00840  1.0000
  C   C58       1.0  0.01164  0.31999  0.43690  1.0000
  C   C59       1.0  0.27515  0.35729  0.47992  1.0000
  H   H99       1.0  0.33685  0.13085  0.06214  1.0000
  H   H100      1.0  0.03075  0.33835  0.35263  1.0000
  H   H101      1.0  0.03728  0.42779  0.00927  1.0000
  H   H102      1.0  0.01262  0.29910  0.41974  1.0000
  C   C60       1.0  0.28264  0.22276  0.50412  1.0000
  H   H103      1.0  0.09903  0.26970  0.50367  1.0000
  H   H104      1.0  0.15803  0.19973  0.50178  1.0000
  H   H105      1.0  0.31680  0.23294  0.80071  1.0000
  H   H106      1.0  0.21647  0.38266  0.58141  1.0000
  S   S16       1.0  0.29057  0.20357  0.57198  1.0000
  H   H107      1.0  0.19561  0.34589  0.58745  1.0000
  H   H108      1.0  0.30206  0.17436  0.73208  1.0000
  H   H109      1.0  0.28726  0.21119  0.75078  1.0000
  C   C61       1.0  0.25088  0.23941  0.98147  1.0000
  H   H110      1.0  0.29067  0.47560  0.99448  1.0000
  S   S17       1.0  0.17861  0.42239  0.51592  1.0000
  H   H111      1.0  0.18704  0.46922  0.57004  1.0000
  C   C62       1.0  0.30198  0.16427  0.84869  1.0000
  H   H112      1.0  0.27042  0.24704  0.79534  1.0000
  H   H113      1.0  0.33825  0.40320  0.00025  1.0000
  H   H114      1.0  0.23976  0.35736  0.97617  1.0000
  H   H115      1.0  0.29126  0.11630  0.87033  1.0000
  H   H116      1.0  0.31565  0.15175  0.78774  1.0000
  H   H117      1.0  0.29618  0.25052  0.85763  1.0000
  H   H118      1.0  0.31040  0.42868  0.98091  1.0000
  S   S18       1.0  0.29547  0.20528  0.94693  1.0000
  H   H119      1.0  0.20885  0.27116  0.52389  1.0000
  H   H120      1.0  0.24697  0.18129  0.82349  1.0000
  C   C63       1.0  0.27165  0.22330  0.53751  1.0000
  C   C64       1.0  0.24485  0.24087  0.54426  1.0000
  H   H121      1.0  0.32676  0.20073  0.75457  1.0000
  C   C65       1.0  0.17355  0.48123  0.55079  1.0000
  S   S19       1.0  0.32405  0.13069  0.62213  1.0000
  C   C66       1.0  0.31841  0.21546  0.82230  1.0000
  H   H122      1.0  0.32622  0.15743  0.84828  1.0000
  H   H123      1.0  0.29786  0.17539  0.87419  1.0000
  C   C67       1.0  0.24054  0.33661  0.56813  1.0000
  H   H124      1.0  0.13081  0.24724  0.51872  1.0000
  C   C68       1.0  0.30040  0.30764  0.57652  1.0000
  N   N6        1.0  0.29503  0.18856  0.82053  1.0000
  H   H125      1.0  0.18399  0.46434  0.97369  1.0000
  C   C69       1.0  0.30350  0.19086  0.75466  1.0000
  C   C70       1.0  0.26363  0.20152  0.82640  1.0000
  C   C71       1.0  0.29719  0.17032  0.78698  1.0000
  H   H126      1.0  0.25965  0.13546  0.85066  1.0000
  H   H127      1.0  0.27639  0.15583  0.78216  1.0000
  C   C72       1.0  0.21196  0.35807  0.57014  1.0000
  C   C73       1.0  0.18233  0.47589  0.99846  1.0000
  C   C74       1.0  0.25266  0.22942  0.80274  1.0000
  H   H128      1.0  0.26026  0.20967  0.85326  1.0000
  H   H129      1.0  0.08536  0.44464  0.98441  1.0000
  C   C75       1.0  0.26602  0.13775  0.99704  1.0000
  H   H130      1.0  0.24923  0.33534  0.59461  1.0000
  H   H131      1.0  0.23602  0.24130  0.56994  1.0000
  H   H132      1.0  0.23568  0.24466  0.81648  1.0000
  C   C76       1.0  0.16562  0.46365  0.52124  1.0000
  H   H133      1.0  0.23599  0.22946  0.96236  1.0000
  C   C77       1.0  0.28420  0.13150  0.84820  1.0000
  H   H134      1.0  0.28930  0.11644  0.82528  1.0000
  C   C78       1.0  0.22945  0.25795  0.51821  1.0000
  H   H135      1.0  0.24206  0.21906  0.77952  1.0000
  C   C79       1.0  0.28171  0.23129  0.98033  1.0000
  C   C80       1.0  0.28813  0.32005  0.54212  1.0000
  H   H136      1.0  0.23305  0.31114  0.56182  1.0000
  H   H137      1.0  0.30317  0.38013  0.54548  1.0000
  H   H138      1.0  0.27296  0.12542  0.97301  1.0000
  C   C81       1.0  0.26478  0.41192  0.54719  1.0000
  Fe  Fe9       1.0  0.33120  0.16862  0.58057  1.0000
  H   H139      1.0  0.26796  0.42948  0.56861  1.0000
  H   H140      1.0  0.27604  0.42346  0.52492  1.0000
  H   H141      1.0  0.25437  0.16119  0.99035  1.0000
  H   H142      1.0  0.32234  0.22251  0.87803  1.0000
  S   S20       1.0  0.33122  0.11972  0.93502  1.0000
  C   C82       1.0  0.31776  0.23700  0.85473  1.0000
  H   H143      1.0  0.28336  0.29282  0.59045  1.0000
  H   H144      1.0  0.20047  0.36041  0.54531  1.0000
  H   H145      1.0  0.25284  0.46585  0.97935  1.0000
  H   H146      1.0  0.08408  0.38328  0.98827  1.0000
  C   C83       1.0  0.25194  0.35111  0.50846  1.0000
  H   H147      1.0  0.30855  0.32814  0.59273  1.0000
  H   H148      1.0  0.27913  0.29809  0.52856  1.0000
  H   H149      1.0  0.12034  0.39728  0.97577  1.0000
  N   N7        1.0  0.26486  0.34743  0.54372  1.0000
  C   C84       1.0  0.10402  0.39712  0.99723  1.0000
  H   H150      1.0  0.24038  0.41099  0.54249  1.0000
  H   H151      1.0  0.30582  0.38446  0.98238  1.0000
  H   H152      1.0  0.25809  0.41164  0.97843  1.0000
  H   H153      1.0  0.33581  0.25584  0.85291  1.0000
  H   H154      1.0  0.31967  0.29065  0.57172  1.0000
  C   C85       1.0  0.27999  0.37854  0.55619  1.0000
  C   C86       1.0  0.31364  0.40643  0.99670  1.0000
  H   H155      1.0  0.30811  0.32774  0.52698  1.0000
  H   H156      1.0  0.28288  0.37773  0.58432  1.0000
  H   H157      1.0  0.09704  0.22576  0.50517  1.0000
  C   C87       1.0  0.33834  0.01705  0.54830  1.0000
  H   H158      1.0  0.32444  0.23909  0.00438  1.0000
  C   C88       1.0  0.24644  0.36556  0.00202  1.0000
  H   H159      1.0  0.23512  0.37130  0.50682  1.0000
  C   C89       1.0  0.24834  0.40365  0.00310  1.0000
  C   C90       1.0  0.26652  0.47456  0.00107  1.0000
  H   H160      1.0  0.22487  0.41325  0.00291  1.0000
  C   C91       1.0  0.20980  0.73172  0.14469  1.0000
  S   S21       1.0  0.30404  0.86499  0.41449  1.0000
  S   S22       1.0  0.26731  0.79454  0.46637  1.0000
  H   H161      1.0  0.27373  0.79949  0.21796  1.0000
  C   C92       1.0  0.25685  0.70176  0.01900  1.0000
  H   H162      1.0  0.28727  0.77919  0.11503  1.0000
  S   S23       1.0  0.32367  0.76284  0.05304  1.0000
  S   S24       1.0  0.30714  0.85412  0.08853  1.0000
  C   C93       1.0  0.28755  0.74772  0.04063  1.0000
  H   H163      1.0  0.24359  0.62634  0.46188  1.0000
  S   S25       1.0  0.30419  0.86065  0.18833  1.0000
  Fe  Fe10      1.0  0.31003  0.82516  0.45479  1.0000
  C   C94       1.0  0.23329  0.75374  0.03353  1.0000
  H   H164      1.0  0.26308  0.79253  0.05093  1.0000
  H   H165      1.0  0.17863  0.51700  0.08731  1.0000
  H   H166      1.0  0.21959  0.79538  0.17112  1.0000
  C   C95       1.0  0.18239  0.52521  0.03323  1.0000
  C   C96       1.0  0.18702  0.64792  0.47973  1.0000
  H   H167      1.0  0.29710  0.97013  0.37397  1.0000
  H   H168      1.0  0.30041  0.79200  0.15455  1.0000
  H   H169      1.0  0.21979  0.83454  0.12422  1.0000
  H   H170      1.0  0.18431  0.55178  0.03565  1.0000
  H   H171      1.0  0.30492  0.69969  0.02689  1.0000
  Fe  Fe11      1.0  0.33133  0.85754  0.13898  1.0000
  H   H172      1.0  0.30701  0.72610  0.11746  1.0000
  C   C97       1.0  0.31405  0.85000  0.29104  1.0000
  H   H173      1.0  0.25536  0.67648  0.01018  1.0000
  H   H174      1.0  0.21331  0.76894  0.03561  1.0000
  H   H175      1.0  0.29145  0.90258  0.33999  1.0000
  H   H176      1.0  0.29957  0.85027  0.31317  1.0000
  H   H177      1.0  0.21525  0.75296  0.47148  1.0000
  H   H178      1.0  0.30727  0.72389  0.16320  1.0000
  C   C98       1.0  0.32037  0.85415  0.22912  1.0000
  H   H179      1.0  0.20098  0.71286  0.12675  1.0000
  H   H180      1.0  0.25507  0.71509  0.13702  1.0000
  H   H181      1.0  0.26318  0.92912  0.35696  1.0000
  S   S26       1.0  0.33737  0.92431  0.02495  1.0000
  H   H182      1.0  0.09123  0.52241  0.05261  1.0000
  H   H183      1.0  0.19514  0.75379  0.14230  1.0000
  H   H184      1.0  0.20466  0.66100  0.46503  1.0000
  H   H185      1.0  0.28060  0.93957  0.31720  1.0000
  C   C99       1.0  0.33251  0.97681  0.48959  1.0000
  C   C100      1.0  0.21651  0.54144  0.47986  1.0000
  H   H186      1.0  0.27809  0.85978  0.25553  1.0000
  H   H187      1.0  0.31417  0.93283  0.38560  1.0000
  C   C101      1.0  0.33104  0.97846  0.31308  1.0000
  H   H188      1.0  0.21781  0.79414  0.10618  1.0000
  H   H189      1.0  0.20779  0.72127  0.17067  1.0000
  C   C102      1.0  0.25447  0.76779  0.49962  1.0000
  C   C103      1.0  0.27563  0.59186  0.48083  1.0000
  C   C104      1.0  0.22739  0.75027  0.49512  1.0000
  H   H190      1.0  0.26666  0.72676  0.19429  1.0000
  C   C105      1.0  0.28498  0.71500  0.02862  1.0000
  H   H191      1.0  0.12521  0.52439  0.48218  1.0000
  C   C106      1.0  0.28478  0.92890  0.34268  1.0000
  H   H192      1.0  0.23699  0.75365  0.20495  1.0000
  H   H193      1.0  0.17416  0.63118  0.46287  1.0000
  C   C107      1.0  0.17923  0.50544  0.06247  1.0000
  C   C108      1.0  0.30192  0.85517  0.25829  1.0000
  C   C109      1.0  0.30854  0.94823  0.36305  1.0000
  H   H194      1.0  0.25264  0.81716  0.10561  1.0000
  C   C110      1.0  0.23070  0.72095  0.02171  1.0000
  N   N8        1.0  0.25801  0.76508  0.15654  1.0000
  C   C111      1.0  0.24080  0.79730  0.15617  1.0000
  C   C112      1.0  0.25967  0.75315  0.19288  1.0000
  C   C113      1.0  0.24279  0.73907  0.13528  1.0000
  C   C114      1.0  0.28887  0.77094  0.14193  1.0000
  C   C115      1.0  0.23247  0.81104  0.12081  1.0000
  C   C116      1.0  0.09880  0.49670  0.04734  1.0000
  H   H195      1.0  0.32395  0.96280  0.29117  1.0000
  C   C117      1.0  0.31013  0.74060  0.14122  1.0000
  S   S27       1.0  0.32942  0.95270  0.45202  1.0000
  H   H196      1.0  0.25390  0.81710  0.16898  1.0000
  H   H197      1.0  0.27881  0.76304  0.24280  1.0000
  C   C118      1.0  0.26150  0.76716  0.04252  1.0000
  H   H198      1.0  0.24369  0.74552  0.10780  1.0000
  C   C119      1.0  0.20575  0.57777  0.48001  1.0000
  H   H199      1.0  0.17088  0.66707  0.48870  1.0000
  C   C120      1.0  0.24916  0.61580  0.48723  1.0000
  C   C121      1.0  0.13868  0.51241  0.50148  1.0000
  H   H200      1.0  0.27350  0.57968  0.45562  1.0000
  H   H201      1.0  0.02473  0.54558  0.02940  1.0000
  H   H202      1.0  0.33382  0.74900  0.14243  1.0000
  Fe  Fe12      1.0  0.33857  0.81212  0.07714  1.0000
  C   C122      1.0  0.28044  0.77311  0.21657  1.0000
  H   H203      1.0  0.25938  0.50061  0.00547  1.0000
  H   H204      1.0  0.11356  0.49807  0.02458  1.0000
  H   H205      1.0  0.30441  0.77123  0.20889  1.0000
  Fe  Fe13      1.0  0.33358  0.89653  0.44796  1.0000
  H   H206      1.0  0.29699  0.60603  0.48126  1.0000
  H   H207      1.0  0.24089  0.53876  0.47525  1.0000
  S   S28       1.0  0.19425  0.70526  0.01152  1.0000
  H   H208      1.0  0.18130  0.57648  0.48606  1.0000
  H   H209      1.0  0.33607  0.91228  0.31332  1.0000
  H   H210      1.0  0.20477  0.52796  0.45917  1.0000
  H   H211      1.0  0.20700  0.58668  0.45325  1.0000
  N   N9        1.0  0.33683  0.95701  0.34383  1.0000
  S   S29       1.0  0.33687  0.85856  0.48950  1.0000
  H   H212      1.0  0.25773  0.63761  0.50157  1.0000
  H   H213      1.0  0.21022  0.52868  0.50384  1.0000
  H   H214      1.0  0.27831  0.57284  0.50075  1.0000
  N   N10       1.0  0.22145  0.60158  0.50374  1.0000
  Fe  Fe14      1.0  0.10563  0.66872  0.60644  1.0000
  S   S30       1.0  0.10563  0.61532  0.62150  1.0000
  S   S31       1.0  0.06362  0.70102  0.60481  1.0000
  Fe  Fe15      1.0  0.17454  0.67062  0.59724  1.0000
  S   S32       1.0  0.17922  0.61699  0.61262  1.0000
  S   S33       1.0  0.21744  0.70040  0.58556  1.0000
  Fe  Fe16      1.0  0.13921  0.60804  0.57912  1.0000
  S   S34       1.0  0.13441  0.57164  0.53517  1.0000
  Fe  Fe17      1.0  0.14550  0.62865  0.65422  1.0000
  S   S35       1.0  0.14642  0.60571  0.70752  1.0000
  S   S36       1.0  0.13631  0.66110  0.56157  1.0000
  S   S37       1.0  0.14360  0.68274  0.64147  1.0000
  Fe  Fe18      1.0  0.11852  0.62584  0.95681  1.0000
  S   S38       1.0  0.14350  0.59588  0.91775  1.0000
  S   S39       1.0  0.06965  0.60897  0.95934  1.0000
  Fe  Fe19      1.0  0.17747  0.66067  0.98010  1.0000
  S   S40       1.0  0.20555  0.63144  0.94288  1.0000
  H   H215      1.0  0.01941  0.65637  0.68203  1.0000
  Fe  Fe20      1.0  0.16866  0.64207  0.90505  1.0000
  S   S41       1.0  0.17642  0.66693  0.85351  1.0000
  Fe  Fe21      1.0  0.17741  0.58762  0.95917  1.0000
  S   S42       1.0  0.19300  0.53412  0.96443  1.0000
  S   S43       1.0  0.14145  0.67299  0.94152  1.0000
  C   C123      1.0  0.14599  0.78413  0.61356  1.0000
  C   C124      1.0  0.03628  0.63206  0.95315  1.0000
  S   S44       1.0  0.15164  0.61586  0.99900  1.0000
  C   C125      1.0  0.03599  0.66661  0.95267  1.0000
  H   H216      1.0  0.04948  0.69463  0.84612  1.0000
  H   H217      1.0  0.05673  0.68010  0.95609  1.0000
  H   H218      1.0  0.11553  0.80968  0.53804  1.0000
  C   C126      1.0  0.17969  0.75525  0.92960  1.0000
  H   H219      1.0  0.02951  0.62076  0.70605  1.0000
  H   H220      1.0  0.12664  0.77016  0.62434  1.0000
  C   C127      1.0  0.02719  0.64993  0.58270  1.0000
  H   H221      1.0  0.16989  0.52729  0.57879  1.0000
  H   H222      1.0  0.18389  0.77723  0.94579  1.0000
  C   C128      1.0  0.02879  0.68283  0.59346  1.0000
  H   H223      1.0  0.28179  0.73944  0.95923  1.0000
  H   H224      1.0  0.10070  0.58540  0.81631  1.0000
  H   H225      1.0  0.04748  0.63519  0.58094  1.0000
  H   H226      1.0  0.11325  0.75890  0.51639  1.0000
  C   C129      1.0  0.15584  0.62330  0.74757  1.0000
  C   C130      1.0  0.15504  0.60307  0.77668  1.0000
  C   C131      1.0  0.16166  0.61589  0.80917  1.0000
  C   C132      1.0  0.16915  0.64924  0.81296  1.0000
  C   C133      1.0  0.17010  0.66950  0.78386  1.0000
  C   C134      1.0  0.16339  0.65667  0.75135  1.0000
  H   H227      1.0  0.14939  0.57719  0.77402  1.0000
  H   H228      1.0  0.16111  0.59990  0.83123  1.0000
  H   H229      1.0  0.17590  0.69533  0.78647  1.0000
  H   H230      1.0  0.16412  0.67253  0.72921  1.0000
  C   C135      1.0  0.14631  0.52988  0.53116  1.0000
  H   H231      1.0  0.01337  0.64741  0.87765  1.0000
  C   C136      1.0  0.16385  0.51415  0.55584  1.0000
  H   H232      1.0  0.28435  0.70380  0.91521  1.0000
  H   H233      1.0  0.18029  0.73264  0.94539  1.0000
  C   C137      1.0  0.26993  0.76388  0.53033  1.0000
  C   C138      1.0  0.25834  0.74305  0.55610  1.0000
  C   C139      1.0  0.23125  0.72565  0.55162  1.0000
  H   H234      1.0  0.29073  0.77708  0.53432  1.0000
  H   H235      1.0  0.27049  0.74050  0.57976  1.0000
  H   H236      1.0  0.11188  0.63076  0.85666  1.0000
  H   H237      1.0  0.15642  0.75773  0.91973  1.0000
  H   H238      1.0  0.29414  0.76661  0.92489  1.0000
  C   C140      1.0  0.17195  0.82057  0.52851  1.0000
  H   H239      1.0  0.23958  0.70012  0.85171  1.0000
  H   H240      1.0  0.26698  0.67500  0.94290  1.0000
  H   H241      1.0  0.10408  0.57137  0.85879  1.0000
  H   H242      1.0  0.27621  0.74249  0.87954  1.0000
  H   H243      1.0  0.19547  0.78058  0.62147  1.0000
  C   C141      1.0  0.08980  0.58645  0.84156  1.0000
  H   H244      1.0  0.12283  0.73753  0.57627  1.0000
  C   C142      1.0  0.01943  0.62488  0.86301  1.0000
  H   H245      1.0  0.22591  0.70745  0.94741  1.0000
  H   H246      1.0  0.23165  0.76419  0.95868  1.0000
  H   H247      1.0  0.25919  0.72823  0.82457  1.0000
  H   H248      1.0  0.02395  0.65170  0.81604  1.0000
  H   H249      1.0  0.24178  0.79310  0.92645  1.0000
  H   H250      1.0  0.12081  0.83234  0.57600  1.0000
  H   H251      1.0  0.26286  0.66981  0.89843  1.0000
  C   C143      1.0  0.33203  0.96252  0.52197  1.0000
  H   H252      1.0  0.16174  0.73593  0.56731  1.0000
  C   C144      1.0  0.00915  0.61488  0.94883  1.0000
  C   C145      1.0  0.17326  0.80096  0.56221  1.0000
  N   N11       1.0  0.06884  0.64621  0.83613  1.0000
  C   C146      1.0  0.06630  0.67730  0.85731  1.0000
  C   C147      1.0  0.03747  0.63329  0.83060  1.0000
  C   C148      1.0  0.08313  0.65537  0.80238  1.0000
  C   C149      1.0  0.08825  0.62198  0.85544  1.0000
  C   C150      1.0  0.09574  0.69690  0.86221  1.0000
  H   H253      1.0  0.22058  0.73575  0.83411  1.0000
  C   C151      1.0  0.07483  0.63452  0.77084  1.0000
  H   H254      1.0  0.26893  0.61215  0.55324  1.0000
  H   H255      1.0  0.08492  0.79535  0.60690  1.0000
  H   H256      1.0  0.05806  0.67164  0.88343  1.0000
  H   H257      1.0  0.06752  0.57433  0.84098  1.0000
  C   C152      1.0  0.21599  0.72917  0.52075  1.0000
  H   H258      1.0  0.07704  0.68116  0.79504  1.0000
  H   H259      1.0  0.10802  0.65535  0.80436  1.0000
  H   H260      1.0  0.08156  0.76921  0.56963  1.0000
  C   C153      1.0  0.22814  0.58514  0.53738  1.0000
  H   H261      1.0  0.09101  0.71893  0.87828  1.0000
  H   H262      1.0  0.11294  0.68215  0.87570  1.0000
  H   H263      1.0  0.10533  0.70598  0.83789  1.0000
  C   C154      1.0  0.14107  0.75059  0.56224  1.0000
  H   H264      1.0  0.20679  0.57737  0.54999  1.0000
  H   H265      1.0  0.25156  0.77419  0.86739  1.0000
  H   H266      1.0  0.08968  0.64169  0.74927  1.0000
  H   H267      1.0  0.05139  0.63960  0.76275  1.0000
  H   H268      1.0  0.21727  0.69345  0.90603  1.0000
  H   H269      1.0  0.08072  0.62018  0.88244  1.0000
  H   H270      1.0  0.07779  0.60766  0.77450  1.0000
  H   H271      1.0  0.28295  0.78278  0.96506  1.0000
  N   N12       1.0  0.23384  0.74352  0.90779  1.0000
  C   C155      1.0  0.20185  0.75331  0.89937  1.0000
  C   C156      1.0  0.25208  0.74783  0.87567  1.0000
  C   C157      1.0  0.24495  0.76698  0.93482  1.0000
  C   C158      1.0  0.23384  0.70835  0.92059  1.0000
  C   C159      1.0  0.24201  0.72661  0.84508  1.0000
  C   C160      1.0  0.27792  0.76324  0.94601  1.0000
  C   C161      1.0  0.26388  0.68889  0.91876  1.0000
  H   H272      1.0  0.20121  0.77785  0.88646  1.0000
  H   H273      1.0  0.19172  0.73548  0.88114  1.0000
  H   H274      1.0  0.03763  0.61053  0.81481  1.0000
  H   H275      1.0  0.24105  0.56188  0.53427  1.0000
  C   C162      1.0  0.08680  0.79448  0.57879  1.0000
  C   C163      1.0  0.33477  0.98259  0.55114  1.0000
  H   H276      1.0  0.14457  0.80951  0.62459  1.0000
  N   N13       1.0  0.14440  0.78552  0.57518  1.0000
  C   C164      1.0  0.11769  0.80678  0.56599  1.0000
  H   H277      1.0  0.06896  0.81105  0.56872  1.0000
  C   C165      1.0  0.24621  0.60604  0.56302  1.0000
  H   H278      1.0  0.19542  0.71571  0.51665  1.0000
  H   H279      1.0  0.19130  0.78197  0.55956  1.0000
  H   H280      1.0  0.00845  0.71052  0.94857  1.0000
  C   C166      1.0  0.17441  0.76769  0.62859  1.0000
  H   H281      1.0  0.24936  0.59146  0.58670  1.0000
  C   C167      1.0  0.01189  0.63118  0.68918  1.0000
  H   H282      1.0  0.17289  0.76823  0.65680  1.0000
  H   H283      1.0  0.17623  0.74143  0.62118  1.0000
  C   C168      1.0  0.13446  0.74660  0.52404  1.0000
  H   H284      1.0  0.18216  0.81916  0.58093  1.0000
  H   H285      1.0  0.18057  0.62095  0.52624  1.0000
  H   H286      1.0  0.32925  0.93608  0.52459  1.0000
  H   H287      1.0  0.01137  0.61520  0.66626  1.0000
  C   C169      1.0  0.00862  0.68376  0.94847  1.0000
  H   H288      1.0  0.23442  0.62906  0.57054  1.0000
  C   C170      1.0  0.18463  0.51049  0.00114  1.0000
  C   C171      1.0  0.20006  0.62984  0.51104  1.0000
  H   H289      1.0  0.19530  0.82600  0.51999  1.0000
  H   H290      1.0  0.16045  0.84473  0.53227  1.0000
  H   H291      1.0  0.21093  0.64930  0.52672  1.0000
  H   H292      1.0  0.33419  0.97137  0.57611  1.0000
  H   H293      1.0  0.13159  0.71995  0.51823  1.0000
  H   H294      1.0  0.03148  0.60711  0.87958  1.0000
  H   H295      1.0  0.00942  0.58817  0.94824  1.0000
  H   H296      1.0  0.15341  0.75515  0.50814  1.0000
  H   H297      1.0  0.16091  0.80724  0.50753  1.0000
  H   H298      1.0  0.36629  0.01373  0.40273  1.0000
  H   H299      1.0  0.63628  0.00501  0.01264  1.0000
  C   C172      1.0  0.35744  0.01928  0.05204  1.0000
  C   C173      1.0  0.64926  0.02787  0.48571  1.0000
  C   C174      1.0  0.61302  0.00437  0.02261  1.0000
  H   H300      1.0  0.34812  0.02627  0.36455  1.0000
  H   H301      1.0  0.36200  0.03297  0.07509  1.0000
  H   H302      1.0  0.56609  0.02740  0.05376  1.0000
  H   H303      1.0  0.55721  0.08676  0.03727  1.0000
  H   H304      1.0  0.63923  0.06005  0.06537  1.0000
  H   H305      1.0  0.60267  0.08688  0.00670  1.0000
  C   C175      1.0  0.34907  0.00629  0.38382  1.0000
  H   H306      1.0  0.64650  0.04214  0.46265  1.0000
  C   C176      1.0  0.35795  0.03576  0.02051  1.0000
  C   C177      1.0  0.61279  0.06452  0.01842  1.0000
  H   H307      1.0  0.61880  0.09847  0.06095  1.0000
  H   H308      1.0  0.53277  0.06346  0.49619  1.0000
  H   H309      1.0  0.52386  0.06261  0.03392  1.0000
  C   C178      1.0  0.54668  0.06618  0.02299  1.0000
  H   H310      1.0  0.58270  0.08639  0.49778  1.0000
  S   S45       1.0  0.36625  0.07860  0.01942  1.0000
  C   C179      1.0  0.56477  0.03371  0.02625  1.0000
  H   H311      1.0  0.61552  0.00537  0.05079  1.0000
  H   H312      1.0  0.59952  0.06222  0.07321  1.0000
  C   C180      1.0  0.61783  0.07133  0.05668  1.0000
  H   H313      1.0  0.55050  0.01391  0.01516  1.0000
  H   H314      1.0  0.35980  0.18206  0.07744  1.0000
  N   N14       1.0  0.59547  0.03368  0.00982  1.0000
  H   H315      1.0  0.63563  0.06362  0.00693  1.0000
  H   H316      1.0  0.55670  0.03110  0.48173  1.0000
  H   H317      1.0  0.52157  0.02100  0.50054  1.0000
  C   C181      1.0  0.54081  0.03834  0.50236  1.0000
  Fe  Fe22      1.0  0.39863  0.14935  0.57476  1.0000
  S   S46       1.0  0.39553  0.11110  0.61586  1.0000
  S   S47       1.0  0.44288  0.15644  0.54585  1.0000
  C   C182      1.0  0.57755  0.08933  0.55338  1.0000
  C   C183      1.0  0.59140  0.03206  0.97175  1.0000
  H   H318      1.0  0.58081  0.02859  0.53183  1.0000
  S   S48       1.0  0.37355  0.18802  0.60485  1.0000
  H   H319      1.0  0.58658  0.21815  0.56912  1.0000
  Fe  Fe23      1.0  0.40771  0.16450  0.93945  1.0000
  S   S49       1.0  0.40453  0.10967  0.93082  1.0000
  S   S50       1.0  0.45140  0.19371  0.94097  1.0000
  Fe  Fe24      1.0  0.36717  0.12331  0.89462  1.0000
  Fe  Fe25      1.0  0.36891  0.11078  0.97174  1.0000
  H   H320      1.0  0.40130  0.99434  0.55898  1.0000
  S   S51       1.0  0.37228  0.17812  0.90084  1.0000
  S   S52       1.0  0.37462  0.16512  0.98305  1.0000
  Fe  Fe26      1.0  0.61550  0.16602  0.60369  1.0000
  S   S53       1.0  0.63515  0.11570  0.61262  1.0000
  S   S54       1.0  0.56777  0.17484  0.62246  1.0000
  H   H321      1.0  0.52630  0.28188  0.56600  1.0000
  H   H322      1.0  0.65991  0.30078  0.59161  1.0000
  S   S55       1.0  0.65323  0.19282  0.62979  1.0000
  S   S56       1.0  0.63634  0.17256  0.55209  1.0000
  Fe  Fe27      1.0  0.62811  0.14200  0.94727  1.0000
  S   S57       1.0  0.65057  0.11081  0.90744  1.0000
  S   S58       1.0  0.57975  0.12438  0.95374  1.0000
  H   H323      1.0  0.60066  0.07917  0.55537  1.0000
  H   H324      1.0  0.61417  0.02741  0.92294  1.0000
  S   S59       1.0  0.35679  0.13270  0.54681  1.0000
  S   S60       1.0  0.64919  0.18878  0.92822  1.0000
  H   H325      1.0  0.62560  0.32289  0.59839  1.0000
  C   C184      1.0  0.36636  0.11572  0.80362  1.0000
  H   H326      1.0  0.52889  0.32558  0.56431  1.0000
  C   C185      1.0  0.41254  0.99597  0.53376  1.0000
  C   C186      1.0  0.57625  0.10467  0.51756  1.0000
  H   H327      1.0  0.63100  0.24793  0.58266  1.0000
  C   C187      1.0  0.48704  0.17431  0.94440  1.0000
  C   C188      1.0  0.49006  0.13991  0.94379  1.0000
  C   C189      1.0  0.51866  0.12522  0.94653  1.0000
  C   C190      1.0  0.54458  0.14469  0.94993  1.0000
  C   C191      1.0  0.54167  0.17913  0.95044  1.0000
  C   C192      1.0  0.51300  0.19385  0.94755  1.0000
  H   H328      1.0  0.47033  0.12461  0.94123  1.0000
  H   H329      1.0  0.57618  0.10999  0.57215  1.0000
  H   H330      1.0  0.56141  0.19441  0.95339  1.0000
  H   H331      1.0  0.57504  0.32188  0.58851  1.0000
  H   H332      1.0  0.35380  0.10071  0.71893  1.0000
  H   H333      1.0  0.57927  0.26671  0.50885  1.0000
  C   C193      1.0  0.57914  0.26403  0.61683  1.0000
  C   C194      1.0  0.47756  0.16097  0.56739  1.0000
  C   C195      1.0  0.50441  0.16323  0.54847  1.0000
  C   C196      1.0  0.53236  0.16682  0.56489  1.0000
  C   C197      1.0  0.53361  0.16855  0.60041  1.0000
  C   C198      1.0  0.50678  0.16652  0.61923  1.0000
  C   C199      1.0  0.47893  0.16248  0.60287  1.0000
  S   S61       1.0  0.65565  0.08821  0.51697  1.0000
  H   H334      1.0  0.55279  0.16872  0.55007  1.0000
  H   H335      1.0  0.59114  0.24145  0.62590  1.0000
  H   H336      1.0  0.45843  0.16091  0.61772  1.0000
  H   H337      1.0  0.66164  0.03795  0.57035  1.0000
  C   C200      1.0  0.35196  0.01785  0.99091  1.0000
  H   H338      1.0  0.47582  0.06942  0.56571  1.0000
  H   H339      1.0  0.56016  0.07171  0.61585  1.0000
  H   H340      1.0  0.49658  0.04898  0.59804  1.0000
  C   C201      1.0  0.63615  0.29809  0.60000  1.0000
  S   S62       1.0  0.34304  0.04080  0.58588  1.0000
  H   H341      1.0  0.54731  0.01181  0.54914  1.0000
  C   C202      1.0  0.54565  0.26002  0.62597  1.0000
  C   C203      1.0  0.62033  0.02820  0.95029  1.0000
  H   H342      1.0  0.63563  0.04955  0.95325  1.0000
  C   C204      1.0  0.59147  0.03284  0.60230  1.0000
  H   H343      1.0  0.54374  0.07368  0.99613  1.0000
  N   N15       1.0  0.55452  0.06324  0.56165  1.0000
  H   H344      1.0  0.54390  0.25254  0.65311  1.0000
  S   S63       1.0  0.35983  0.09717  0.84391  1.0000
  H   H345      1.0  0.59433  0.01133  0.58508  1.0000
  C   C205      1.0  0.38173  0.16223  0.76844  1.0000
  H   H346      1.0  0.61095  0.04957  0.59969  1.0000
  H   H347      1.0  0.51084  0.22051  0.94812  1.0000
  C   C206      1.0  0.52376  0.07918  0.56284  1.0000
  H   H348      1.0  0.53439  0.24028  0.61132  1.0000
  C   C207      1.0  0.55671  0.03454  0.53718  1.0000
  H   H349      1.0  0.35219  0.03022  0.96650  1.0000
  Fe  Fe28      1.0  0.36752  0.14832  0.64465  1.0000
  H   H350      1.0  0.51813  0.09226  0.53900  1.0000
  C   C208      1.0  0.36085  0.11376  0.74156  1.0000
  C   C209      1.0  0.56110  0.05090  0.59717  1.0000
  H   H351      1.0  0.56554  0.15542  0.75928  1.0000
  H   H352      1.0  0.58705  0.28457  0.63327  1.0000
  H   H353      1.0  0.55619  0.12002  0.78492  1.0000
  Fe  Fe29      1.0  0.65838  0.12313  0.56242  1.0000
  H   H354      1.0  0.34139  0.20455  0.81994  1.0000
  C   C210      1.0  0.65769  0.02563  0.54636  1.0000
  C   C211      1.0  0.37864  0.14739  0.80070  1.0000
  C   C212      1.0  0.49720  0.05594  0.57076  1.0000
  H   H355      1.0  0.52064  0.09858  0.94579  1.0000
  C   C213      1.0  0.57330  0.30286  0.56811  1.0000
  H   H356      1.0  0.34817  0.07441  0.77585  1.0000
  H   H357      1.0  0.38564  0.16050  0.82328  1.0000
  H   H358      1.0  0.52321  0.09904  0.58252  1.0000
  N   N16       1.0  0.56660  0.16268  0.83813  1.0000
  C   C214      1.0  0.58416  0.17937  0.86603  1.0000
  C   C215      1.0  0.55297  0.13143  0.85228  1.0000
  C   C216      1.0  0.54157  0.18451  0.82535  1.0000
  C   C217      1.0  0.58788  0.15549  0.80911  1.0000
  C   C218      1.0  0.59460  0.21508  0.85875  1.0000
  C   C219      1.0  0.57514  0.10299  0.85944  1.0000
  C   C220      1.0  0.51852  0.19572  0.85255  1.0000
  C   C221      1.0  0.57437  0.13740  0.77814  1.0000
  H   H359      1.0  0.57115  0.18006  0.89014  1.0000
  H   H360      1.0  0.60475  0.16486  0.87219  1.0000
  H   H361      1.0  0.53499  0.12166  0.83547  1.0000
  H   H362      1.0  0.54126  0.13655  0.87681  1.0000
  H   H363      1.0  0.55066  0.20690  0.81252  1.0000
  H   H364      1.0  0.52846  0.17158  0.80528  1.0000
  H   H365      1.0  0.59741  0.17882  0.79882  1.0000
  H   H366      1.0  0.60827  0.14178  0.81774  1.0000
  H   H367      1.0  0.60945  0.21664  0.83615  1.0000
  H   H368      1.0  0.57550  0.23252  0.85604  1.0000
  H   H369      1.0  0.60799  0.22397  0.88068  1.0000
  H   H370      1.0  0.58531  0.09303  0.83575  1.0000
  H   H371      1.0  0.59297  0.11083  0.87715  1.0000
  H   H372      1.0  0.56287  0.08241  0.87195  1.0000
  H   H373      1.0  0.50549  0.17459  0.86287  1.0000
  H   H374      1.0  0.50200  0.21281  0.84068  1.0000
  H   H375      1.0  0.52906  0.20926  0.87390  1.0000
  H   H376      1.0  0.59215  0.12214  0.76578  1.0000
  H   H377      1.0  0.42166  0.02144  0.53180  1.0000
  C   C222      1.0  0.35770  0.09891  0.77388  1.0000
  C   C223      1.0  0.37275  0.14562  0.73870  1.0000
  H   H378      1.0  0.58656  0.31267  0.54624  1.0000
  H   H379      1.0  0.60971  0.23789  0.51685  1.0000
  H   H380      1.0  0.50746  0.16809  0.64670  1.0000
  H   H381      1.0  0.39106  0.18683  0.76648  1.0000
  H   H382      1.0  0.42978  0.02069  0.99307  1.0000
  C   C224      1.0  0.65404  0.04434  0.51675  1.0000
  S   S64       1.0  0.37562  0.16660  0.69912  1.0000
  H   H383      1.0  0.54377  0.03292  0.60559  1.0000
  H   H384      1.0  0.58012  0.05479  0.96231  1.0000
  C   C225      1.0  0.54016  0.30233  0.55606  1.0000
  C   C226      1.0  0.62052  0.27240  0.57704  1.0000
  H   H385      1.0  0.50348  0.16224  0.52099  1.0000
  H   H386      1.0  0.55225  0.23728  0.55999  1.0000
  Fe  Fe30      1.0  0.35245  0.09630  0.58985  1.0000
  H   H387      1.0  0.59326  0.12466  0.51598  1.0000
  H   H388      1.0  0.57313  0.22301  0.50693  1.0000
  C   C227      1.0  0.33883  0.03133  0.51590  1.0000
  N   N17       1.0  0.58665  0.27048  0.57995  1.0000
  H   H389      1.0  0.62757  0.27849  0.55058  1.0000
  H   H390      1.0  0.49727  0.03342  0.55476  1.0000
  H   H391      1.0  0.59234  0.02311  0.62871  1.0000
  C   C228      1.0  0.58536  0.24280  0.52073  1.0000
  C   C229      1.0  0.57679  0.24138  0.55877  1.0000
  H   H392      1.0  0.53328  0.28374  0.62355  1.0000
  H   H393      1.0  0.57609  0.01154  0.96454  1.0000
  H   H394      1.0  0.65910  0.18015  0.71091  1.0000
  H   H395      1.0  0.53902  0.30243  0.52783  1.0000
  H   H396      1.0  0.63260  0.00492  0.95581  1.0000
  S   S65       1.0  0.66453  0.13338  0.98610  1.0000
  Fe  Fe31      1.0  0.33879  0.17411  0.94396  1.0000
  H   H397      1.0  0.64903  0.20005  0.76969  1.0000
  H   H398      1.0  0.55432  0.11625  0.51164  1.0000
  C   C230      1.0  0.66239  0.17796  0.76582  1.0000
  C   C231      1.0  0.66814  0.16678  0.73240  1.0000
  H   H399      1.0  0.63694  0.28964  0.62684  1.0000
  S   S66       1.0  0.66659  0.17716  0.83563  1.0000
  H   H400      1.0  0.34149  0.05780  0.51336  1.0000
  Fe  Fe32      1.0  0.37770  0.84026  0.46041  1.0000
  S   S67       1.0  0.37557  0.87999  0.42114  1.0000
  C   C232      1.0  0.53692  0.89799  0.30579  1.0000
  H   H401      1.0  0.38704  0.83822  0.26845  1.0000
  Fe  Fe33      1.0  0.34367  0.88737  0.06813  1.0000
  C   C233      1.0  0.59994  0.97011  0.01410  1.0000
  S   S68       1.0  0.42205  0.83131  0.48793  1.0000
  H   H402      1.0  0.49948  0.90263  0.50171  1.0000
  H   H403      1.0  0.57166  0.86016  0.16745  1.0000
  S   S69       1.0  0.36119  0.81390  0.12865  1.0000
  C   C234      1.0  0.49301  0.76235  0.12860  1.0000
  S   S70       1.0  0.37410  0.84497  0.05370  1.0000
  N   N18       1.0  0.54655  0.77978  0.14903  1.0000
  Fe  Fe34      1.0  0.39333  0.85100  0.10610  1.0000
  S   S71       1.0  0.44172  0.85719  0.12419  1.0000
  S   S72       1.0  0.36446  0.89504  0.11947  1.0000
  Fe  Fe35      1.0  0.59791  0.85297  0.43234  1.0000
  S   S73       1.0  0.62083  0.90082  0.41908  1.0000
  S   S74       1.0  0.54890  0.85250  0.41463  1.0000
  H   H404      1.0  0.40035  0.92786  0.05675  1.0000
  H   H405      1.0  0.57737  0.96651  0.02553  1.0000
  H   H406      1.0  0.50832  0.83148  0.02709  1.0000
  S   S75       1.0  0.63287  0.82064  0.40667  1.0000
  H   H407      1.0  0.62829  0.80866  0.26005  1.0000
  S   S76       1.0  0.63480  0.81912  0.10009  1.0000
  C   C235      1.0  0.66572  0.86997  0.30169  1.0000
  S   S77       1.0  0.65438  0.87217  0.04166  1.0000
  Fe  Fe36      1.0  0.61248  0.86073  0.07217  1.0000
  S   S78       1.0  0.56707  0.85373  0.04622  1.0000
  S   S79       1.0  0.62158  0.89731  0.11365  1.0000
  C   C236      1.0  0.53210  0.73306  0.19133  1.0000
  H   H408      1.0  0.35308  0.90731  0.35378  1.0000
  C   C237      1.0  0.66630  0.87863  0.23978  1.0000
  H   H409      1.0  0.53763  0.84908  0.27800  1.0000
  C   C238      1.0  0.57546  0.83944  0.33053  1.0000
  H   H410      1.0  0.42261  0.93146  0.11298  1.0000
  C   C239      1.0  0.47519  0.85960  0.09992  1.0000
  C   C240      1.0  0.47797  0.84467  0.06796  1.0000
  C   C241      1.0  0.50613  0.84383  0.05141  1.0000
  C   C242      1.0  0.53172  0.85770  0.06670  1.0000
  C   C243      1.0  0.52862  0.87378  0.09801  1.0000
  C   C244      1.0  0.50050  0.87465  0.11454  1.0000
  H   H411      1.0  0.45872  0.83273  0.05660  1.0000
  C   C245      1.0  0.47276  0.93383  0.02744  1.0000
  H   H412      1.0  0.54804  0.88499  0.10977  1.0000
  H   H413      1.0  0.49850  0.88631  0.13923  1.0000
  S   S80       1.0  0.36200  0.83903  0.33549  1.0000
  H   H414      1.0  0.48296  0.94837  0.04842  1.0000
  C   C246      1.0  0.64941  0.84085  0.29666  1.0000
  C   C247      1.0  0.45727  0.83696  0.46736  1.0000
  C   C248      1.0  0.45912  0.84662  0.43327  1.0000
  C   C249      1.0  0.48738  0.85132  0.41777  1.0000
  C   C250      1.0  0.51415  0.84662  0.43612  1.0000
  C   C251      1.0  0.51237  0.83724  0.47032  1.0000
  H   H415      1.0  0.38749  0.90289  0.30314  1.0000
  H   H416      1.0  0.43879  0.84998  0.41866  1.0000
  H   H417      1.0  0.48848  0.85832  0.39125  1.0000
  C   C252      1.0  0.42538  0.92634  0.05801  1.0000
  C   C253      1.0  0.55947  0.76785  0.08601  1.0000
  H   H418      1.0  0.54078  0.78306  0.20373  1.0000
  C   C254      1.0  0.48403  0.83234  0.48581  1.0000
  H   H419      1.0  0.36557  0.84690  0.21089  1.0000
  C   C255      1.0  0.42057  0.95098  0.46106  1.0000
  H   H420      1.0  0.52787  0.92126  0.29455  1.0000
  C   C256      1.0  0.52226  0.86914  0.28590  1.0000
  H   H421      1.0  0.56517  0.82229  0.12263  1.0000
  C   C257      1.0  0.58535  0.89067  0.27295  1.0000
  H   H422      1.0  0.58311  0.82824  0.30632  1.0000
  H   H423      1.0  0.51044  0.87864  0.26303  1.0000
  Fe  Fe37      1.0  0.65826  0.82139  0.45675  1.0000
  C   C258      1.0  0.38194  0.92720  0.31482  1.0000
  C   C259      1.0  0.55837  0.83781  0.17399  1.0000
  H   H424      1.0  0.54774  0.73181  0.12352  1.0000
  H   H425      1.0  0.56479  0.74669  0.06896  1.0000
  S   S81       1.0  0.63573  0.83788  0.19415  1.0000
  C   C260      1.0  0.56604  0.81031  0.14805  1.0000
  Fe  Fe38      1.0  0.64676  0.85646  0.14030  1.0000
  H   H426      1.0  0.48842  0.76557  0.10101  1.0000
  H   H427      1.0  0.57460  0.88371  0.35911  1.0000
  H   H428      1.0  0.47796  0.90782  0.03466  1.0000
  H   H429      1.0  0.39991  0.93211  0.33365  1.0000
  C   C261      1.0  0.57518  0.91146  0.24215  1.0000
  H   H430      1.0  0.60798  0.87868  0.33528  1.0000
  C   C262      1.0  0.51454  0.78967  0.14135  1.0000
  H   H431      1.0  0.50383  0.80151  0.16396  1.0000
  H   H432      1.0  0.53436  0.84509  0.17345  1.0000
  H   H433      1.0  0.51443  0.80886  0.12120  1.0000
  C   C263      1.0  0.43490  0.94321  0.09155  1.0000
  C   C264      1.0  0.64930  0.84998  0.23487  1.0000
  C   C265      1.0  0.58309  0.87644  0.33368  1.0000
  C   C266      1.0  0.54926  0.76534  0.18427  1.0000
  Fe  Fe39      1.0  0.64616  0.89534  0.46805  1.0000
  H   H434      1.0  0.40487  0.97212  0.45741  1.0000
  H   H435      1.0  0.56514  0.83079  0.20016  1.0000
  C   C267      1.0  0.58064  0.93384  0.31545  1.0000
  Fe  Fe40      1.0  0.65641  0.86849  0.39512  1.0000
  H   H436      1.0  0.47084  0.76540  0.14139  1.0000
  H   H437      1.0  0.59008  0.80356  0.15213  1.0000
  C   C268      1.0  0.35109  0.84785  0.23305  1.0000
  H   H438      1.0  0.52779  0.89713  0.33225  1.0000
  H   H439      1.0  0.50034  0.73666  0.13321  1.0000
  N   N19       1.0  0.57083  0.89912  0.30661  1.0000
  H   H440      1.0  0.55044  0.91242  0.23945  1.0000
  H   H441      1.0  0.43071  0.89969  0.06128  1.0000
  C   C269      1.0  0.64864  0.99304  0.48408  1.0000
  H   H442      1.0  0.53278  0.83335  0.48469  1.0000
  C   C270      1.0  0.34519  0.96726  0.02432  1.0000
  H   H443      1.0  0.50744  0.73707  0.19075  1.0000
  H   H444      1.0  0.53882  0.71259  0.17418  1.0000
  H   H445      1.0  0.60571  0.93555  0.31565  1.0000
  C   C271      1.0  0.55947  0.75585  0.12333  1.0000
  Fe  Fe41      1.0  0.34663  0.84530  0.39091  1.0000
  H   H446      1.0  0.38247  0.94580  0.29416  1.0000
  H   H447      1.0  0.58320  0.74958  0.12993  1.0000
  H   H448      1.0  0.54455  0.94633  0.35258  1.0000
  C   C272      1.0  0.64121  0.83101  0.26350  1.0000
  H   H449      1.0  0.36443  0.95593  0.38903  1.0000
  H   H450      1.0  0.57716  0.78658  0.08142  1.0000
  S   S82       1.0  0.62078  0.84953  0.48307  1.0000
  H   H451      1.0  0.48893  0.94475  0.49707  1.0000
  H   H452      1.0  0.41809  0.93548  0.43791  1.0000
  H   H453      1.0  0.53751  0.77810  0.07796  1.0000
  H   H454      1.0  0.40992  0.98180  0.03546  1.0000
  H   H455      1.0  0.53747  0.72471  0.21757  1.0000
  H   H456      1.0  0.57338  0.76076  0.19052  1.0000
  C   C273      1.0  0.36321  0.84291  0.26575  1.0000
  C   C274      1.0  0.43254  0.97661  0.02458  1.0000
  C   C275      1.0  0.35079  0.92485  0.33207  1.0000
  H   H457      1.0  0.55117  0.83495  0.33483  1.0000
  C   C276      1.0  0.35113  0.98517  0.05399  1.0000
  C   C277      1.0  0.56930  0.94785  0.34977  1.0000
  H   H458      1.0  0.57284  0.95175  0.29591  1.0000
  N   N20       1.0  0.43935  0.93993  0.02583  1.0000
  H   H459      1.0  0.58450  0.90005  0.21861  1.0000
  H   H460      1.0  0.44400  0.95977  0.46093  1.0000
  H   H461      1.0  0.58728  0.82584  0.35108  1.0000
  H   H462      1.0  0.47112  0.91245  0.47174  1.0000
  H   H463      1.0  0.61012  0.89367  0.27482  1.0000
  H   H464      1.0  0.58437  0.93690  0.24319  1.0000
  H   H465      1.0  0.61492  0.95081  0.02510  1.0000
  H   H466      1.0  0.58244  0.86443  0.26586  1.0000
  H   H467      1.0  0.45912  0.93955  0.09696  1.0000
  H   H468      1.0  0.42904  0.96987  0.09216  1.0000
  H   H469      1.0  0.50466  0.85751  0.30206  1.0000
  H   H470      1.0  0.64297  0.82602  0.31838  1.0000
  H   H471      1.0  0.35077  0.97277  0.07837  1.0000
  H   H472      1.0  0.64543  0.98070  0.45995  1.0000
  C   C278      1.0  0.41113  0.93033  0.49248  1.0000
  H   H473      1.0  0.57539  0.97443  0.35131  1.0000
  H   H474      1.0  0.38700  0.93632  0.49700  1.0000
  S   S83       1.0  0.35139  0.80383  0.42898  1.0000
  C   C279      1.0  0.47997  0.91927  0.49714  1.0000
  H   H475      1.0  0.41149  0.90381  0.48483  1.0000
  C   C280      1.0  0.34487  0.84413  0.29497  1.0000
  H   H476      1.0  0.58035  0.93576  0.37172  1.0000
  H   H477      1.0  0.35219  0.99073  0.30473  1.0000
  Fe  Fe42      1.0  0.66503  0.90649  0.08517  1.0000
  H   H478      1.0  0.42496  0.87060  0.01534  1.0000
  H   H479      1.0  0.44850  0.99067  0.04080  1.0000
  C   C281      1.0  0.35876  0.97315  0.36782  1.0000
  H   H480      1.0  0.38034  0.97863  0.35473  1.0000
  H   H481      1.0  0.38833  0.94043  0.55533  1.0000
  H   H482      1.0  0.41778  0.87205  0.56248  1.0000
  H   H483      1.0  0.41993  0.87492  0.97078  1.0000
  S   S84       1.0  0.65359  0.93039  0.51292  1.0000
  H   H484      1.0  0.66060  0.85961  0.54368  1.0000
  H   H485      1.0  0.47948  0.93755  0.97137  1.0000
  H   H486      1.0  0.51162  0.92643  0.99461  1.0000
  H   H487      1.0  0.59916  0.96554  0.98632  1.0000
  H   H488      1.0  0.48285  0.82476  0.51216  1.0000
  H   H489      1.0  0.64635  0.82864  0.57115  1.0000
  C   C282      1.0  0.43835  0.97061  0.53057  1.0000
  H   H490      1.0  0.66219  0.86467  0.58965  1.0000
  H   H491      1.0  0.42100  0.93075  0.57926  1.0000
  H   H492      1.0  0.43092  0.93326  0.97151  1.0000
  H   H493      1.0  0.45340  0.97978  0.51028  1.0000
  C   C283      1.0  0.34554  0.98381  0.99286  1.0000
  H   H494      1.0  0.45006  0.88689  0.52241  1.0000
  C   C284      1.0  0.40938  0.92550  0.55476  1.0000
  C   C285      1.0  0.45637  0.91329  0.52520  1.0000
  H   H495      1.0  0.46804  0.91515  0.55018  1.0000
  H   H496      1.0  0.38178  0.88626  0.57613  1.0000
  N   N21       1.0  0.42887  0.93523  0.52482  1.0000
  H   H497      1.0  0.49854  0.96876  0.99614  1.0000
  C   C286      1.0  0.39909  0.88910  0.55591  1.0000
  H   H498      1.0  0.38864  0.88115  0.53175  1.0000
  H   H499      1.0  0.45311  0.98934  0.97467  1.0000
  C   C287      1.0  0.65288  0.97430  0.51357  1.0000
  H   H500      1.0  0.34083  0.97019  0.96979  1.0000
  H   H501      1.0  0.66049  0.97651  0.56767  1.0000
  H   H502      1.0  0.45196  0.97254  0.55426  1.0000
  H   H503      1.0  0.45655  0.88072  0.98827  1.0000
  C   C288      1.0  0.65714  0.99079  0.54473  1.0000
  C   C289      1.0  0.49130  0.94252  0.99549  1.0000
  C   C290      1.0  0.43225  0.88507  0.99297  1.0000
  H   H504      1.0  0.39985  0.92490  0.99779  1.0000
  C   C291      1.0  0.42480  0.92224  0.99635  1.0000
  H   H505      1.0  0.41248  0.98568  0.97429  1.0000
  C   C292      1.0  0.66467  0.84705  0.56822  1.0000
  H   H506      1.0  0.39562  0.99305  0.51344  1.0000
  C   C293      1.0  0.43227  0.99353  0.98941  1.0000
  Fe  Fe43      1.0  0.90088  0.36910  0.45927  1.0000
  S   S85       1.0  0.89012  0.40563  0.41833  1.0000
  H   H507      1.0  0.77688  0.12542  0.10170  1.0000
  Fe  Fe44      1.0  0.83635  0.33933  0.45714  1.0000
  S   S86       1.0  0.82203  0.37499  0.41571  1.0000
  S   S87       1.0  0.83436  0.46857  0.44997  1.0000
  Fe  Fe45      1.0  0.86680  0.36438  0.39106  1.0000
  S   S88       1.0  0.87940  0.35045  0.33627  1.0000
  Fe  Fe46      1.0  0.84667  0.41375  0.44653  1.0000
  C   C294      1.0  0.76855  0.18943  0.08326  1.0000
  S   S89       1.0  0.88034  0.32688  0.43071  1.0000
  H   H508      1.0  0.78588  0.17278  0.15133  1.0000
  Fe  Fe47      1.0  0.85166  0.32135  0.07393  1.0000
  S   S90       1.0  0.82588  0.36760  0.08663  1.0000
  S   S91       1.0  0.83392  0.27735  0.04231  1.0000
  Fe  Fe48      1.0  0.91078  0.35032  0.10416  1.0000
  S   S92       1.0  0.88833  0.39865  0.11752  1.0000
  S   S93       1.0  0.95877  0.34498  0.12384  1.0000
  Fe  Fe49      1.0  0.85067  0.36656  0.13702  1.0000
  S   S94       1.0  0.82597  0.37616  0.18734  1.0000
  Fe  Fe50      1.0  0.86603  0.39541  0.06627  1.0000
  S   S95       1.0  0.86534  0.43093  0.02081  1.0000
  S   S96       1.0  0.87377  0.31829  0.12566  1.0000
  S   S97       1.0  0.89117  0.34898  0.05173  1.0000
  H   H509      1.0  0.77168  0.29759  0.05876  1.0000
  C   C295      1.0  0.99642  0.33508  0.06781  1.0000
  H   H510      1.0  0.84518  0.30184  0.37429  1.0000
  H   H511      1.0  0.78238  0.22896  0.48368  1.0000
  C   C296      1.0  0.77096  0.27775  0.04029  1.0000
  C   C297      1.0  0.79783  0.26453  0.02747  1.0000
  H   H512      1.0  0.82626  0.27571  0.25846  1.0000
  H   H513      1.0  0.97632  0.33331  0.05254  1.0000
  H   H514      1.0  0.77106  0.37129  0.04225  1.0000
  H   H515      1.0  0.75076  0.30670  0.37299  1.0000
  C   C298      1.0  0.86458  0.35966  0.29523  1.0000
  C   C299      1.0  0.83753  0.37684  0.29058  1.0000
  C   C300      1.0  0.82607  0.38178  0.25745  1.0000
  C   C301      1.0  0.84167  0.37007  0.22856  1.0000
  C   C302      1.0  0.86880  0.35311  0.23327  1.0000
  C   C303      1.0  0.88002  0.34778  0.26637  1.0000
  H   H516      1.0  0.82543  0.38635  0.31241  1.0000
  H   H517      1.0  0.80511  0.39501  0.25412  1.0000
  H   H518      1.0  0.88110  0.34396  0.21139  1.0000
  H   H519      1.0  0.90094  0.33443  0.26957  1.0000
  H   H520      1.0  0.80658  0.31039  0.27495  1.0000
  H   H521      1.0  0.78170  0.31989  0.39977  1.0000
  C   C304      1.0  0.82742  0.27834  0.31373  1.0000
  C   C305      1.0  0.85917  0.47430  0.01913  1.0000
  C   C306      1.0  0.76960  0.24659  0.49860  1.0000
  C   C307      1.0  0.81117  0.28374  0.27952  1.0000
  C   C308      1.0  0.77118  0.32228  0.37440  1.0000
  N   N22       1.0  0.79859  0.19040  0.10092  1.0000
  H   H522      1.0  0.83808  0.25345  0.31207  1.0000
  H   H523      1.0  0.84648  0.29600  0.31435  1.0000
  H   H524      1.0  0.83231  0.25848  0.14147  1.0000
  C   C309      1.0  0.81875  0.15939  0.04713  1.0000
  C   C310      1.0  0.77764  0.28030  0.49759  1.0000
  C   C311      1.0  0.80197  0.22459  0.11604  1.0000
  H   H525      1.0  0.73995  0.22084  0.11619  1.0000
  H   H526      1.0  0.81007  0.33479  0.34409  1.0000
  C   C312      1.0  0.98174  0.35973  0.46922  1.0000
  C   C313      1.0  0.98344  0.33362  0.44590  1.0000
  H   H527      1.0  0.69614  0.06644  0.02402  1.0000
  H   H528      1.0  0.96299  0.32321  0.43570  1.0000
  N   N23       1.0  0.80840  0.28135  0.34556  1.0000
  C   C314      1.0  0.82963  0.28037  0.37538  1.0000
  C   C315      1.0  0.79300  0.31466  0.34490  1.0000
  C   C316      1.0  0.78578  0.25357  0.34596  1.0000
  C   C317      1.0  0.84935  0.24908  0.37824  1.0000
  C   C318      1.0  0.77294  0.24317  0.38110  1.0000
  H   H529      1.0  0.81790  0.28340  0.39998  1.0000
  H   H530      1.0  0.77918  0.31768  0.32163  1.0000
  H   H531      1.0  0.76643  0.25972  0.32916  1.0000
  H   H532      1.0  0.79606  0.23073  0.33502  1.0000
  H   H533      1.0  0.86795  0.24953  0.35934  1.0000
  H   H534      1.0  0.85996  0.24860  0.40382  1.0000
  H   H535      1.0  0.83627  0.22603  0.37538  1.0000
  H   H536      1.0  0.72245  0.27431  0.04097  1.0000
  H   H537      1.0  0.74892  0.23637  0.37808  1.0000
  H   H538      1.0  0.77360  0.26218  0.40125  1.0000
  H   H539      1.0  0.78427  0.22041  0.39043  1.0000
  H   H540      1.0  0.84735  0.48032  0.07189  1.0000
  C   C319      1.0  0.82374  0.18525  0.07544  1.0000
  H   H541      1.0  0.82354  0.16605  0.14086  1.0000
  H   H542      1.0  0.85063  0.23450  0.10962  1.0000
  H   H543      1.0  0.99050  0.36269  0.32546  1.0000
  C   C320      1.0  0.99394  0.34086  0.10282  1.0000
  C   C321      1.0  0.93175  0.49040  0.44232  1.0000
  H   H544      1.0  0.78592  0.22853  0.13744  1.0000
  H   H545      1.0  0.95655  0.49301  0.44266  1.0000
  H   H546      1.0  0.84083  0.21630  0.15040  1.0000
  H   H547      1.0  0.79011  0.26933  0.27763  1.0000
  H   H548      1.0  0.81559  0.11654  0.11248  1.0000
  H   H549      1.0  0.79638  0.24393  0.09690  1.0000
  S   S98       1.0  0.80874  0.29273  0.47138  1.0000
  S   S99       1.0  0.94679  0.37546  0.48438  1.0000
  H   H550      1.0  0.78606  0.11638  0.14399  1.0000
  H   H551      1.0  0.68813  0.03011  0.07428  1.0000
  C   C322      1.0  0.83338  0.23335  0.13006  1.0000
  H   H552      1.0  0.76351  0.34838  0.37217  1.0000
  C   C323      1.0  0.74302  0.26442  0.03018  1.0000
  C   C324      1.0  0.68989  0.01929  0.04917  1.0000
  C   C325      1.0  0.80066  0.16573  0.12956  1.0000
  H   H553      1.0  0.99812  0.47100  0.49593  1.0000
  H   H554      1.0  0.84508  0.17863  0.08857  1.0000
  H   H555      1.0  0.81243  0.13479  0.05692  1.0000
  H   H556      1.0  0.82858  0.20868  0.06162  1.0000
  H   H557      1.0  0.80162  0.16799  0.02860  1.0000
  S   S100      1.0  0.85829  0.37905  0.48936  1.0000
  C   C326      1.0  0.79462  0.12915  0.12090  1.0000
  C   C327      1.0  0.69435  0.03996  0.02072  1.0000
  H   H558      1.0  0.77105  0.40260  0.01054  1.0000
  H   H559      1.0  0.80577  0.33663  0.01299  1.0000
  H   H560      1.0  0.76795  0.20833  0.06287  1.0000
  C   C328      1.0  0.74141  0.23787  0.00696  1.0000
  C   C329      1.0  0.85048  0.49263  0.04770  1.0000
  H   H561      1.0  0.92531  0.46419  0.43931  1.0000
  H   H562      1.0  0.76468  0.16580  0.06974  1.0000
  H   H563      1.0  0.72022  0.19239  0.09011  1.0000
  H   H564      1.0  0.73920  0.17700  0.12688  1.0000
  C   C330      1.0  0.77255  0.37548  0.01438  1.0000
  H   H565      1.0  0.96677  0.45010  0.47846  1.0000
  C   C331      1.0  0.82975  0.49289  0.48718  1.0000
  C   C332      1.0  0.74071  0.19528  0.10596  1.0000
  C   C333      1.0  0.97520  0.46181  0.50193  1.0000
  H   H566      1.0  0.91990  0.44019  0.48846  1.0000
  H   H567      1.0  0.84002  0.15625  0.03255  1.0000
  H   H568      1.0  0.88536  0.45766  0.49976  1.0000
  H   H569      1.0  0.82048  0.37698  0.01295  1.0000
  H   H570      1.0  0.00414  0.40822  0.05372  1.0000
  H   H571      1.0  0.81674  0.19228  0.64507  1.0000
  S   S101      1.0  0.69984  0.14587  0.58584  1.0000
  S   S102      1.0  0.69764  0.24510  0.56488  1.0000
  H   H572      1.0  0.70050  0.11932  0.81032  1.0000
  H   H573      1.0  0.78035  0.25242  0.57946  1.0000
  H   H574      1.0  0.75401  0.22188  0.70231  1.0000
  S   S103      1.0  0.71377  0.14862  0.92382  1.0000
  C   C334      1.0  0.82208  0.47900  0.51859  1.0000
  C   C335      1.0  0.80152  0.20066  0.66597  1.0000
  H   H575      1.0  0.76751  0.20507  0.97542  1.0000
  Fe  Fe51      1.0  0.67646  0.19482  0.57851  1.0000
  H   H576      1.0  0.93292  0.43920  0.55390  1.0000
  H   H577      1.0  0.85487  0.32614  0.99440  1.0000
  H   H578      1.0  0.88387  0.33946  0.96610  1.0000
  H   H579      1.0  0.86964  0.47678  0.96559  1.0000
  H   H580      1.0  0.80645  0.23540  0.70872  1.0000
  H   H581      1.0  0.75702  0.29629  0.93887  1.0000
  C   C336      1.0  0.95601  0.49080  0.51608  1.0000
  C   C337      1.0  0.78131  0.24891  0.60744  1.0000
  H   H582      1.0  0.80283  0.18083  0.68565  1.0000
  H   H583      1.0  0.97845  0.44250  0.52168  1.0000
  H   H584      1.0  0.84399  0.36369  0.92704  1.0000
  H   H585      1.0  0.75139  0.16500  0.68399  1.0000
  C   C338      1.0  0.91048  0.43807  0.54190  1.0000
  C   C339      1.0  0.72834  0.25773  0.53823  1.0000
  C   C340      1.0  0.73632  0.29145  0.53720  1.0000
  H   H586      1.0  0.79281  0.38306  0.91640  1.0000
  H   H587      1.0  0.72359  0.30910  0.55213  1.0000
  C   C341      1.0  0.79158  0.38719  0.94441  1.0000
  H   H588      1.0  0.75557  0.31509  0.97939  1.0000
  H   H589      1.0  0.74623  0.21248  0.60546  1.0000
  C   C342      1.0  0.76936  0.14222  0.63853  1.0000
  C   C343      1.0  0.85978  0.33243  0.96759  1.0000
  H   H590      1.0  0.76649  0.32864  0.51675  1.0000
  H   H591      1.0  0.70988  0.25475  0.68211  1.0000
  C   C344      1.0  0.84021  0.36148  0.95500  1.0000
  H   H592      1.0  0.76719  0.38821  0.95032  1.0000
  H   H593      1.0  0.81677  0.22815  0.99338  1.0000
  H   H594      1.0  0.79277  0.13805  0.64709  1.0000
  H   H595      1.0  0.80705  0.30559  0.96281  1.0000
  Fe  Fe52      1.0  0.68801  0.10466  0.94505  1.0000
  H   H596      1.0  0.90529  0.41154  0.53755  1.0000
  C   C345      1.0  0.74524  0.23535  0.51875  1.0000
  C   C346      1.0  0.80433  0.42206  0.95135  1.0000
  C   C347      1.0  0.76932  0.21430  0.61611  1.0000
  H   H597      1.0  0.76879  0.14484  0.61046  1.0000
  H   H598      1.0  0.81469  0.25387  0.66805  1.0000
  H   H599      1.0  0.78305  0.19674  0.60073  1.0000
  C   C348      1.0  0.75403  0.17178  0.65661  1.0000
  N   N24       1.0  0.76958  0.20472  0.65321  1.0000
  H   H600      1.0  0.74783  0.33911  0.94110  1.0000
  C   C349      1.0  0.75258  0.22925  0.67501  1.0000
  H   H601      1.0  0.76264  0.25428  0.67351  1.0000
  S   S104      1.0  0.70557  0.22013  0.99785  1.0000
  H   H602      1.0  0.80523  0.25166  0.61433  1.0000
  H   H603      1.0  0.73088  0.17294  0.64613  1.0000
  C   C350      1.0  0.81633  0.23089  0.68313  1.0000
  C   C351      1.0  0.76076  0.30266  0.51714  1.0000
  H   H604      1.0  0.81902  0.45254  0.52069  1.0000
  H   H605      1.0  0.75658  0.11940  0.64469  1.0000
  H   H606      1.0  0.73957  0.20936  0.51914  1.0000
  Fe  Fe53      1.0  0.68818  0.17798  0.96343  1.0000
  C   C352      1.0  0.71887  0.23368  0.66700  1.0000
  H   H607      1.0  0.71476  0.23950  0.63988  1.0000
  H   H608      1.0  0.85019  0.38411  0.96643  1.0000
  H   H609      1.0  0.71135  0.09996  0.75141  1.0000
  H   H610      1.0  0.82560  0.42609  0.93709  1.0000
  H   H611      1.0  0.70572  0.21166  0.67481  1.0000
  H   H612      1.0  0.84062  0.22564  0.68698  1.0000
  C   C353      1.0  0.76826  0.22541  0.99329  1.0000
  C   C354      1.0  0.80276  0.36138  0.00115  1.0000
  S   S105      1.0  0.70391  0.05126  0.95175  1.0000
  H   H613      1.0  0.78807  0.44110  0.94253  1.0000
  N   N25       1.0  0.80701  0.35933  0.96304  1.0000
  H   H614      1.0  0.76738  0.26885  0.61884  1.0000
  H   H615      1.0  0.85692  0.31013  0.95146  1.0000
  H   H616      1.0  0.89315  0.44770  0.55976  1.0000
  H   H617      1.0  0.80861  0.42650  0.97874  1.0000
  H   H618      1.0  0.80207  0.32400  0.92206  1.0000
  C   C355      1.0  0.69718  0.02627  0.98818  1.0000
  C   C356      1.0  0.79597  0.32662  0.94947  1.0000
  C   C357      1.0  0.76208  0.31965  0.95261  1.0000
  C   C358      1.0  0.79621  0.23861  0.00356  1.0000
  C   C359      1.0  0.90938  0.45658  0.50761  1.0000
  N   N26       1.0  0.92289  0.49077  0.50763  1.0000
  C   C360      1.0  0.86296  0.49075  0.98786  1.0000
  H   H619      1.0  0.81052  0.48872  0.57110  1.0000
  C   C361      1.0  0.68597  0.13869  0.72691  1.0000
  C   C362      1.0  0.69135  0.13259  0.78879  1.0000
  C   C363      1.0  0.69751  0.12170  0.75530  1.0000
  H   H620      1.0  0.93198  0.48591  0.99035  1.0000
  H   H621      1.0  0.95908  0.49002  0.54419  1.0000
  S   S106      1.0  0.69541  0.12473  0.68519  1.0000
  H   H622      1.0  0.75263  0.36367  0.00305  1.0000
  Fe  Fe54      1.0  0.67340  0.15687  0.88967  1.0000
  Fe  Fe55      1.0  0.67415  0.14280  0.63571  1.0000
  C   C364      1.0  0.67397  0.16102  0.79424  1.0000
  H   H623      1.0  0.73741  0.78821  0.45912  1.0000
  S   S107      1.0  0.67684  0.77752  0.48808  1.0000
  H   H624      1.0  0.83839  0.54089  0.06706  1.0000
  H   H625      1.0  0.73274  0.80732  0.12515  1.0000
  H   H626      1.0  0.76187  0.68044  0.47517  1.0000
  H   H627      1.0  0.68841  0.94457  0.00957  1.0000
  C   C365      1.0  0.78386  0.87492  0.06740  1.0000
  N   N27       1.0  0.94702  0.56172  0.03043  1.0000
  S   S108      1.0  0.70610  0.78701  0.05917  1.0000
  S   S109      1.0  0.69107  0.86804  0.11513  1.0000
  C   C366      1.0  0.73182  0.77355  0.02700  1.0000
  H   H628      1.0  0.95399  0.62931  0.02484  1.0000
  H   H629      1.0  0.71102  0.60876  0.49468  1.0000
  C   C367      1.0  0.94295  0.57128  0.06726  1.0000
  C   C368      1.0  0.84538  0.52698  0.04487  1.0000
  C   C369      1.0  0.67448  0.88848  0.27298  1.0000
  H   H630      1.0  0.90493  0.57801  0.00928  1.0000
  H   H631      1.0  0.75864  0.85302  0.10775  1.0000
  H   H632      1.0  0.95289  0.59597  0.07251  1.0000
  H   H633      1.0  0.74561  0.77313  0.14936  1.0000
  H   H634      1.0  0.90989  0.58151  0.10687  1.0000
  H   H635      1.0  0.82854  0.86500  0.15502  1.0000
  H   H636      1.0  0.73927  0.72655  0.05155  1.0000
  H   H637      1.0  0.89512  0.58761  0.06527  1.0000
  C   C370      1.0  0.76878  0.65613  0.46435  1.0000
  C   C371      1.0  0.84929  0.54344  0.01364  1.0000
  H   H638      1.0  0.81438  0.65628  0.48647  1.0000
  C   C372      1.0  0.68733  0.98482  0.04542  1.0000
  H   H639      1.0  0.79289  0.59492  0.47211  1.0000
  H   H640      1.0  0.76268  0.59479  0.44257  1.0000
  H   H641      1.0  0.95524  0.55383  0.08412  1.0000
  H   H642      1.0  0.80147  0.88695  0.08291  1.0000
  H   H643      1.0  0.92373  0.50333  0.41909  1.0000
  H   H644      1.0  0.76546  0.89332  0.06407  1.0000
  H   H645      1.0  0.67273  0.89350  0.21809  1.0000
  C   C373      1.0  0.92913  0.58410  0.00739  1.0000
  S   S110      1.0  0.67461  0.88497  0.34310  1.0000
  H   H646      1.0  0.83929  0.53830  0.46062  1.0000
  H   H647      1.0  0.80980  0.68178  0.45000  1.0000
  C   C374      1.0  0.80334  0.65764  0.46136  1.0000
  C   C375      1.0  0.69016  0.97105  0.01288  1.0000
  C   C376      1.0  0.93618  0.52669  0.02590  1.0000
  N   N28       1.0  0.75611  0.62799  0.48523  1.0000
  H   H648      1.0  0.83399  0.84607  0.10038  1.0000
  N   N29       1.0  0.79324  0.81709  0.09347  1.0000
  H   H649      1.0  0.71620  0.62551  0.45398  1.0000
  H   H650      1.0  0.81235  0.63810  0.44428  1.0000
  H   H651      1.0  0.80934  0.82862  0.16996  1.0000
  H   H652      1.0  0.73221  0.56076  0.48525  1.0000
  H   H653      1.0  0.78833  0.80021  0.04143  1.0000
  C   C377      1.0  0.81075  0.84677  0.14880  1.0000
  C   C378      1.0  0.73936  0.77166  0.48063  1.0000
  C   C379      1.0  0.76797  0.59612  0.47025  1.0000
  H   H654      1.0  0.78747  0.76560  0.47538  1.0000
  C   C380      1.0  0.75305  0.79652  0.13719  1.0000
  H   H655      1.0  0.79256  0.86927  0.04156  1.0000
  C   C381      1.0  0.91021  0.57163  0.08051  1.0000
  S   S111      1.0  0.68427  0.86720  0.44337  1.0000
  C   C382      1.0  0.93207  0.62162  0.01432  1.0000
  H   H656      1.0  0.91337  0.63055  0.03073  1.0000
  C   C383      1.0  0.75690  0.56376  0.48661  1.0000
  H   H657      1.0  0.75972  0.65566  0.43793  1.0000
  C   C384      1.0  0.77746  0.78839  0.11042  1.0000
  H   H658      1.0  0.82099  0.82402  0.04827  1.0000
  C   C385      1.0  0.83341  0.52735  0.48485  1.0000
  H   H659      1.0  0.71152  0.68227  0.47542  1.0000
  H   H660      1.0  0.89258  0.50832  0.46868  1.0000
  C   C386      1.0  0.81884  0.82939  0.11504  1.0000
  H   H661      1.0  0.79400  0.77160  0.12284  1.0000
  H   H662      1.0  0.74183  0.88806  0.48373  1.0000
  H   H663      1.0  0.98810  0.59028  0.02599  1.0000
  H   H664      1.0  0.76089  0.81295  0.15769  1.0000
  Fe  Fe56      1.0  0.67763  0.83285  0.07307  1.0000
  H   H665      1.0  0.76685  0.54255  0.47244  1.0000
  H   H666      1.0  0.91157  0.52516  0.03060  1.0000
  H   H667      1.0  0.83389  0.80850  0.12217  1.0000
  H   H668      1.0  0.76579  0.77299  0.09107  1.0000
  H   H669      1.0  0.78980  0.86148  0.14789  1.0000
  C   C387      1.0  0.77089  0.84401  0.08500  1.0000
  H   H670      1.0  0.75297  0.83410  0.06816  1.0000
  C   C388      1.0  0.72239  0.62919  0.48119  1.0000
  H   H671      1.0  0.92554  0.53271  0.47327  1.0000
  C   C389      1.0  0.97978  0.56485  0.02096  1.0000
  H   H672      1.0  0.84523  0.77550  0.07868  1.0000
  C   C390      1.0  0.80641  0.80493  0.06019  1.0000
  H   H673      1.0  0.81195  0.75120  0.06942  1.0000
  H   H674      1.0  0.90071  0.54633  0.08180  1.0000
  H   H675      1.0  0.94630  0.50986  0.04514  1.0000
  C   C391      1.0  0.82550  0.77297  0.06178  1.0000
  C   C392      1.0  0.76777  0.75875  0.48995  1.0000
  C   C393      1.0  0.74557  0.74228  0.03045  1.0000
  H   H676      1.0  0.83424  0.76744  0.03583  1.0000
  C   C394      1.0  0.71353  0.76271  0.49883  1.0000
  C   C395      1.0  0.70702  0.66146  0.49312  1.0000
  H   H677      1.0  0.68728  0.91092  0.27651  1.0000
  H   H678      1.0  0.00236  0.54587  0.06706  1.0000
  H   H679      1.0  0.99644  0.51480  0.03441  1.0000
  S   S112      1.0  0.84353  0.58689  0.01188  1.0000
  S   S113      1.0  0.67963  0.96052  0.08205  1.0000
  H   H680      1.0  0.68226  0.65796  0.49344  1.0000
  H   H681      1.0  0.76390  0.85431  0.49918  1.0000
  C   C396      1.0  0.91718  0.50685  0.47362  1.0000
  C   C397      1.0  0.00164  0.54115  0.03929  1.0000
  H   H682      1.0  0.77833  0.70734  0.01065  1.0000
  C   C398      1.0  0.76780  0.73128  0.00728  1.0000
  Fe  Fe57      1.0  0.82859  0.68366  0.56514  1.0000
  S   S114      1.0  0.80542  0.65505  0.60683  1.0000
  S   S115      1.0  0.80743  0.72089  0.52751  1.0000
  Fe  Fe58      1.0  0.89033  0.64979  0.57988  1.0000
  S   S116      1.0  0.87063  0.61902  0.62187  1.0000
  S   S117      1.0  0.93824  0.63524  0.56515  1.0000
  Fe  Fe59      1.0  0.83178  0.61118  0.58653  1.0000
  S   S118      1.0  0.81336  0.55913  0.58073  1.0000
  Fe  Fe60      1.0  0.84681  0.66522  0.63854  1.0000
  S   S119      1.0  0.85125  0.68636  0.69240  1.0000
  S   S120      1.0  0.85269  0.63896  0.54346  1.0000
  S   S121      1.0  0.86857  0.69689  0.59796  1.0000
  Fe  Fe61      1.0  0.90014  0.66820  0.93804  1.0000
  S   S122      1.0  0.88688  0.61601  0.92530  1.0000
  S   S123      1.0  0.94758  0.68931  0.93983  1.0000
  Fe  Fe62      1.0  0.83407  0.69220  0.94569  1.0000
  S   S124      1.0  0.81638  0.64158  0.93315  1.0000
  C   C399      1.0  0.94129  0.51140  0.99039  1.0000
  Fe  Fe63      1.0  0.85280  0.62188  0.96747  1.0000
  S   S125      1.0  0.86844  0.67295  0.98258  1.0000
  Fe  Fe64      1.0  0.85176  0.63996  0.89169  1.0000
  S   S126      1.0  0.83983  0.61919  0.83921  1.0000
  H   H683      1.0  0.95943  0.57470  0.67931  1.0000
  S   S127      1.0  0.86718  0.69165  0.90191  1.0000
  H   H684      1.0  0.72093  0.86962  0.61035  1.0000
  H   H685      1.0  0.92447  0.58930  0.72259  1.0000
  H   H686      1.0  0.74713  0.71190  0.55775  1.0000
  H   H687      1.0  0.92129  0.58104  0.66429  1.0000
  C   C400      1.0  0.77655  0.75139  0.98009  1.0000
  C   C401      1.0  0.76625  0.63200  0.52166  1.0000
  H   H688      1.0  0.86135  0.53748  0.96095  1.0000
  H   H689      1.0  0.94197  0.72322  0.65520  1.0000
  H   H690      1.0  0.71383  0.66853  0.51916  1.0000
  C   C402      1.0  0.84893  0.66648  0.73269  1.0000
  C   C403      1.0  0.85895  0.68352  0.76174  1.0000
  C   C404      1.0  0.85706  0.66912  0.79437  1.0000
  C   C405      1.0  0.84454  0.63768  0.79844  1.0000
  C   C406      1.0  0.83474  0.62053  0.76936  1.0000
  C   C407      1.0  0.83707  0.63472  0.73664  1.0000
  H   H691      1.0  0.86822  0.70807  0.75900  1.0000
  H   H692      1.0  0.86508  0.68242  0.81638  1.0000
  H   H693      1.0  0.82509  0.59616  0.77217  1.0000
  H   H694      1.0  0.82924  0.62129  0.71458  1.0000
  C   C408      1.0  0.82114  0.53399  0.54480  1.0000
  H   H695      1.0  0.71255  0.68457  0.90231  1.0000
  C   C409      1.0  0.98149  0.63146  0.70841  1.0000
  H   H696      1.0  0.99849  0.61066  0.56510  1.0000
  H   H697      1.0  0.76891  0.79820  0.95524  1.0000
  H   H698      1.0  0.73253  0.59483  0.54122  1.0000
  H   H699      1.0  0.75972  0.89155  0.52440  1.0000
  H   H700      1.0  0.93894  0.61537  0.75627  1.0000
  C   C410      1.0  0.98184  0.63200  0.94438  1.0000
  C   C411      1.0  0.98139  0.66657  0.94463  1.0000
  C   C412      1.0  0.69546  0.99168  0.98450  1.0000
  H   H701      1.0  0.96121  0.61854  0.94037  1.0000
  S   S128      1.0  0.80530  0.73943  0.95071  1.0000
  H   H702      1.0  0.99788  0.61310  0.85568  1.0000
  C   C413      1.0  0.97268  0.65473  0.57563  1.0000
  C   C414      1.0  0.97418  0.68765  0.58648  1.0000
  H   H703      1.0  0.69698  0.73391  0.54101  1.0000
  H   H704      1.0  0.95390  0.70245  0.58761  1.0000
  N   N30       1.0  0.72264  0.84825  0.55975  1.0000
  H   H705      1.0  0.89993  0.61518  0.74661  1.0000
  H   H706      1.0  0.92486  0.68637  0.64016  1.0000
  H   H707      1.0  0.98433  0.64689  0.73168  1.0000
  C   C415      1.0  0.72792  0.87660  0.58409  1.0000
  H   H708      1.0  0.92494  0.66542  0.72624  1.0000
  H   H709      1.0  0.72214  0.92171  0.55280  1.0000
  H   H710      1.0  0.70134  0.87801  0.52033  1.0000
  C   C416      1.0  0.74926  0.82495  0.56131  1.0000
  H   H711      1.0  0.73221  0.70388  0.78217  1.0000
  C   C417      1.0  0.74683  0.61548  0.54964  1.0000
  H   H712      1.0  0.76193  0.60507  0.56942  1.0000
  H   H713      1.0  0.90337  0.55861  0.55953  1.0000
  H   H714      1.0  0.73752  0.78663  0.59886  1.0000
  H   H715      1.0  0.88157  0.50840  0.53092  1.0000
  H   H716      1.0  0.73290  0.63423  0.56311  1.0000
  H   H717      1.0  0.75234  0.88234  0.58606  1.0000
  H   H718      1.0  0.75352  0.82386  0.61742  1.0000
  H   H719      1.0  0.96659  0.51431  0.50752  1.0000
  C   C418      1.0  0.00216  0.70167  0.59520  1.0000
  H   H720      1.0  0.97928  0.68050  0.65952  1.0000
  C   C419      1.0  0.75414  0.80678  0.59536  1.0000
  H   H721      1.0  0.90301  0.56166  0.51452  1.0000
  H   H722      1.0  0.69306  0.80639  0.55341  1.0000
  C   C420      1.0  0.81730  0.49955  0.54712  1.0000
  H   H723      1.0  0.70825  0.72751  0.88953  1.0000
  C   C421      1.0  0.76238  0.78240  0.97618  1.0000
  C   C422      1.0  0.85828  0.52516  0.98513  1.0000
  N   N31       1.0  0.76070  0.69964  0.85433  1.0000
  C   C423      1.0  0.75544  0.71004  0.89073  1.0000
  C   C424      1.0  0.79419  0.69735  0.84852  1.0000
  C   C425      1.0  0.74685  0.66647  0.84695  1.0000
  C   C426      1.0  0.74642  0.72486  0.83123  1.0000
  C   C427      1.0  0.72257  0.70958  0.90338  1.0000
  C   C428      1.0  0.81096  0.73065  0.84658  1.0000
  C   C429      1.0  0.75673  0.63798  0.87047  1.0000
  C   C430      1.0  0.75081  0.71905  0.79262  1.0000
  H   H724      1.0  0.76881  0.69453  0.90858  1.0000
  H   H725      1.0  0.76355  0.73571  0.89489  1.0000
  H   H726      1.0  0.79964  0.68314  0.82508  1.0000
  H   H727      1.0  0.80511  0.68287  0.86915  1.0000
  H   H728      1.0  0.72186  0.66794  0.84769  1.0000
  H   H729      1.0  0.75244  0.65840  0.82056  1.0000
  H   H730      1.0  0.72167  0.72561  0.83528  1.0000
  H   H731      1.0  0.75358  0.75049  0.83766  1.0000
  H   H732      1.0  0.75128  0.74325  0.77925  1.0000
  H   H733      1.0  0.72225  0.71724  0.93057  1.0000
  H   H734      1.0  0.00317  0.72722  0.60324  1.0000
  H   H735      1.0  0.83544  0.72579  0.84410  1.0000
  H   H736      1.0  0.80439  0.74519  0.82388  1.0000
  H   H737      1.0  0.80778  0.74562  0.86996  1.0000
  H   H738      1.0  0.75092  0.64257  0.89750  1.0000
  H   H739      1.0  0.78112  0.63291  0.86809  1.0000
  H   H740      1.0  0.74500  0.61499  0.86272  1.0000
  H   H741      1.0  0.76490  0.56125  0.51317  1.0000
  H   H742      1.0  0.77233  0.70680  0.78601  1.0000
  C   C431      1.0  0.77095  0.73696  0.51771  1.0000
  N   N32       1.0  0.95472  0.64349  0.68838  1.0000
  C   C432      1.0  0.96078  0.67900  0.67856  1.0000
  H   H743      1.0  0.93790  0.55298  0.53681  1.0000
  C   C433      1.0  0.92649  0.64285  0.70997  1.0000
  C   C434      1.0  0.95056  0.62395  0.65611  1.0000
  C   C435      1.0  0.93407  0.69837  0.66316  1.0000
  C   C436      1.0  0.71949  0.85938  0.52332  1.0000
  H   H744      1.0  0.77662  0.79466  0.59494  1.0000
  C   C437      1.0  0.94541  0.58648  0.65958  1.0000
  H   H745      1.0  0.71618  0.92741  0.59722  1.0000
  C   C438      1.0  0.90627  0.51067  0.53435  1.0000
  C   C439      1.0  0.74519  0.72839  0.53621  1.0000
  C   C440      1.0  0.71248  0.90994  0.57584  1.0000
  H   H746      1.0  0.77062  0.83824  0.55592  1.0000
  H   H747      1.0  0.90609  0.64349  0.69357  1.0000
  H   H748      1.0  0.93093  0.63332  0.64175  1.0000
  H   H749      1.0  0.96942  0.62779  0.63802  1.0000
  H   H750      1.0  0.91571  0.70243  0.68187  1.0000
  H   H751      1.0  0.95230  0.57428  0.63541  1.0000
  H   H752      1.0  0.97827  0.60596  0.71800  1.0000
  H   H753      1.0  0.68795  0.90787  0.57246  1.0000
  H   H754      1.0  0.93523  0.57988  0.98025  1.0000
  H   H755      1.0  0.76723  0.65872  0.52847  1.0000
  C   C441      1.0  0.92269  0.61374  0.73497  1.0000
  C   C442      1.0  0.69506  0.82881  0.56970  1.0000
  C   C443      1.0  0.71673  0.74101  0.52667  1.0000
  H   H756      1.0  0.96848  0.69347  0.70102  1.0000
  H   H757      1.0  0.78964  0.62260  0.52471  1.0000
  H   H758      1.0  0.96544  0.50928  0.98374  1.0000
  C   C444      1.0  0.99935  0.63609  0.57359  1.0000
  C   C445      1.0  0.91342  0.54800  0.53597  1.0000
  H   H759      1.0  0.92916  0.52531  0.97033  1.0000
  H   H760      1.0  0.74755  0.80565  0.54128  1.0000
  H   H761      1.0  0.69678  0.81958  0.59625  1.0000
  H   H762      1.0  0.98305  0.56130  0.99314  1.0000
  H   H763      1.0  0.71252  0.83827  0.50694  1.0000
  H   H764      1.0  0.69797  0.98081  0.95949  1.0000
  C   C446      1.0  0.82978  0.54773  0.51364  1.0000
  H   H765      1.0  0.83291  0.57412  0.51152  1.0000
  H   H766      1.0  0.72990  0.81755  0.99633  1.0000
  C   C447      1.0  0.74017  0.79346  0.99944  1.0000
  H   H767      1.0  0.92924  0.63519  0.99002  1.0000
  H   H768      1.0  0.91084  0.50088  0.56028  1.0000
  C   C448      1.0  0.74807  0.87421  0.50710  1.0000
