data_image0
_chemical_formula_structural       FeS2FeS2FeSFeS3HSHSHFeSFeSCFeS2FeS2FeSFeS3HCFeNSH2SCHCH2CH2CH3C6H13C8H4C6H4CH2CHCFeH3CHCH2C2H3C2HC2HCNHCHCH3CH2CH3CHSCH3SNH2FeHC2H2CH3CH3NH3NC8H8CH5SH6CH3CHCH2C2HSH3CHFeCH3C4H2C2HC2H2CH2CH2CH7SC3H2NC2H2NC2H2C2H2CH3C2H2SCH5CHCHC2HCH14SC2H4CHCSHSFeSHSHSFeSFeSCFeSFeS2HS2CFeH3C6H2C6H4CFeH2C6H6CH3CH2NCHC3SCH4CH10CHNHCHFeCH2CSHCHCH2SH2CH2NC8H14CH2CH9NCHFeSHCH3C2HCH3C2H3CH3C2HCH3C2HCH2FeH2SCH8C2H2CH3C2H3CNHCHCH2CHSHFeSFeCH2CH3SFeS3FeSCHC2HC2H8CH9SC3HC2HC2H7CH2CH5SHC2NFeH2CSHC2H2CHCNH2C4H4CH6CSC2HCH2SNFeCHCH2CH5CH2FeHFeCSHSHFeSFeSHFeCSCHSCFeHSFeSFeHCSCS2H2CHCHCH2CHC4SH3C2H4SCH3CH2CFeC3H3NH7CH3C2H2C2H3C2H2C2H4CHC2H2CSCH3CH3CHNH2S2H2CH2SH2C7SH3NH2CHCSH2CH3CH2CHC3H6FeHCSNCFeSFeS2FeS2FeSFeS3HFeS2FeS2FeSFeS3H2C3H2C3H2CHCH2C6H4C2H3C6H5C6H4CH2CS2H4C2HCH2CHCH4CHCFeH6NSCH2C2HCHSH4C2NCH3CHCH2NC8H20NC8H14CH5NHCH6C2H2CHCHC2H4CH6CH2CSCH3C2H4C2H6CH2CH5C4HCH3FeS2FeS2FeSFeS3HCS2CSFeSHFeS2FeS2FeSFeS3FeSFeCSH2SH3C7H4C6H5C2H2C2H4C6H4C6H4C2H4C2H2SHSHC3HNC2H8NC2H3C2H5C2H3CHCH2NHC3HNC5H2C3H11SCHCH3NC8H23FeH2NHCHC2HCHCH9CHC2H3CHCNHCH3C2H3NH2CH3C2H3C2HC2H5CH3NHC3H7CH4FeHCHCH2CHCSHCHC2H2FeH2CH3C2HSFeS2FeS2FeSFeS3FeS2FeH2FeCS2FeS2FeS2FeSFeS4CSHCFe2SH2CH8CHCH2CHCH2C6H4CH3CH3C4HNH3CHCHC7H4C6H6CHCSH3C3HCN2C5SC2H11CHNH5NH5C2H5CH4CHCHCHCHC2HCH2C2HNC6H6C2H10C2H3C4HC2H3SNH13SH2CH4CHC2H6CH9C2H3CH3CH2CHC2H4CH3CH4C2H2C2NCHCSCSHFeSFeHSCS2FeS2FeHFeHS2C2H3C4H2CFeHC6H5C2HC6H7CH6CH3CH3CH7CHCH2NC3FeC3H14CH2C2SHNC8H6SHC3H4CSH2CH2SC2SH5CHCFeSC2H4FeH2CHFeH3CH2C2H3CNHC2SCH2SHFeCFeCNCSH4CH2SHFeHC3FeCHC3HCHCH5SC2HC3HCH2CHC3NHC2H2CH2CHCH3CNHCSH3CH3SHCHCH2FeH2CHSH2FeCSH6CH2CHSH2C2HCHCH3FeH2SH5C2HFeH4SHC2H4CH3SHCHS3H3FeS2HCHCFeHCSHCH2FeSH2C5HC4SH3CHNCH2C6H4C3H4CHC2H2SCH2FeC2HCHCH3CHCH2SHCSC2SH2CNH2C3HCHSHCH6CH3SHC2NH2C2HNCH2FeHSH7NHSH8CFeCHSH2FeCFeHC2SH3CHCHCSH4CHCH4CH6SCHSCHSFeS2FeS2FeSFeS3HFeS2FeS2FeSFeS3HC2FeH2C6H4CSHC2HCSH4C2H2C6H6C6H3CHCH2SH3C2H5C2H2CH6SH3CHNC6H18CHCHC2H2NC2HC6H4CHC2H7NH2CHFeHNHCHCH3NCH3CH2SC2HCH11C2HCHCH2CH2CHCHC3H8CH3CH5FeS2FeS2FeSFeS3FeHSFeSCH2SFeS2FeS2FeSFeS3FeCSFeH3S2H2C2H4C6H4C2H2C7H4C2HCHC6H4C3H2C6H4C6H3NC8H24NH2C2H4CH11SHFeH2CHCSHC2HC3SH5C2H4CH3C2HCHNC7H12CH7C5H2CHCH3C2H2C2NH4C2H4NHC3HCHCH6SH2CH7CH2FeNC2H2CNHCH2FeS2H11SC
_chemical_formula_sum              "Fe128 S256 H1536 C896 N64"
_cell_length_a       46.4691
_cell_length_b       58.1633
_cell_length_c       57.5223
_cell_angle_alpha    88.619
_cell_angle_beta     90.5587
_cell_angle_gamma    90.7676

_space_group_name_H-M_alt    "P 1"
_space_group_IT_number       1

loop_
  _space_group_symop_operation_xyz
  'x, y, z'

loop_
  _atom_site_type_symbol
  _atom_site_label
  _atom_site_symmetry_multiplicity
  _atom_site_fract_x
  _atom_site_fract_y
  _atom_site_fract_z
  _atom_site_occupancy
  Fe  Fe1       1.0  0.40565  0.25066  0.12355  1.0000
  S   S1        1.0  0.37966  0.27975  0.13689  1.0000
  S   S2        1.0  0.45296  0.26195  0.12258  1.0000
  Fe  Fe2       1.0  0.35012  0.22252  0.11292  1.0000
  S   S3        1.0  0.32149  0.24975  0.12662  1.0000
  S   S4        1.0  0.33228  0.19197  0.09238  1.0000
  Fe  Fe3       1.0  0.35014  0.27446  0.10662  1.0000
  S   S5        1.0  0.32930  0.30038  0.08190  1.0000
  Fe  Fe4       1.0  0.35390  0.25244  0.15606  1.0000
  S   S6        1.0  0.34360  0.26323  0.19307  1.0000
  S   S7        1.0  0.37752  0.24730  0.09169  1.0000
  S   S8        1.0  0.38113  0.22325  0.14398  1.0000
  H   H1        1.0  0.38610  0.29748  0.45452  1.0000
  S   S9        1.0  0.13597  0.16327  0.01854  1.0000
  H   H2        1.0  0.45602  0.26807  0.39115  1.0000
  S   S10       1.0  0.15762  0.11790  0.04758  1.0000
  H   H3        1.0  0.21973  0.28906  0.05799  1.0000
  Fe  Fe5       1.0  0.11788  0.12817  0.02748  1.0000
  S   S11       1.0  0.07426  0.11890  0.04313  1.0000
  Fe  Fe6       1.0  0.17750  0.15165  0.03580  1.0000
  S   S12       1.0  0.20085  0.17358  0.06299  1.0000
  C   C1        1.0  0.37525  0.33113  0.07943  1.0000
  Fe  Fe7       1.0  0.40855  0.22918  0.36737  1.0000
  S   S13       1.0  0.39753  0.25506  0.33917  1.0000
  S   S14       1.0  0.45274  0.21802  0.38025  1.0000
  Fe  Fe8       1.0  0.34419  0.21995  0.37990  1.0000
  S   S15       1.0  0.32875  0.24506  0.35234  1.0000
  S   S16       1.0  0.31901  0.19943  0.40765  1.0000
  Fe  Fe9       1.0  0.36232  0.23006  0.32904  1.0000
  S   S17       1.0  0.35538  0.21421  0.29333  1.0000
  Fe  Fe10      1.0  0.36525  0.26780  0.36490  1.0000
  S   S18       1.0  0.35858  0.30558  0.37215  1.0000
  S   S19       1.0  0.37539  0.20329  0.35609  1.0000
  S   S20       1.0  0.37869  0.24348  0.39355  1.0000
  H   H4        1.0  0.25140  0.24329  0.42664  1.0000
  C   C2        1.0  0.13290  0.00616  0.47511  1.0000
  Fe  Fe11      1.0  0.16397  0.15687  0.45603  1.0000
  N   N1        1.0  0.47976  0.29438  0.40977  1.0000
  S   S21       1.0  0.18636  0.17439  0.42474  1.0000
  H   H5        1.0  0.22568  0.24042  0.09831  1.0000
  H   H6        1.0  0.27001  0.26872  0.39987  1.0000
  S   S22       1.0  0.12151  0.13847  0.45028  1.0000
  C   C3        1.0  0.47793  0.31970  0.41441  1.0000
  H   H7        1.0  0.30669  0.27504  0.39207  1.0000
  C   C4        1.0  0.47242  0.26086  0.21143  1.0000
  H   H8        1.0  0.30125  0.23549  0.44258  1.0000
  H   H9        1.0  0.31741  0.24432  0.02397  1.0000
  C   C5        1.0  0.36325  0.31552  0.40080  1.0000
  H   H10       1.0  0.48260  0.27451  0.22218  1.0000
  H   H11       1.0  0.24799  0.28142  0.44923  1.0000
  C   C6        1.0  0.37536  0.30143  0.41817  1.0000
  H   H12       1.0  0.35185  0.17023  0.32134  1.0000
  H   H13       1.0  0.30384  0.14554  0.28691  1.0000
  H   H14       1.0  0.38309  0.28475  0.41401  1.0000
  C   C7        1.0  0.28177  0.19450  0.41308  1.0000
  C   C8        1.0  0.26020  0.20292  0.39817  1.0000
  C   C9        1.0  0.23111  0.19682  0.40216  1.0000
  C   C10       1.0  0.22316  0.18267  0.42134  1.0000
  C   C11       1.0  0.24469  0.17493  0.43666  1.0000
  C   C12       1.0  0.27380  0.18071  0.43245  1.0000
  H   H15       1.0  0.26593  0.21381  0.38340  1.0000
  H   H16       1.0  0.21461  0.20301  0.39027  1.0000
  H   H17       1.0  0.23897  0.16402  0.45146  1.0000
  H   H18       1.0  0.29029  0.17410  0.44412  1.0000
  H   H19       1.0  0.28552  0.13247  0.32109  1.0000
  H   H20       1.0  0.43105  0.31668  0.38522  1.0000
  H   H21       1.0  0.34706  0.25924  0.43392  1.0000
  H   H22       1.0  0.50111  0.30069  0.37682  1.0000
  H   H23       1.0  0.32329  0.27192  0.03748  1.0000
  H   H24       1.0  0.23168  0.29496  0.02841  1.0000
  H   H25       1.0  0.29917  0.24987  0.40832  1.0000
  H   H26       1.0  0.45541  0.30401  0.36471  1.0000
  H   H27       1.0  0.01136  0.08504  0.40567  1.0000
  C   C13       1.0  0.24313  0.25057  0.08966  1.0000
  C   C14       1.0  0.29719  0.28261  0.42791  1.0000
  C   C15       1.0  0.34759  0.24915  0.22067  1.0000
  C   C16       1.0  0.34531  0.26222  0.24084  1.0000
  C   C17       1.0  0.34828  0.25193  0.26318  1.0000
  C   C18       1.0  0.35302  0.22831  0.26562  1.0000
  C   C19       1.0  0.35524  0.21521  0.24544  1.0000
  C   C20       1.0  0.35281  0.22559  0.22308  1.0000
  H   H28       1.0  0.34113  0.28044  0.23918  1.0000
  H   H29       1.0  0.34633  0.26221  0.27850  1.0000
  H   H30       1.0  0.35876  0.19690  0.24713  1.0000
  H   H31       1.0  0.35432  0.21528  0.20775  1.0000
  C   C21       1.0  0.29565  0.18779  0.08391  1.0000
  C   C22       1.0  0.27298  0.19386  0.09825  1.0000
  C   C23       1.0  0.24425  0.18903  0.09166  1.0000
  C   C24       1.0  0.23765  0.17850  0.07047  1.0000
  C   C25       1.0  0.26026  0.17289  0.05582  1.0000
  C   C26       1.0  0.28909  0.17724  0.06267  1.0000
  H   H32       1.0  0.27762  0.20184  0.11470  1.0000
  H   H33       1.0  0.22696  0.19358  0.10309  1.0000
  H   H34       1.0  0.25552  0.16528  0.03924  1.0000
  H   H35       1.0  0.30645  0.17256  0.05139  1.0000
  C   C27       1.0  0.48667  0.24565  0.35134  1.0000
  H   H36       1.0  0.06944  0.22982  0.48988  1.0000
  H   H37       1.0  0.33989  0.24660  0.04903  1.0000
  C   C28       1.0  0.43041  0.22386  0.19582  1.0000
  H   H38       1.0  0.45658  0.30232  0.20263  1.0000
  C   C29       1.0  0.48574  0.22898  0.36926  1.0000
  Fe  Fe12      1.0  0.13566  0.11276  0.47810  1.0000
  H   H39       1.0  0.46688  0.25156  0.34332  1.0000
  H   H40       1.0  0.32263  0.13336  0.35265  1.0000
  H   H41       1.0  0.31697  0.19326  0.32809  1.0000
  C   C30       1.0  0.04156  0.13131  0.03335  1.0000
  H   H42       1.0  0.26367  0.24510  0.09789  1.0000
  C   C31       1.0  0.25972  0.22691  0.01735  1.0000
  H   H43       1.0  0.41479  0.23302  0.23844  1.0000
  H   H44       1.0  0.25517  0.22894  0.45470  1.0000
  C   C32       1.0  0.48520  0.24741  0.12979  1.0000
  C   C33       1.0  0.34895  0.32391  0.06987  1.0000
  H   H45       1.0  0.28253  0.29746  0.42551  1.0000
  H   H46       1.0  0.47154  0.24660  0.42224  1.0000
  H   H47       1.0  0.46553  0.28352  0.44408  1.0000
  C   C34       1.0  0.31990  0.25322  0.04070  1.0000
  C   C35       1.0  0.01553  0.10346  0.40959  1.0000
  H   H48       1.0  0.30550  0.24137  0.47220  1.0000
  C   C36       1.0  0.42498  0.26907  0.22814  1.0000
  C   C37       1.0  0.29443  0.24810  0.05712  1.0000
  H   H49       1.0  0.45044  0.29697  0.07909  1.0000
  C   C38       1.0  0.25982  0.25254  0.02395  1.0000
  N   N2        1.0  0.03572  0.10547  0.43010  1.0000
  H   H50       1.0  0.05177  0.99960  0.00868  1.0000
  C   C39       1.0  0.20261  0.02386  0.00938  1.0000
  H   H51       1.0  0.05186  0.16456  0.42443  1.0000
  C   C40       1.0  0.43971  0.30036  0.37873  1.0000
  H   H52       1.0  0.46617  0.21386  0.13572  1.0000
  H   H53       1.0  0.34244  0.14077  0.31454  1.0000
  H   H54       1.0  0.40186  0.27230  0.22427  1.0000
  C   C41       1.0  0.24750  0.24472  0.44544  1.0000
  H   H55       1.0  0.40912  0.21608  0.20020  1.0000
  H   H56       1.0  0.29347  0.22921  0.06030  1.0000
  C   C42       1.0  0.42703  0.24981  0.18995  1.0000
  H   H57       1.0  0.47436  0.24506  0.22234  1.0000
  H   H58       1.0  0.28281  0.29144  0.04129  1.0000
  H   H59       1.0  0.46026  0.31723  0.05683  1.0000
  C   C43       1.0  0.34779  0.15276  0.32867  1.0000
  H   H60       1.0  0.31088  0.17385  0.29693  1.0000
  S   S23       1.0  0.06228  0.17912  0.47702  1.0000
  C   C44       1.0  0.28790  0.31032  0.47146  1.0000
  H   H61       1.0  0.25256  0.13099  0.38185  1.0000
  H   H62       1.0  0.43303  0.28430  0.23780  1.0000
  H   H63       1.0  0.05687  0.10202  0.47614  1.0000
  S   S24       1.0  0.19872  0.07050  0.01606  1.0000
  N   N3        1.0  0.29269  0.27107  0.45141  1.0000
  H   H64       1.0  0.49167  0.24798  0.44873  1.0000
  H   H65       1.0  0.43448  0.25253  0.17171  1.0000
  Fe  Fe13      1.0  0.17366  0.10399  0.01414  1.0000
  H   H66       1.0  0.04256  0.26750  0.49023  1.0000
  C   C45       1.0  0.26790  0.13166  0.36712  1.0000
  C   C46       1.0  0.23772  0.29559  0.04708  1.0000
  H   H67       1.0  0.31035  0.09224  0.09931  1.0000
  H   H68       1.0  0.01972  0.13734  0.44349  1.0000
  C   C47       1.0  0.29913  0.18788  0.33964  1.0000
  H   H69       1.0  0.45061  0.28879  0.17559  1.0000
  H   H70       1.0  0.39571  0.29068  0.18394  1.0000
  H   H71       1.0  0.08512  0.06242  0.42321  1.0000
  C   C48       1.0  0.42522  0.24854  0.24560  1.0000
  H   H72       1.0  0.10806  0.03018  0.45417  1.0000
  H   H73       1.0  0.25553  0.16618  0.36004  1.0000
  H   H74       1.0  0.33412  0.16034  0.36339  1.0000
  N   N4        1.0  0.26566  0.25734  0.04919  1.0000
  H   H75       1.0  0.25909  0.15410  0.31990  1.0000
  H   H76       1.0  0.28646  0.12109  0.37278  1.0000
  H   H77       1.0  0.27812  0.21962  0.32893  1.0000
  N   N5        1.0  0.25595  0.09933  0.07576  1.0000
  C   C49       1.0  0.26666  0.09366  0.05192  1.0000
  C   C50       1.0  0.25419  0.07723  0.09004  1.0000
  C   C51       1.0  0.27596  0.11590  0.08782  1.0000
  C   C52       1.0  0.22695  0.11036  0.07320  1.0000
  C   C53       1.0  0.27261  0.11431  0.03523  1.0000
  C   C54       1.0  0.22918  0.06069  0.08376  1.0000
  C   C55       1.0  0.30774  0.10875  0.08952  1.0000
  C   C56       1.0  0.21233  0.11702  0.09608  1.0000
  H   H78       1.0  0.28666  0.08337  0.05311  1.0000
  H   H79       1.0  0.25083  0.08249  0.04276  1.0000
  H   H80       1.0  0.25273  0.08060  0.10895  1.0000
  H   H81       1.0  0.27435  0.06728  0.08845  1.0000
  H   H82       1.0  0.27522  0.13322  0.07936  1.0000
  H   H83       1.0  0.26877  0.11874  0.10594  1.0000
  H   H84       1.0  0.22858  0.12664  0.06276  1.0000
  H   H85       1.0  0.21183  0.09963  0.06280  1.0000
  C   C57       1.0  0.46819  0.30859  0.07301  1.0000
  H   H86       1.0  0.30558  0.19503  0.35675  1.0000
  H   H87       1.0  0.26442  0.19544  0.31388  1.0000
  H   H88       1.0  0.20798  0.06786  0.08826  1.0000
  H   H89       1.0  0.22907  0.05621  0.06513  1.0000
  H   H90       1.0  0.23149  0.04438  0.09401  1.0000
  S   S25       1.0  0.12197  0.07568  0.46934  1.0000
  H   H91       1.0  0.32001  0.12211  0.09913  1.0000
  H   H92       1.0  0.31779  0.10773  0.07219  1.0000
  H   H93       1.0  0.21793  0.13507  0.10046  1.0000
  H   H94       1.0  0.21799  0.10574  0.11111  1.0000
  H   H95       1.0  0.18860  0.11550  0.09405  1.0000
  H   H96       1.0  0.28626  0.16361  0.37843  1.0000
  C   C58       1.0  0.05039  0.14700  0.41722  1.0000
  H   H97       1.0  0.05950  0.14890  0.00342  1.0000
  H   H98       1.0  0.30076  0.25510  0.07430  1.0000
  H   H99       1.0  0.36856  0.14696  0.33638  1.0000
  C   C59       1.0  0.13528  0.04823  0.47842  1.0000
  H   H100      1.0  0.43826  0.21491  0.18028  1.0000
  C   C60       1.0  0.04015  0.14523  0.01323  1.0000
  H   H101      1.0  0.41213  0.25306  0.26087  1.0000
  H   H102      1.0  0.05590  0.13166  0.45110  1.0000
  C   C61       1.0  0.48450  0.28169  0.43260  1.0000
  C   C62       1.0  0.30382  0.28729  0.46970  1.0000
  H   H103      1.0  0.32676  0.29211  0.46663  1.0000
  S   S26       1.0  0.17952  0.12987  0.48181  1.0000
  H   H104      1.0  0.44695  0.24468  0.25258  1.0000
  H   H105      1.0  0.38430  0.32188  0.09425  1.0000
  H   H106      1.0  0.28963  0.32095  0.45525  1.0000
  C   C63       1.0  0.28282  0.15147  0.32029  1.0000
  H   H107      1.0  0.28853  0.12667  0.04237  1.0000
  Fe  Fe14      1.0  0.10390  0.15879  0.47946  1.0000
  C   C64       1.0  0.49175  0.25742  0.19021  1.0000
  H   H108      1.0  0.23820  0.25887  0.01864  1.0000
  H   H109      1.0  0.27515  0.21644  0.02764  1.0000
  H   H110      1.0  0.35274  0.26022  0.46513  1.0000
  C   C65       1.0  0.32474  0.15186  0.34778  1.0000
  C   C66       1.0  0.26612  0.28299  0.05241  1.0000
  C   C67       1.0  0.03997  0.13023  0.43665  1.0000
  C   C68       1.0  0.48592  0.22393  0.13565  1.0000
  H   H111      1.0  0.44531  0.21961  0.21025  1.0000
  H   H112      1.0  0.49743  0.28277  0.08454  1.0000
  C   C69       1.0  0.04373  0.08693  0.47096  1.0000
  C   C70       1.0  0.01364  0.15443  0.00576  1.0000
  H   H113      1.0  0.49391  0.27321  0.17916  1.0000
  C   C71       1.0  0.06443  0.09585  0.42368  1.0000
  C   C72       1.0  0.12392  0.02837  0.46795  1.0000
  H   H114      1.0  0.27640  0.16661  0.28527  1.0000
  H   H115      1.0  0.24082  0.31405  0.05113  1.0000
  C   C73       1.0  0.06444  0.07017  0.41736  1.0000
  H   H116      1.0  0.29829  0.32054  0.48540  1.0000
  H   H117      1.0  0.49794  0.32594  0.42309  1.0000
  C   C74       1.0  0.27227  0.20111  0.33107  1.0000
  H   H118      1.0  0.48372  0.24304  0.17958  1.0000
  H   H119      1.0  0.30330  0.27882  0.48730  1.0000
  C   C75       1.0  0.49513  0.29403  0.06875  1.0000
  H   H120      1.0  0.07340  0.10526  0.40828  1.0000
  H   H121      1.0  0.08095  0.09880  0.43747  1.0000
  H   H122      1.0  0.42122  0.29103  0.37083  1.0000
  H   H123      1.0  0.27253  0.28720  0.07051  1.0000
  H   H124      1.0  0.25687  0.26522  0.47484  1.0000
  H   H125      1.0  0.24325  0.22682  0.06176  1.0000
  H   H126      1.0  0.28173  0.10784  0.01889  1.0000
  S   S27       1.0  0.19586  0.13732  0.00318  1.0000
  C   C76       1.0  0.27629  0.15709  0.36214  1.0000
  C   C77       1.0  0.44197  0.29005  0.19352  1.0000
  C   C78       1.0  0.01624  0.12677  0.04595  1.0000
  H   H127      1.0  0.06209  0.06822  0.39826  1.0000
  H   H128      1.0  0.04733  0.05983  0.42600  1.0000
  N   N6        1.0  0.29585  0.16205  0.34170  1.0000
  C   C79       1.0  0.34184  0.25092  0.45086  1.0000
  C   C80       1.0  0.29266  0.26798  0.40613  1.0000
  H   H129      1.0  0.23932  0.26891  0.09327  1.0000
  H   H130      1.0  0.31884  0.29086  0.42670  1.0000
  N   N7        1.0  0.44155  0.26675  0.20588  1.0000
  C   C81       1.0  0.24230  0.24579  0.06340  1.0000
  C   C82       1.0  0.26104  0.26666  0.45579  1.0000
  H   H131      1.0  0.25254  0.12332  0.03022  1.0000
  H   H132      1.0  0.25662  0.12372  0.35220  1.0000
  C   C83       1.0  0.29438  0.16004  0.29633  1.0000
  C   C84       1.0  0.37721  0.30880  0.44116  1.0000
  H   H133      1.0  0.48969  0.28222  0.05431  1.0000
  H   H134      1.0  0.35098  0.23335  0.45079  1.0000
  C   C85       1.0  0.30909  0.24896  0.45446  1.0000
  H   H135      1.0  0.25444  0.20012  0.34369  1.0000
  H   H136      1.0  0.40355  0.25307  0.18882  1.0000
  H   H137      1.0  0.22055  0.25033  0.05660  1.0000
  C   C86       1.0  0.19411  0.00252  0.00012  1.0000
  C   C87       1.0  0.41271  0.30216  0.19084  1.0000
  H   H138      1.0  0.26500  0.30787  0.47631  1.0000
  H   H139      1.0  0.05830  0.07276  0.46656  1.0000
  S   S28       1.0  0.14502  0.17922  0.48303  1.0000
  C   C88       1.0  0.02281  0.09256  0.45067  1.0000
  H   H140      1.0  0.02545  0.11089  0.39351  1.0000
  H   H141      1.0  0.07227  0.14292  0.41120  1.0000
  H   H142      1.0  0.41490  0.31698  0.17840  1.0000
  H   H143      1.0  0.01724  0.11624  0.06170  1.0000
  H   H144      1.0  0.03518  0.14797  0.40230  1.0000
  C   C89       1.0  0.02794  0.16631  0.48146  1.0000
  H   H145      1.0  0.22379  0.24499  0.44775  1.0000
  C   C90       1.0  0.45303  0.32686  0.43025  1.0000
  H   H146      1.0  0.10690  0.00136  0.01227  1.0000
  C   C91       1.0  0.45248  0.28529  0.39858  1.0000
  C   C92       1.0  0.48972  0.25562  0.43091  1.0000
  H   H147      1.0  0.23791  0.21907  0.01950  1.0000
  C   C93       1.0  0.18640  0.04379  0.00497  1.0000
  H   H148      1.0  0.27470  0.26245  0.01227  1.0000
  H   H149      1.0  0.12043  0.23464  0.48938  1.0000
  H   H150      1.0  0.43524  0.28210  0.41157  1.0000
  H   H151      1.0  0.08745  0.01021  0.03707  1.0000
  H   H152      1.0  0.40551  0.30911  0.20759  1.0000
  H   H153      1.0  0.26639  0.22546  0.99895  1.0000
  H   H154      1.0  0.01243  0.07611  0.44544  1.0000
  H   H155      1.0  0.07984  0.27070  0.48383  1.0000
  H   H156      1.0  0.22194  0.02490  0.01995  1.0000
  H   H157      1.0  0.43493  0.31441  0.43071  1.0000
  H   H158      1.0  0.02413  0.04298  0.00411  1.0000
  H   H159      1.0  0.47178  0.32134  0.08678  1.0000
  H   H160      1.0  0.50477  0.27245  0.38810  1.0000
  H   H161      1.0  0.03120  0.08106  0.48640  1.0000
  S   S29       1.0  0.13269  0.11179  0.99484  1.0000
  C   C94       1.0  0.50424  0.29065  0.39333  1.0000
  C   C95       1.0  0.36781  0.33068  0.44701  1.0000
  H   H162      1.0  0.31701  0.33063  0.04321  1.0000
  H   H163      1.0  0.50281  0.28936  0.44248  1.0000
  H   H164      1.0  0.46078  0.32909  0.44841  1.0000
  H   H165      1.0  0.47701  0.33013  0.39792  1.0000
  C   C96       1.0  0.02488  0.14442  0.49176  1.0000
  H   H166      1.0  0.02663  0.07275  0.99486  1.0000
  C   C97       1.0  0.01212  0.05739  0.99572  1.0000
  S   S30       1.0  0.14218  0.16011  0.95045  1.0000
  H   H167      1.0  0.07041  0.20479  0.55687  1.0000
  S   S31       1.0  0.11537  0.13247  0.50708  1.0000
  Fe  Fe15      1.0  0.15788  0.15157  0.50864  1.0000
  S   S32       1.0  0.18131  0.16431  0.54075  1.0000
  H   H168      1.0  0.05444  0.23558  0.87051  1.0000
  S   S33       1.0  0.11464  0.28391  0.64818  1.0000
  H   H169      1.0  0.10245  0.03125  0.52195  1.0000
  S   S34       1.0  0.17853  0.27758  0.62572  1.0000
  Fe  Fe16      1.0  0.13340  0.26656  0.61722  1.0000
  S   S35       1.0  0.11763  0.23049  0.60934  1.0000
  Fe  Fe17      1.0  0.15938  0.29767  0.65468  1.0000
  S   S36       1.0  0.18548  0.29785  0.68870  1.0000
  C   C98       1.0  0.04787  0.24891  0.83523  1.0000
  Fe  Fe18      1.0  0.15340  0.29464  0.82954  1.0000
  S   S37       1.0  0.13658  0.28889  0.79231  1.0000
  Fe  Fe19      1.0  0.17598  0.27190  0.87512  1.0000
  S   S38       1.0  0.16417  0.30207  0.89641  1.0000
  S   S39       1.0  0.20043  0.24348  0.89423  1.0000
  H   H170      1.0  0.17710  0.18328  0.65374  1.0000
  S   S40       1.0  0.13334  0.27051  0.85648  1.0000
  S   S41       1.0  0.19736  0.29333  0.84668  1.0000
  C   C99       1.0  0.07885  0.03355  0.52359  1.0000
  Fe  Fe20      1.0  0.15306  0.14650  0.98675  1.0000
  H   H171      1.0  0.19077  0.22307  0.63454  1.0000
  H   H172      1.0  0.25301  0.31936  0.54448  1.0000
  H   H173      1.0  0.23886  0.29478  0.61494  1.0000
  C   C100      1.0  0.17129  0.29699  0.71740  1.0000
  C   C101      1.0  0.14196  0.29330  0.72158  1.0000
  C   C102      1.0  0.13185  0.29110  0.74459  1.0000
  C   C103      1.0  0.15075  0.29288  0.76378  1.0000
  C   C104      1.0  0.18003  0.29691  0.75962  1.0000
  C   C105      1.0  0.19022  0.29882  0.73656  1.0000
  H   H174      1.0  0.14995  0.06893  0.91473  1.0000
  H   H175      1.0  0.06839  0.29266  0.84053  1.0000
  C   C106      1.0  0.16334  0.18295  0.55939  1.0000
  C   C107      1.0  0.13658  0.17681  0.56875  1.0000
  C   C108      1.0  0.12309  0.19142  0.58432  1.0000
  C   C109      1.0  0.13599  0.21243  0.59038  1.0000
  C   C110      1.0  0.16280  0.21858  0.58112  1.0000
  C   C111      1.0  0.17660  0.20371  0.56592  1.0000
  H   H176      1.0  0.12643  0.16068  0.56415  1.0000
  H   H177      1.0  0.10244  0.18648  0.59154  1.0000
  H   H178      1.0  0.17296  0.23472  0.58569  1.0000
  H   H179      1.0  0.19748  0.20840  0.55896  1.0000
  C   C112      1.0  0.06587  0.28684  0.82238  1.0000
  Fe  Fe21      1.0  0.10977  0.31416  0.62351  1.0000
  H   H180      1.0  0.11618  0.19785  0.68304  1.0000
  H   H181      1.0  0.02139  0.24762  0.79508  1.0000
  C   C113      1.0  0.15748  0.18509  0.93713  1.0000
  C   C114      1.0  0.18534  0.19271  0.94266  1.0000
  C   C115      1.0  0.19810  0.21090  0.92962  1.0000
  C   C116      1.0  0.18282  0.22207  0.91149  1.0000
  C   C117      1.0  0.15463  0.21493  0.90651  1.0000
  C   C118      1.0  0.14222  0.19628  0.91904  1.0000
  H   H182      1.0  0.19739  0.18410  0.95640  1.0000
  H   H183      1.0  0.21996  0.21628  0.93347  1.0000
  H   H184      1.0  0.14277  0.22326  0.89248  1.0000
  H   H185      1.0  0.12075  0.19037  0.91456  1.0000
  H   H186      1.0  0.05242  0.00020  0.55598  1.0000
  H   H187      1.0  0.04839  0.28831  0.62589  1.0000
  C   C119      1.0  0.03000  0.29946  0.62413  1.0000
  H   H188      1.0  0.22512  0.23416  0.64245  1.0000
  H   H189      1.0  0.04861  0.23476  0.51441  1.0000
  H   H190      1.0  0.21621  0.20555  0.65142  1.0000
  C   C120      1.0  0.04656  0.31305  0.88367  1.0000
  H   H191      1.0  0.15296  0.24491  0.53547  1.0000
  H   H192      1.0  0.18892  0.16423  0.67628  1.0000
  N   N8        1.0  0.19410  0.10105  0.93297  1.0000
  C   C121      1.0  0.20502  0.12568  0.93281  1.0000
  H   H193      1.0  0.19067  0.09917  0.97045  1.0000
  C   C122      1.0  0.16175  0.10177  0.93068  1.0000
  C   C123      1.0  0.20722  0.08882  0.91285  1.0000
  C   C124      1.0  0.19823  0.14037  0.91073  1.0000
  S   S42       1.0  0.20488  0.31566  0.57519  1.0000
  C   C125      1.0  0.14557  0.07852  0.93071  1.0000
  H   H194      1.0  0.07043  0.24921  0.57494  1.0000
  H   H195      1.0  0.19650  0.13497  0.94797  1.0000
  H   H196      1.0  0.22885  0.12640  0.93471  1.0000
  H   H197      1.0  0.11661  0.20675  0.53655  1.0000
  C   C126      1.0  0.02104  0.30448  0.89383  1.0000
  H   H198      1.0  0.15259  0.11198  0.94491  1.0000
  H   H199      1.0  0.15507  0.11064  0.91422  1.0000
  H   H200      1.0  0.19534  0.09306  0.89641  1.0000
  H   H201      1.0  0.22972  0.09515  0.91014  1.0000
  H   H202      1.0  0.17509  0.14466  0.90931  1.0000
  H   H203      1.0  0.20992  0.15711  0.91186  1.0000
  H   H204      1.0  0.24131  0.10790  0.96870  1.0000
  H   H205      1.0  0.25549  0.00329  0.53453  1.0000
  H   H206      1.0  0.07844  0.27058  0.77951  1.0000
  H   H207      1.0  0.16771  0.24646  0.50694  1.0000
  C   C127      1.0  0.16956  0.00099  0.98594  1.0000
  H   H208      1.0  0.18084  0.02162  0.51701  1.0000
  N   N9        1.0  0.09501  0.23594  0.52083  1.0000
  H   H209      1.0  0.10004  0.20114  0.50942  1.0000
  C   C128      1.0  0.01431  0.28150  0.82858  1.0000
  H   H210      1.0  0.07575  0.24186  0.79207  1.0000
  Fe  Fe22      1.0  0.12276  0.30245  0.87568  1.0000
  C   C129      1.0  0.28308  0.31743  0.66062  1.0000
  H   H211      1.0  0.10048  0.21222  0.65819  1.0000
  H   H212      1.0  0.02230  0.29247  0.90846  1.0000
  C   C130      1.0  0.27658  0.31822  0.61853  1.0000
  S   S43       1.0  0.12577  0.29595  0.59214  1.0000
  H   H213      1.0  0.10916  0.28807  0.74752  1.0000
  C   C131      1.0  0.26267  0.29420  0.61539  1.0000
  H   H214      1.0  0.05753  0.24905  0.76541  1.0000
  C   C132      1.0  0.03648  0.26263  0.79572  1.0000
  H   H215      1.0  0.23104  0.05710  0.92105  1.0000
  H   H216      1.0  0.24806  0.08585  0.94777  1.0000
  S   S44       1.0  0.15362  0.32951  0.63200  1.0000
  H   H217      1.0  0.06907  0.24183  0.83038  1.0000
  H   H218      1.0  0.30021  0.31574  0.61718  1.0000
  C   C133      1.0  0.20922  0.06227  0.91504  1.0000
  H   H219      1.0  0.20660  0.05494  0.89747  1.0000
  H   H220      1.0  0.15161  0.16902  0.67296  1.0000
  N   N10       1.0  0.16939  0.22118  0.68184  1.0000
  C   C134      1.0  0.16072  0.23512  0.70242  1.0000
  C   C135      1.0  0.14506  0.22244  0.66434  1.0000
  C   C136      1.0  0.19593  0.23254  0.67161  1.0000
  C   C137      1.0  0.17548  0.19688  0.69017  1.0000
  C   C138      1.0  0.18388  0.23839  0.72154  1.0000
  C   C139      1.0  0.11528  0.21449  0.67329  1.0000
  C   C140      1.0  0.20712  0.22294  0.64871  1.0000
  C   C141      1.0  0.17298  0.17777  0.67192  1.0000
  H   H221      1.0  0.15370  0.25259  0.69653  1.0000
  H   H222      1.0  0.14183  0.22717  0.71141  1.0000
  H   H223      1.0  0.14928  0.21230  0.64875  1.0000
  H   H224      1.0  0.14280  0.24038  0.65747  1.0000
  H   H225      1.0  0.19218  0.25125  0.66849  1.0000
  H   H226      1.0  0.21440  0.23150  0.68402  1.0000
  H   H227      1.0  0.19735  0.19588  0.69820  1.0000
  H   H228      1.0  0.16016  0.19170  0.70420  1.0000
  H   H229      1.0  0.17381  0.24632  0.73681  1.0000
  H   H230      1.0  0.19328  0.22189  0.72765  1.0000
  H   H231      1.0  0.20116  0.25050  0.71570  1.0000
  H   H232      1.0  0.10560  0.22774  0.68425  1.0000
  H   H233      1.0  0.12105  0.26192  0.50280  1.0000
  H   H234      1.0  0.05135  0.20008  0.52933  1.0000
  C   C142      1.0  0.09724  0.21048  0.52586  1.0000
  H   H235      1.0  0.01125  0.20038  0.94792  1.0000
  H   H236      1.0  0.05065  0.32221  0.81594  1.0000
  C   C143      1.0  0.06453  0.26563  0.49779  1.0000
  H   H237      1.0  0.16488  0.06063  0.50435  1.0000
  H   H238      1.0  0.12708  0.29192  0.70708  1.0000
  H   H239      1.0  0.08686  0.27863  0.81908  1.0000
  H   H240      1.0  0.00915  0.29675  0.81728  1.0000
  H   H241      1.0  0.11112  0.24172  0.55570  1.0000
  H   H242      1.0  0.19487  0.29824  0.77415  1.0000
  H   H243      1.0  0.04362  0.13562  0.49857  1.0000
  H   H244      1.0  0.01772  0.28853  0.84612  1.0000
  H   H245      1.0  0.33068  0.30603  0.88658  1.0000
  N   N11       1.0  0.04111  0.26999  0.82046  1.0000
  C   C144      1.0  0.23444  0.09073  0.96249  1.0000
  H   H246      1.0  0.21296  0.30161  0.73359  1.0000
  Fe  Fe23      1.0  0.18334  0.32357  0.86742  1.0000
  S   S45       1.0  0.08028  0.30410  0.89519  1.0000
  H   H247      1.0  0.10342  0.26720  0.53959  1.0000
  C   C145      1.0  0.12099  0.24308  0.50662  1.0000
  H   H248      1.0  0.05447  0.30626  0.78977  1.0000
  H   H249      1.0  0.20536  0.13220  0.89460  1.0000
  H   H250      1.0  0.26991  0.28158  0.62885  1.0000
  C   C146      1.0  0.34932  0.31720  0.89134  1.0000
  C   C147      1.0  0.03423  0.32326  0.62208  1.0000
  H   H251      1.0  0.08559  0.31626  0.80418  1.0000
  C   C148      1.0  0.06363  0.30910  0.80727  1.0000
  H   H252      1.0  0.30629  0.31427  0.65750  1.0000
  H   H253      1.0  0.05822  0.26941  0.55372  1.0000
  H   H254      1.0  0.23856  0.07825  0.97703  1.0000
  C   C149      1.0  0.20203  0.09038  0.95630  1.0000
  C   C150      1.0  0.06651  0.25165  0.55594  1.0000
  H   H255      1.0  0.27060  0.32888  0.60299  1.0000
  H   H256      1.0  0.15005  0.06780  0.94644  1.0000
  H   H257      1.0  0.36751  0.31315  0.87989  1.0000
  C   C151      1.0  0.16490  0.02338  0.50327  1.0000
  H   H258      1.0  0.19464  0.07228  0.95814  1.0000
  H   H259      1.0  0.01876  0.02862  0.53709  1.0000
  H   H260      1.0  0.07659  0.17995  0.54039  1.0000
  C   C152      1.0  0.15593  0.04558  0.49611  1.0000
  C   C153      1.0  0.15072  0.23802  0.51774  1.0000
  H   H261      1.0  0.12207  0.08183  0.93066  1.0000
  C   C154      1.0  0.04941  0.25230  0.86175  1.0000
  H   H262      1.0  0.04941  0.23923  0.55124  1.0000
  H   H263      1.0  0.19286  0.05366  0.92612  1.0000
  H   H264      1.0  0.06692  0.26437  0.86667  1.0000
  C   C155      1.0  0.06380  0.25566  0.78271  1.0000
  C   C156      1.0  0.07210  0.19865  0.53886  1.0000
  H   H265      1.0  0.26921  0.28763  0.59827  1.0000
  C   C157      1.0  0.09541  0.24930  0.54306  1.0000
  H   H266      1.0  0.23666  0.32431  0.90898  1.0000
  H   H267      1.0  0.15548  0.21936  0.51808  1.0000
  Fe  Fe24      1.0  0.17015  0.30862  0.60261  1.0000
  H   H268      1.0  0.00775  0.30957  0.67958  1.0000
  H   H269      1.0  0.22893  0.31360  0.65051  1.0000
  S   S46       1.0  0.14056  0.32663  0.84824  1.0000
  C   C158      1.0  0.06877  0.24039  0.50582  1.0000
  H   H270      1.0  0.04210  0.02456  0.50153  1.0000
  H   H271      1.0  0.27367  0.29979  0.66218  1.0000
  H   H272      1.0  0.07345  0.05140  0.51796  1.0000
  H   H273      1.0  0.03198  0.23482  0.83206  1.0000
  H   H274      1.0  0.02876  0.25804  0.86899  1.0000
  H   H275      1.0  0.02566  0.27627  0.78506  1.0000
  H   H276      1.0  0.35518  0.31260  0.90963  1.0000
  H   H277      1.0  0.06662  0.27774  0.51230  1.0000
  C   C159      1.0  0.23681  0.33034  0.64297  1.0000
  C   C160      1.0  0.01245  0.01027  0.53952  1.0000
  H   H278      1.0  0.13436  0.02000  0.97059  1.0000
  H   H279      1.0  0.01280  0.16512  0.99013  1.0000
  C   C161      1.0  0.15334  0.02094  0.98157  1.0000
  H   H280      1.0  0.14980  0.32991  0.94339  1.0000
  H   H281      1.0  0.07321  0.03213  0.54220  1.0000
  H   H282      1.0  0.00714  0.05161  0.97797  1.0000
  C   C162      1.0  0.06210  0.01635  0.50831  1.0000
  C   C163      1.0  0.04467  0.32886  0.86504  1.0000
  H   H283      1.0  0.25925  0.32211  0.69296  1.0000
  H   H284      1.0  0.29787  0.32095  0.69634  1.0000
  H   H285      1.0  0.14861  0.05725  0.98797  1.0000
  C   C164      1.0  0.28010  0.32745  0.68502  1.0000
  N   N12       1.0  0.26922  0.33042  0.64057  1.0000
  H   H286      1.0  0.27620  0.32980  0.93780  1.0000
  C   C165      1.0  0.16146  0.04214  0.99127  1.0000
  H   H287      1.0  0.07534  0.01482  0.49249  1.0000
  C   C166      1.0  0.15343  0.00352  0.49291  1.0000
  H   H288      1.0  0.31259  0.44091  0.09851  1.0000
  H   H289      1.0  0.31719  0.58550  0.41959  1.0000
  C   C167      1.0  0.34239  0.42938  0.05617  1.0000
  H   H290      1.0  0.47051  0.63109  0.49194  1.0000
  S   S47       1.0  0.36757  0.61074  0.45610  1.0000
  H   H291      1.0  0.32393  0.56608  0.45764  1.0000
  Fe  Fe25      1.0  0.40761  0.63132  0.46600  1.0000
  S   S48       1.0  0.44828  0.63436  0.44418  1.0000
  Fe  Fe26      1.0  0.34266  0.64087  0.46950  1.0000
  C   C168      1.0  0.23812  0.55348  0.44286  1.0000
  H   H292      1.0  0.26892  0.51887  0.45952  1.0000
  H   H293      1.0  0.29948  0.55140  0.43968  1.0000
  C   C169      1.0  0.31207  0.46099  0.04008  1.0000
  H   H294      1.0  0.50284  0.64589  0.42351  1.0000
  H   H295      1.0  0.27943  0.58852  0.42371  1.0000
  H   H296      1.0  0.42321  0.44389  0.46215  1.0000
  S   S49       1.0  0.29776  0.65490  0.45992  1.0000
  Fe  Fe27      1.0  0.38221  0.61237  0.00705  1.0000
  S   S50       1.0  0.39323  0.57477  0.01598  1.0000
  S   S51       1.0  0.40254  0.63982  0.02950  1.0000
  S   S52       1.0  0.38258  0.66252  0.47611  1.0000
  Fe  Fe28      1.0  0.38222  0.40201  0.00484  1.0000
  S   S53       1.0  0.39536  0.38820  0.04046  1.0000
  C   C170      1.0  0.36423  0.46521  0.04119  1.0000
  H   H297      1.0  0.41473  0.52869  0.01734  1.0000
  C   C171      1.0  0.27745  0.66439  0.43506  1.0000
  C   C172      1.0  0.30042  0.58760  0.43298  1.0000
  H   H298      1.0  0.33950  0.48482  0.07625  1.0000
  C   C173      1.0  0.36681  0.50630  0.46607  1.0000
  C   C174      1.0  0.35938  0.48762  0.48097  1.0000
  H   H299      1.0  0.50067  0.33543  0.04625  1.0000
  H   H300      1.0  0.46324  0.54705  0.01342  1.0000
  H   H301      1.0  0.50536  0.58787  0.45261  1.0000
  H   H302      1.0  0.22241  0.56246  0.43126  1.0000
  H   H303      1.0  0.36370  0.48432  0.04056  1.0000
  H   H304      1.0  0.39819  0.46635  0.06844  1.0000
  H   H305      1.0  0.39627  0.49169  0.00195  1.0000
  H   H306      1.0  0.48018  0.61028  0.02669  1.0000
  C   C175      1.0  0.48311  0.63822  0.45660  1.0000
  H   H307      1.0  0.50606  0.57310  0.42593  1.0000
  H   H308      1.0  0.29221  0.66104  0.99521  1.0000
  H   H309      1.0  0.25470  0.54712  0.43109  1.0000
  H   H310      1.0  0.45766  0.45756  0.46100  1.0000
  H   H311      1.0  0.50456  0.55693  0.03396  1.0000
  H   H312      1.0  0.31418  0.46918  0.10960  1.0000
  H   H313      1.0  0.42494  0.47441  0.46108  1.0000
  H   H314      1.0  0.37333  0.54321  0.46253  1.0000
  H   H315      1.0  0.37210  0.50312  0.44816  1.0000
  S   S54       1.0  0.33975  0.63068  0.00428  1.0000
  C   C176      1.0  0.31495  0.41409  0.05692  1.0000
  C   C177      1.0  0.28609  0.52245  0.47234  1.0000
  C   C178      1.0  0.33733  0.33611  0.05069  1.0000
  H   H316      1.0  0.22697  0.53861  0.45146  1.0000
  C   C179      1.0  0.35654  0.34526  0.42959  1.0000
  C   C180      1.0  0.38427  0.50729  0.99896  1.0000
  H   H317      1.0  0.34911  0.36216  0.43395  1.0000
  C   C181      1.0  0.37777  0.36301  0.05103  1.0000
  C   C182      1.0  0.38945  0.35079  0.07018  1.0000
  H   H318      1.0  0.40948  0.35659  0.07793  1.0000
  H   H319      1.0  0.28545  0.48857  0.02614  1.0000
  H   H320      1.0  0.35594  0.42456  0.07158  1.0000
  H   H321      1.0  0.41091  0.46646  0.03933  1.0000
  H   H322      1.0  0.32244  0.49621  0.02669  1.0000
  H   H323      1.0  0.47652  0.65515  0.03134  1.0000
  H   H324      1.0  0.24648  0.58826  0.45400  1.0000
  C   C183      1.0  0.46850  0.59411  0.02260  1.0000
  H   H325      1.0  0.31351  0.45358  0.02242  1.0000
  H   H326      1.0  0.29929  0.41918  0.07009  1.0000
  C   C184      1.0  0.48802  0.63602  0.48058  1.0000
  H   H327      1.0  0.30512  0.60422  0.44133  1.0000
  H   H328      1.0  0.44670  0.56667  0.04345  1.0000
  H   H329      1.0  0.44445  0.59483  0.05472  1.0000
  H   H330      1.0  0.35780  0.46068  0.08815  1.0000
  H   H331      1.0  0.13650  0.65229  0.22070  1.0000
  S   S55       1.0  0.36921  0.33799  0.47656  1.0000
  H   H332      1.0  0.48153  0.48704  0.47877  1.0000
  C   C185      1.0  0.30162  0.56694  0.45034  1.0000
  C   C186      1.0  0.31251  0.45936  0.09330  1.0000
  N   N13       1.0  0.28005  0.56710  0.46978  1.0000
  Fe  Fe29      1.0  0.36083  0.65941  0.02408  1.0000
  H   H333      1.0  0.36363  0.45976  0.02275  1.0000
  H   H334      1.0  0.39788  0.44015  0.05194  1.0000
  C   C187      1.0  0.36755  0.52905  0.47417  1.0000
  S   S56       1.0  0.35901  0.45929  0.47007  1.0000
  H   H335      1.0  0.34269  0.36470  0.02635  1.0000
  C   C188      1.0  0.33840  0.46571  0.07787  1.0000
  C   C189      1.0  0.43581  0.45894  0.46833  1.0000
  H   H336      1.0  0.44857  0.59988  0.01338  1.0000
  H   H337      1.0  0.29242  0.45316  0.04787  1.0000
  C   C190      1.0  0.45903  0.58288  0.04590  1.0000
  H   H338      1.0  0.30183  0.49536  0.05334  1.0000
  C   C191      1.0  0.24966  0.57044  0.46106  1.0000
  N   N14       1.0  0.33870  0.45520  0.05418  1.0000
  H   H339      1.0  0.47754  0.57977  0.05781  1.0000
  H   H340      1.0  0.13003  0.66373  0.18089  1.0000
  C   C192      1.0  0.35183  0.35544  0.04112  1.0000
  C   C193      1.0  0.39425  0.45897  0.05110  1.0000
  C   C194      1.0  0.49775  0.46688  0.99261  1.0000
  C   C195      1.0  0.30553  0.48682  0.03664  1.0000
  H   H341      1.0  0.23429  0.56915  0.47574  1.0000
  H   H342      1.0  0.32121  0.39607  0.06114  1.0000
  H   H343      1.0  0.35434  0.42311  0.04099  1.0000
  H   H344      1.0  0.34491  0.34874  0.39317  1.0000
  C   C196      1.0  0.28791  0.58727  0.48477  1.0000
  H   H345      1.0  0.30413  0.41389  0.03963  1.0000
  H   H346      1.0  0.29170  0.46393  0.08497  1.0000
  H   H347      1.0  0.50546  0.47308  0.00961  1.0000
  H   H348      1.0  0.28266  0.66189  0.03856  1.0000
  H   H349      1.0  0.43824  0.50546  0.48172  1.0000
  H   H350      1.0  0.28441  0.60394  0.47532  1.0000
  C   C197      1.0  0.37957  0.54893  0.00373  1.0000
  S   S57       1.0  0.33821  0.41362  0.99360  1.0000
  C   C198      1.0  0.28236  0.54544  0.48476  1.0000
  C   C199      1.0  0.49577  0.65475  0.02091  1.0000
  H   H351      1.0  0.31122  0.58697  0.48934  1.0000
  C   C200      1.0  0.28768  0.66307  0.41233  1.0000
  H   H352      1.0  0.28551  0.50818  0.48555  1.0000
  H   H353      1.0  0.44387  0.34339  0.42374  1.0000
  S   S58       1.0  0.39833  0.40279  0.48623  1.0000
  N   N15       1.0  0.48610  0.57931  0.00715  1.0000
  Fe  Fe30      1.0  0.41762  0.65636  0.99591  1.0000
  C   C201      1.0  0.39480  0.52836  0.00753  1.0000
  H   H354      1.0  0.08309  0.65093  0.19540  1.0000
  C   C202      1.0  0.49440  0.66108  0.99735  1.0000
  H   H355      1.0  0.30742  0.52152  0.46398  1.0000
  H   H356      1.0  0.30864  0.65587  0.40936  1.0000
  C   C203      1.0  0.35417  0.33762  0.40652  1.0000
  H   H357      1.0  0.48206  0.45276  0.99665  1.0000
  H   H358      1.0  0.13457  0.65792  0.26330  1.0000
  H   H359      1.0  0.10239  0.66088  0.23038  1.0000
  H   H360      1.0  0.07976  0.66310  0.16671  1.0000
  H   H361      1.0  0.44563  0.56559  0.99358  1.0000
  C   C204      1.0  0.46740  0.55964  0.99894  1.0000
  H   H362      1.0  0.49214  0.44503  0.49149  1.0000
  H   H363      1.0  0.25665  0.64797  0.99270  1.0000
  Fe  Fe31      1.0  0.36678  0.37358  0.49190  1.0000
  H   H364      1.0  0.26321  0.54329  0.49613  1.0000
  Fe  Fe32      1.0  0.36091  0.42621  0.49249  1.0000
  C   C205      1.0  0.38278  0.35833  0.86659  1.0000
  S   S59       1.0  0.37482  0.37140  0.53062  1.0000
  H   H365      1.0  0.11044  0.34832  0.92950  1.0000
  S   S60       1.0  0.36774  0.42685  0.53104  1.0000
  H   H366      1.0  0.08986  0.37092  0.88388  1.0000
  Fe  Fe33      1.0  0.40384  0.40225  0.52490  1.0000
  S   S61       1.0  0.44781  0.40902  0.54177  1.0000
  Fe  Fe34      1.0  0.33786  0.39575  0.53284  1.0000
  S   S62       1.0  0.30281  0.39309  0.56075  1.0000
  H   H367      1.0  0.11866  0.38269  0.94778  1.0000
  Fe  Fe35      1.0  0.38342  0.64608  0.51175  1.0000
  C   C206      1.0  0.38393  0.35544  0.90934  1.0000
  S   S63       1.0  0.41059  0.61618  0.50203  1.0000
  C   C207      1.0  0.43494  0.50017  0.50024  1.0000
  H   H368      1.0  0.15362  0.35523  0.96094  1.0000
  S   S64       1.0  0.21160  0.35566  0.87368  1.0000
  C   C208      1.0  0.35299  0.38384  0.89052  1.0000
  Fe  Fe36      1.0  0.34644  0.39515  0.96040  1.0000
  H   H369      1.0  0.12297  0.34331  0.90105  1.0000
  S   S65       1.0  0.31437  0.36742  0.94793  1.0000
  Fe  Fe37      1.0  0.40902  0.41439  0.95837  1.0000
  S   S66       1.0  0.45050  0.41675  0.93763  1.0000
  Fe  Fe38      1.0  0.36141  0.44414  0.97703  1.0000
  H   H370      1.0  0.32625  0.34875  0.64703  1.0000
  C   C209      1.0  0.48156  0.48159  0.49745  1.0000
  S   S67       1.0  0.36672  0.42640  0.94282  1.0000
  C   C210      1.0  0.48381  0.40781  0.94986  1.0000
  S   S68       1.0  0.39651  0.66432  0.54470  1.0000
  S   S69       1.0  0.06924  0.33578  0.62264  1.0000
  H   H371      1.0  0.31266  0.37991  0.86976  1.0000
  H   H372      1.0  0.27630  0.57426  0.52001  1.0000
  C   C211      1.0  0.23014  0.35885  0.58245  1.0000
  H   H373      1.0  0.41853  0.45382  0.54979  1.0000
  C   C212      1.0  0.23042  0.33834  0.57020  1.0000
  H   H374      1.0  0.25174  0.39135  0.58854  1.0000
  C   C213      1.0  0.13225  0.39133  0.93421  1.0000
  H   H375      1.0  0.36024  0.33284  0.84481  1.0000
  H   H376      1.0  0.37049  0.39706  0.89010  1.0000
  C   C214      1.0  0.23940  0.35891  0.89504  1.0000
  H   H377      1.0  0.46423  0.53131  0.97511  1.0000
  C   C215      1.0  0.26988  0.34406  0.92654  1.0000
  C   C216      1.0  0.28449  0.36534  0.92827  1.0000
  C   C217      1.0  0.27614  0.38353  0.91342  1.0000
  C   C218      1.0  0.25381  0.38028  0.89688  1.0000
  S   S70       1.0  0.32843  0.39674  0.49432  1.0000
  H   H378      1.0  0.12806  0.39478  0.88640  1.0000
  H   H379      1.0  0.28711  0.39999  0.91446  1.0000
  H   H380      1.0  0.24781  0.39439  0.88532  1.0000
  C   C219      1.0  0.40926  0.37250  0.91274  1.0000
  C   C220      1.0  0.48077  0.40382  0.52758  1.0000
  H   H381      1.0  0.34669  0.47781  0.51572  1.0000
  H   H382      1.0  0.32214  0.52645  0.97425  1.0000
  H   H383      1.0  0.45466  0.59312  0.96812  1.0000
  H   H384      1.0  0.21309  0.36181  0.59464  1.0000
  S   S71       1.0  0.35946  0.56158  0.50838  1.0000
  C   C221      1.0  0.36694  0.35121  0.84408  1.0000
  H   H385      1.0  0.39390  0.33819  0.90864  1.0000
  H   H386      1.0  0.34743  0.51779  0.52995  1.0000
  H   H387      1.0  0.32598  0.34428  0.87380  1.0000
  C   C222      1.0  0.31303  0.35759  0.63350  1.0000
  H   H388      1.0  0.39401  0.37502  0.86272  1.0000
  H   H389      1.0  0.46223  0.65757  0.53761  1.0000
  C   C223      1.0  0.36046  0.53335  0.49724  1.0000
  Fe  Fe39      1.0  0.35901  0.64895  0.97292  1.0000
  C   C224      1.0  0.27447  0.35185  0.55058  1.0000
  C   C225      1.0  0.27454  0.37216  0.56314  1.0000
  C   C226      1.0  0.25208  0.37560  0.57892  1.0000
  H   H390      1.0  0.37099  0.35523  0.92560  1.0000
  H   H391      1.0  0.42364  0.36585  0.92685  1.0000
  H   H392      1.0  0.19245  0.39707  0.89922  1.0000
  N   N16       1.0  0.45126  0.47853  0.50630  1.0000
  H   H393      1.0  0.31083  0.65857  0.89438  1.0000
  H   H394      1.0  0.50058  0.53833  0.98289  1.0000
  H   H395      1.0  0.30116  0.54670  0.49685  1.0000
  H   H396      1.0  0.27583  0.36516  0.65341  1.0000
  H   H397      1.0  0.46542  0.62086  0.97825  1.0000
  H   H398      1.0  0.07062  0.35448  0.90520  1.0000
  H   H399      1.0  0.22445  0.36631  0.64776  1.0000
  C   C227      1.0  0.35782  0.50637  0.98715  1.0000
  H   H400      1.0  0.44564  0.44182  0.50120  1.0000
  H   H401      1.0  0.32199  0.40845  0.87729  1.0000
  H   H402      1.0  0.48068  0.55638  0.96241  1.0000
  C   C228      1.0  0.22374  0.34956  0.65747  1.0000
  C   C229      1.0  0.11648  0.35721  0.91287  1.0000
  H   H403      1.0  0.43521  0.51890  0.53314  1.0000
  H   H404      1.0  0.42255  0.37485  0.89695  1.0000
  C   C230      1.0  0.15671  0.40385  0.94759  1.0000
  C   C231      1.0  0.47338  0.60465  0.97104  1.0000
  H   H405      1.0  0.46168  0.38672  0.49838  1.0000
  H   H406      1.0  0.31887  0.37618  0.63377  1.0000
  H   H407      1.0  0.15008  0.42180  0.95068  1.0000
  C   C232      1.0  0.16312  0.34551  0.94667  1.0000
  C   C233      1.0  0.35359  0.54812  0.99129  1.0000
  H   H408      1.0  0.40456  0.47812  0.53408  1.0000
  H   H409      1.0  0.46594  0.48722  0.54104  1.0000
  C   C234      1.0  0.44229  0.52136  0.51488  1.0000
  C   C235      1.0  0.49680  0.59406  0.98708  1.0000
  H   H410      1.0  0.15237  0.37246  0.88018  1.0000
  H   H411      1.0  0.26914  0.36384  0.62341  1.0000
  H   H412      1.0  0.34247  0.38552  0.90770  1.0000
  H   H413      1.0  0.42364  0.48226  0.56065  1.0000
  C   C236      1.0  0.43622  0.45843  0.49517  1.0000
  H   H414      1.0  0.28256  0.34635  0.68531  1.0000
  C   C237      1.0  0.42308  0.47202  0.54460  1.0000
  C   C238      1.0  0.34264  0.52693  0.98332  1.0000
  H   H415      1.0  0.43027  0.53637  0.50765  1.0000
  H   H416      1.0  0.17761  0.40510  0.93865  1.0000
  C   C239      1.0  0.45247  0.47402  0.53219  1.0000
  S   S72       1.0  0.40471  0.43405  0.99119  1.0000
  C   C240      1.0  0.27159  0.58893  0.50793  1.0000
  H   H417      1.0  0.18456  0.33937  0.95266  1.0000
  H   H418      1.0  0.15983  0.39588  0.96516  1.0000
  H   H419      1.0  0.32646  0.34585  0.90424  1.0000
  C   C241      1.0  0.50114  0.46043  0.50008  1.0000
  H   H420      1.0  0.40170  0.38943  0.91846  1.0000
  H   H421      1.0  0.27906  0.60470  0.51683  1.0000
  H   H422      1.0  0.49287  0.49574  0.50663  1.0000
  C   C242      1.0  0.33117  0.39189  0.87184  1.0000
  H   H423      1.0  0.06411  0.33591  0.85734  1.0000
  N   N17       1.0  0.14109  0.37406  0.91652  1.0000
  H   H424      1.0  0.41334  0.45720  0.50072  1.0000
  H   H425      1.0  0.34153  0.56372  0.98831  1.0000
  S   S73       1.0  0.34170  0.47990  0.97852  1.0000
  S   S74       1.0  0.39933  0.62822  0.97393  1.0000
  H   H426      1.0  0.02061  0.33773  0.68479  1.0000
  H   H427      1.0  0.01315  0.35594  0.61808  1.0000
  C   C243      1.0  0.14727  0.38561  0.89329  1.0000
  H   H428      1.0  0.17530  0.40927  0.87429  1.0000
  H   H429      1.0  0.29154  0.34893  0.53837  1.0000
  S   S75       1.0  0.38950  0.38167  0.97294  1.0000
  H   H430      1.0  0.34184  0.39559  0.85500  1.0000
  H   H431      1.0  0.34790  0.36174  0.83990  1.0000
  C   C244      1.0  0.16691  0.36025  0.92422  1.0000
  C   C245      1.0  0.24745  0.34086  0.91014  1.0000
  C   C246      1.0  0.28050  0.35480  0.63803  1.0000
  C   C247      1.0  0.01752  0.33574  0.85647  1.0000
  C   C248      1.0  0.48548  0.39738  0.97199  1.0000
  C   C249      1.0  0.25255  0.33510  0.55409  1.0000
  C   C250      1.0  0.01005  0.33750  0.61979  1.0000
  S   S76       1.0  0.33299  0.65338  0.93987  1.0000
  H   H432      1.0  0.46371  0.45762  0.53624  1.0000
  H   H433      1.0  0.11848  0.40477  0.92585  1.0000
  H   H434      1.0  0.48249  0.60833  0.95354  1.0000
  N   N18       1.0  0.36491  0.35996  0.88829  1.0000
  H   H435      1.0  0.16566  0.41939  0.90211  1.0000
  H   H436      1.0  0.41144  0.49724  0.50153  1.0000
  C   C251      1.0  0.17165  0.40378  0.89268  1.0000
  H   H437      1.0  0.38194  0.35329  0.82922  1.0000
  C   C252      1.0  0.48153  0.39255  0.50641  1.0000
  S   S77       1.0  0.34239  0.62639  0.50628  1.0000
  H   H438      1.0  0.17300  0.34833  0.91037  1.0000
  H   H439      1.0  0.48628  0.48105  0.98330  1.0000
  C   C253      1.0  0.35303  0.51467  0.51209  1.0000
  H   H440      1.0  0.18644  0.37105  0.92665  1.0000
  H   H441      1.0  0.31880  0.35171  0.61594  1.0000
  H   H442      1.0  0.46549  0.52591  0.51443  1.0000
  C   C254      1.0  0.34046  0.34265  0.88918  1.0000
  H   H443      1.0  0.28407  0.64132  0.97270  1.0000
  H   H444      1.0  0.08158  0.38303  0.91186  1.0000
  C   C255      1.0  0.35257  0.49195  0.50407  1.0000
  H   H445      1.0  0.46608  0.39451  0.98197  1.0000
  C   C256      1.0  0.08827  0.36738  0.90288  1.0000
  C   C257      1.0  0.47933  0.54582  0.97869  1.0000
  C   C258      1.0  0.27512  0.65547  0.98297  1.0000
  H   H446      1.0  0.40042  0.34569  0.86919  1.0000
  H   H447      1.0  0.22616  0.33199  0.62557  1.0000
  H   H448      1.0  0.20075  0.34545  0.66079  1.0000
  H   H449      1.0  0.24806  0.59055  0.50526  1.0000
  H   H450      1.0  0.01626  0.34799  0.84205  1.0000
  H   H451      1.0  0.23404  0.35148  0.67468  1.0000
  Fe  Fe40      1.0  0.36935  0.59758  0.49322  1.0000
  H   H452      1.0  0.50598  0.45625  0.51859  1.0000
  C   C259      1.0  0.30315  0.68682  0.06043  1.0000
  S   S78       1.0  0.21479  0.88316  0.04234  1.0000
  N   N19       1.0  0.26598  0.74773  0.42464  1.0000
  C   C260      1.0  0.06385  0.98496  0.01666  1.0000
  Fe  Fe41      1.0  0.14113  0.89594  0.46588  1.0000
  S   S79       1.0  0.13128  0.88172  0.43010  1.0000
  Fe  Fe42      1.0  0.17554  0.76735  0.37264  1.0000
  S   S80       1.0  0.16636  0.73671  0.39590  1.0000
  S   S81       1.0  0.19882  0.79769  0.38869  1.0000
  Fe  Fe43      1.0  0.15333  0.74285  0.32884  1.0000
  S   S82       1.0  0.14266  0.71037  0.34944  1.0000
  S   S83       1.0  0.13848  0.74868  0.29099  1.0000
  Fe  Fe44      1.0  0.12436  0.73421  0.37582  1.0000
  S   S84       1.0  0.08241  0.73354  0.39616  1.0000
  Fe  Fe45      1.0  0.18567  0.71586  0.36783  1.0000
  S   S85       1.0  0.22295  0.69041  0.37203  1.0000
  S   S86       1.0  0.13277  0.76630  0.35450  1.0000
  S   S87       1.0  0.19715  0.74690  0.34531  1.0000
  H   H453      1.0  0.03584  0.81251  0.39437  1.0000
  Fe  Fe46      1.0  0.18694  0.72624  0.10829  1.0000
  S   S88       1.0  0.20128  0.75974  0.12393  1.0000
  S   S89       1.0  0.20988  0.70527  0.08049  1.0000
  Fe  Fe47      1.0  0.12610  0.72905  0.13112  1.0000
  S   S90       1.0  0.13671  0.76239  0.14823  1.0000
  S   S91       1.0  0.08285  0.71057  0.13641  1.0000
  Fe  Fe48      1.0  0.15720  0.77258  0.11405  1.0000
  S   S92       1.0  0.14228  0.80411  0.09373  1.0000
  Fe  Fe49      1.0  0.17945  0.74655  0.15699  1.0000
  S   S93       1.0  0.20153  0.74730  0.19280  1.0000
  S   S94       1.0  0.14387  0.74000  0.09654  1.0000
  S   S95       1.0  0.16784  0.71217  0.14184  1.0000
  H   H454      1.0  0.15708  0.86512  0.03538  1.0000
  H   H455      1.0  0.04926  0.91807  0.48919  1.0000
  C   C261      1.0  0.04946  0.72431  0.13086  1.0000
  C   C262      1.0  0.02356  0.71174  0.13367  1.0000
  C   C263      1.0  0.04819  0.74749  0.12395  1.0000
  H   H456      1.0  0.17594  0.67425  0.18323  1.0000
  H   H457      1.0  0.06791  0.75738  0.12170  1.0000
  C   C264      1.0  0.24618  0.69789  0.07414  1.0000
  C   C265      1.0  0.29821  0.70358  0.07720  1.0000
  C   C266      1.0  0.27000  0.70899  0.08413  1.0000
  H   H458      1.0  0.15446  0.71132  0.19356  1.0000
  H   H459      1.0  0.26672  0.72195  0.09698  1.0000
  C   C267      1.0  0.04793  0.72995  0.38298  1.0000
  H   H460      1.0  0.25285  0.74475  0.46097  1.0000
  C   C268      1.0  0.04464  0.72144  0.36056  1.0000
  H   H461      1.0  0.24176  0.67475  0.45589  1.0000
  H   H462      1.0  0.06346  0.71729  0.35065  1.0000
  C   C269      1.0  0.15711  0.74892  0.26415  1.0000
  C   C270      1.0  0.18566  0.74187  0.26240  1.0000
  C   C271      1.0  0.19923  0.74212  0.24053  1.0000
  C   C272      1.0  0.18433  0.74907  0.22016  1.0000
  C   C273      1.0  0.15594  0.75642  0.22202  1.0000
  C   C274      1.0  0.14246  0.75634  0.24387  1.0000
  H   H463      1.0  0.19715  0.73593  0.27780  1.0000
  H   H464      1.0  0.22119  0.73634  0.23927  1.0000
  H   H465      1.0  0.14440  0.76221  0.20659  1.0000
  H   H466      1.0  0.12043  0.76197  0.24504  1.0000
  C   C275      1.0  0.24333  0.68051  0.39671  1.0000
  C   C276      1.0  0.23315  0.68190  0.41946  1.0000
  H   H467      1.0  0.05863  0.98894  0.46830  1.0000
  H   H468      1.0  0.21208  0.68890  0.42239  1.0000
  H   H469      1.0  0.16081  0.67690  0.25070  1.0000
  C   C277      1.0  0.15030  0.85821  0.41912  1.0000
  C   C278      1.0  0.14092  0.84839  0.39823  1.0000
  C   C279      1.0  0.15505  0.82935  0.38920  1.0000
  C   C280      1.0  0.17916  0.82029  0.40070  1.0000
  C   C281      1.0  0.18882  0.83028  0.42141  1.0000
  C   C282      1.0  0.17420  0.84896  0.43079  1.0000
  H   H470      1.0  0.12258  0.85556  0.38902  1.0000
  H   H471      1.0  0.14771  0.82202  0.37307  1.0000
  H   H472      1.0  0.20769  0.82360  0.43026  1.0000
  H   H473      1.0  0.18171  0.85645  0.44683  1.0000
  H   H474      1.0  0.23292  0.67195  0.05001  1.0000
  C   C283      1.0  0.19467  0.86155  0.05725  1.0000
  C   C284      1.0  0.20663  0.84971  0.07654  1.0000
  C   C285      1.0  0.19105  0.83181  0.08792  1.0000
  C   C286      1.0  0.16339  0.82585  0.08007  1.0000
  C   C287      1.0  0.15133  0.83804  0.06114  1.0000
  C   C288      1.0  0.16689  0.85573  0.04974  1.0000
  H   H475      1.0  0.22790  0.85447  0.08269  1.0000
  H   H476      1.0  0.20013  0.82299  0.10299  1.0000
  H   H477      1.0  0.12972  0.83387  0.05529  1.0000
  H   H478      1.0  0.10173  0.80751  0.39418  1.0000
  C   C289      1.0  0.21776  0.71212  0.00427  1.0000
  H   H479      1.0  0.26373  0.82009  0.01697  1.0000
  H   H480      1.0  0.06462  0.78535  0.45833  1.0000
  C   C290      1.0  0.12420  0.77591  0.42859  1.0000
  S   S96       1.0  0.08919  0.88110  0.99468  1.0000
  S   S97       1.0  0.11240  0.92326  0.48012  1.0000
  H   H481      1.0  0.43394  0.69134  0.46660  1.0000
  H   H482      1.0  0.12677  0.81263  0.43134  1.0000
  H   H483      1.0  0.23583  0.83926  0.02355  1.0000
  H   H484      1.0  0.20435  0.75849  0.45744  1.0000
  C   C291      1.0  0.12471  0.66732  0.22725  1.0000
  C   C292      1.0  0.11138  0.79870  0.43663  1.0000
  H   H485      1.0  0.02430  0.69376  0.13889  1.0000
  C   C293      1.0  0.45442  0.69677  0.47504  1.0000
  H   H486      1.0  0.23229  0.71886  0.01797  1.0000
  H   H487      1.0  0.02188  0.80871  0.43505  1.0000
  C   C294      1.0  0.02136  0.75792  0.11980  1.0000
  H   H488      1.0  0.32688  0.70906  0.99813  1.0000
  C   C295      1.0  0.08870  0.94856  0.00772  1.0000
  H   H489      1.0  0.06809  0.67927  0.19066  1.0000
  H   H490      1.0  0.10291  0.93250  0.04054  1.0000
  H   H491      1.0  0.00896  0.98336  0.99660  1.0000
  H   H492      1.0  0.28253  0.69626  0.00967  1.0000
  C   C296      1.0  0.28064  0.70666  0.99332  1.0000
  H   H493      1.0  0.22773  0.78017  0.44539  1.0000
  C   C297      1.0  0.08233  0.93626  0.03130  1.0000
  Fe  Fe50      1.0  0.19285  0.89688  0.00965  1.0000
  H   H494      1.0  0.03295  0.75902  0.18783  1.0000
  H   H495      1.0  0.09835  0.83226  0.46783  1.0000
  H   H496      1.0  0.31641  0.71249  0.08489  1.0000
  H   H497      1.0  0.12628  0.68765  0.25940  1.0000
  H   H498      1.0  0.11226  0.79791  0.45597  1.0000
  H   H499      1.0  0.30568  0.73749  0.46275  1.0000
  N   N20       1.0  0.06692  0.96595  0.99948  1.0000
  S   S98       1.0  0.18158  0.91330  0.47875  1.0000
  C   C298      1.0  0.05790  0.81550  0.38791  1.0000
  H   H500      1.0  0.29250  0.79876  0.44758  1.0000
  H   H501      1.0  0.06306  0.83421  0.38771  1.0000
  C   C299      1.0  0.27084  0.74255  0.38014  1.0000
  C   C300      1.0  0.28892  0.72961  0.42741  1.0000
  H   H502      1.0  0.28142  0.71285  0.46164  1.0000
  C   C301      1.0  0.11551  0.67763  0.18629  1.0000
  H   H503      1.0  0.23625  0.75885  0.39727  1.0000
  S   S99       1.0  0.33932  0.68155  0.05165  1.0000
  H   H504      1.0  0.45591  0.71547  0.47147  1.0000
  H   H505      1.0  0.16082  0.70608  0.22348  1.0000
  H   H506      1.0  0.01457  0.71027  0.33415  1.0000
  H   H507      1.0  0.28148  0.71323  0.41962  1.0000
  C   C302      1.0  0.09643  0.72389  0.19921  1.0000
  C   C303      1.0  0.08082  0.80179  0.40176  1.0000
  N   N21       1.0  0.08136  0.80409  0.42791  1.0000
  C   C304      1.0  0.27933  0.67523  0.05098  1.0000
  H   H508      1.0  0.03168  0.87819  0.01186  1.0000
  H   H509      1.0  0.06518  0.76934  0.43311  1.0000
  H   H510      1.0  0.14633  0.77427  0.43587  1.0000
  C   C305      1.0  0.29328  0.77968  0.44717  1.0000
  H   H511      1.0  0.11087  0.95611  0.00816  1.0000
  C   C306      1.0  0.08480  0.66725  0.18509  1.0000
  H   H512      1.0  0.23313  0.72718  0.44198  1.0000
  H   H513      1.0  0.29641  0.77299  0.41111  1.0000
  N   N22       1.0  0.20165  0.81265  0.29621  1.0000
  C   C307      1.0  0.23140  0.80457  0.30320  1.0000
  C   C308      1.0  0.20131  0.83829  0.29963  1.0000
  C   C309      1.0  0.19731  0.80766  0.27077  1.0000
  C   C310      1.0  0.17991  0.79983  0.31109  1.0000
  C   C311      1.0  0.23869  0.77952  0.29737  1.0000
  C   C312      1.0  0.20611  0.84599  0.32491  1.0000
  C   C313      1.0  0.16850  0.81473  0.25948  1.0000
  C   C314      1.0  0.14936  0.81011  0.31250  1.0000
  H   H514      1.0  0.24833  0.81570  0.29492  1.0000
  H   H515      1.0  0.23488  0.80596  0.32231  1.0000
  H   H516      1.0  0.18103  0.84618  0.29346  1.0000
  H   H517      1.0  0.21813  0.84700  0.28873  1.0000
  H   H518      1.0  0.21485  0.81590  0.26027  1.0000
  H   H519      1.0  0.19856  0.78891  0.26773  1.0000
  H   H520      1.0  0.17742  0.78190  0.30518  1.0000
  H   H521      1.0  0.18793  0.79807  0.32937  1.0000
  H   H522      1.0  0.25853  0.77436  0.30697  1.0000
  H   H523      1.0  0.22146  0.76715  0.30244  1.0000
  H   H524      1.0  0.24327  0.77784  0.27857  1.0000
  H   H525      1.0  0.20245  0.86480  0.32576  1.0000
  H   H526      1.0  0.19099  0.83744  0.33727  1.0000
  H   H527      1.0  0.22854  0.84307  0.33093  1.0000
  H   H528      1.0  0.15035  0.80421  0.26652  1.0000
  H   H529      1.0  0.16927  0.81096  0.24063  1.0000
  H   H530      1.0  0.16418  0.83332  0.26067  1.0000
  H   H531      1.0  0.13303  0.79652  0.30876  1.0000
  H   H532      1.0  0.14473  0.82460  0.30042  1.0000
  H   H533      1.0  0.14511  0.81568  0.33045  1.0000
  N   N23       1.0  0.23909  0.78293  0.04758  1.0000
  C   C315      1.0  0.21740  0.76372  0.04393  1.0000
  C   C316      1.0  0.26647  0.77628  0.03570  1.0000
  C   C317      1.0  0.22706  0.80450  0.03623  1.0000
  C   C318      1.0  0.24306  0.78555  0.07345  1.0000
  C   C319      1.0  0.18632  0.76836  0.05169  1.0000
  C   C320      1.0  0.28127  0.75453  0.04562  1.0000
  C   C321      1.0  0.24827  0.82446  0.03070  1.0000
  C   C322      1.0  0.26728  0.80187  0.08180  1.0000
  H   H534      1.0  0.21607  0.75929  0.02523  1.0000
  H   H535      1.0  0.22396  0.74773  0.05348  1.0000
  H   H536      1.0  0.28300  0.79015  0.03607  1.0000
  H   H537      1.0  0.26226  0.77365  0.01683  1.0000
  H   H538      1.0  0.21653  0.80046  0.01928  1.0000
  H   H539      1.0  0.20979  0.81165  0.04704  1.0000
  H   H540      1.0  0.22304  0.79197  0.08125  1.0000
  H   H541      1.0  0.24603  0.76855  0.08248  1.0000
  H   H542      1.0  0.17293  0.75268  0.04885  1.0000
  H   H543      1.0  0.18513  0.77195  0.07047  1.0000
  H   H544      1.0  0.17615  0.78257  0.04152  1.0000
  H   H545      1.0  0.26810  0.73878  0.04302  1.0000
  H   H546      1.0  0.30180  0.75204  0.03630  1.0000
  H   H547      1.0  0.28687  0.75610  0.06430  1.0000
  C   C323      1.0  0.15429  0.69748  0.20719  1.0000
  H   H548      1.0  0.25977  0.83074  0.04623  1.0000
  H   H549      1.0  0.25719  0.74050  0.36436  1.0000
  H   H550      1.0  0.25873  0.81924  0.08497  1.0000
  H   H551      1.0  0.28583  0.80353  0.07005  1.0000
  H   H552      1.0  0.27630  0.79500  0.09850  1.0000
  N   N24       1.0  0.12469  0.68682  0.20951  1.0000
  H   H553      1.0  0.03043  0.94705  0.01385  1.0000
  C   C324      1.0  0.24345  0.74454  0.44321  1.0000
  H   H554      1.0  0.08568  0.73818  0.20800  1.0000
  H   H555      1.0  0.08101  0.71735  0.18605  1.0000
  H   H556      1.0  0.28185  0.77374  0.46299  1.0000
  H   H557      1.0  0.11536  0.73133  0.19012  1.0000
  H   H558      1.0  0.10379  0.98262  0.03771  1.0000
  H   H559      1.0  0.02545  0.74118  0.41317  1.0000
  C   C325      1.0  0.25107  0.74447  0.40145  1.0000
  C   C326      1.0  0.10442  0.70506  0.21746  1.0000
  H   H560      1.0  0.26348  0.78480  0.41833  1.0000
  H   H561      1.0  0.07819  0.78343  0.39695  1.0000
  C   C327      1.0  0.29859  0.72273  0.45234  1.0000
  H   H562      1.0  0.05805  0.81003  0.36953  1.0000
  C   C328      1.0  0.01687  0.71749  0.35124  1.0000
  H   H563      1.0  0.06112  0.82248  0.47061  1.0000
  C   C329      1.0  0.09229  0.99518  0.02627  1.0000
  C   C330      1.0  0.07528  0.82857  0.43432  1.0000
  H   H564      1.0  0.08391  0.69728  0.22394  1.0000
  H   H565      1.0  0.05404  0.83437  0.42779  1.0000
  H   H566      1.0  0.31614  0.77438  0.44833  1.0000
  H   H567      1.0  0.28431  0.75818  0.37722  1.0000
  C   C331      1.0  0.02317  0.73504  0.39567  1.0000
  H   H568      1.0  0.02075  0.77587  0.11449  1.0000
  H   H569      1.0  0.47230  0.68793  0.46636  1.0000
  H   H570      1.0  0.11374  0.71420  0.23261  1.0000
  H   H571      1.0  0.19797  0.70596  0.01334  1.0000
  H   H572      1.0  0.11168  0.76070  0.43492  1.0000
  H   H573      1.0  0.07057  0.91975  0.02854  1.0000
  C   C332      1.0  0.02843  0.79055  0.43486  1.0000
  H   H574      1.0  0.12624  0.77541  0.40943  1.0000
  H   H575      1.0  0.31714  0.71091  0.45134  1.0000
  C   C333      1.0  0.27919  0.77155  0.42438  1.0000
  S   S100      1.0  0.15391  0.91907  0.01090  1.0000
  C   C334      1.0  0.06088  0.78698  0.43922  1.0000
  H   H576      1.0  0.27871  0.66963  0.37583  1.0000
  H   H577      1.0  0.09096  0.84054  0.42567  1.0000
  H   H578      1.0  0.23718  0.72874  0.40194  1.0000
  C   C335      1.0  0.21927  0.76248  0.44288  1.0000
  C   C336      1.0  0.03073  0.88643  0.99481  1.0000
  H   H579      1.0  0.01621  0.78208  0.44928  1.0000
  H   H580      1.0  0.23988  0.94436  0.47754  1.0000
  H   H581      1.0  0.06977  0.85174  0.46300  1.0000
  H   H582      1.0  0.11754  0.69118  0.17241  1.0000
  C   C337      1.0  0.25111  0.68095  0.05757  1.0000
  C   C338      1.0  0.07624  0.83363  0.46052  1.0000
  H   H583      1.0  0.02139  0.78275  0.41828  1.0000
  H   H584      1.0  0.20620  0.76199  0.42673  1.0000
  H   H585      1.0  0.12404  0.99112  0.46680  1.0000
  H   H586      1.0  0.28453  0.72707  0.38127  1.0000
  H   H587      1.0  0.20687  0.98736  0.00357  1.0000
  H   H588      1.0  0.30863  0.73477  0.41762  1.0000
  C   C339      1.0  0.03831  0.95379  0.99674  1.0000
  H   H589      1.0  0.27460  0.72388  0.99951  1.0000
  H   H590      1.0  0.23645  0.67897  0.00613  1.0000
  C   C340      1.0  0.13737  0.67309  0.25139  1.0000
  H   H591      1.0  0.09043  0.93451  0.99506  1.0000
  H   H592      1.0  0.06971  0.94662  0.04328  1.0000
  H   H593      1.0  0.07507  0.96408  0.48226  1.0000
  H   H594      1.0  0.02411  0.87318  0.44622  1.0000
  H   H595      1.0  0.05059  0.97932  0.03181  1.0000
  C   C341      1.0  0.00951  0.75966  0.18392  1.0000
  C   C342      1.0  0.27062  0.67092  0.39332  1.0000
  C   C343      1.0  0.17874  0.68111  0.20093  1.0000
  C   C344      1.0  0.05465  0.97329  0.47924  1.0000
  H   H596      1.0  0.04053  0.96178  0.46887  1.0000
  C   C345      1.0  0.25003  0.67377  0.43843  1.0000
  H   H597      1.0  0.19934  0.69108  0.20078  1.0000
  H   H598      1.0  0.18139  0.66681  0.21381  1.0000
  H   H599      1.0  0.26549  0.92509  0.49033  1.0000
  Fe  Fe51      1.0  0.41328  0.79475  0.86699  1.0000
  S   S101      1.0  0.39383  0.77346  0.83849  1.0000
  S   S102      1.0  0.45868  0.78594  0.87990  1.0000
  Fe  Fe52      1.0  0.35577  0.82016  0.87487  1.0000
  S   S103      1.0  0.33315  0.80074  0.84669  1.0000
  S   S104      1.0  0.33510  0.84907  0.89529  1.0000
  Fe  Fe53      1.0  0.35572  0.76983  0.86229  1.0000
  S   S105      1.0  0.33064  0.73637  0.86603  1.0000
  Fe  Fe54      1.0  0.37327  0.80618  0.82541  1.0000
  S   S106      1.0  0.37231  0.82241  0.78859  1.0000
  S   S107      1.0  0.37612  0.78881  0.89166  1.0000
  S   S108      1.0  0.39502  0.82785  0.85280  1.0000
  H   H600      1.0  0.01899  0.98750  0.49690  1.0000
  C   C346      1.0  0.41196  0.67741  0.91123  1.0000
  S   S109      1.0  0.15025  0.91363  0.95416  1.0000
  S   S110      1.0  0.15865  0.97499  0.97253  1.0000
  C   C347      1.0  0.50397  0.70011  0.51215  1.0000
  S   S111      1.0  0.46169  0.66991  0.98396  1.0000
  Fe  Fe55      1.0  0.19034  0.89193  0.95711  1.0000
  S   S112      1.0  0.20608  0.86988  0.92718  1.0000
  H   H601      1.0  0.41580  0.80206  0.68718  1.0000
  Fe  Fe56      1.0  0.40596  0.82201  0.61892  1.0000
  S   S113      1.0  0.39889  0.78436  0.62667  1.0000
  S   S114      1.0  0.45081  0.83850  0.62120  1.0000
  Fe  Fe57      1.0  0.34030  0.83142  0.61472  1.0000
  S   S115      1.0  0.32984  0.79438  0.62343  1.0000
  S   S116      1.0  0.30226  0.85615  0.60981  1.0000
  Fe  Fe58      1.0  0.36450  0.79629  0.65108  1.0000
  S   S117      1.0  0.36032  0.77915  0.68728  1.0000
  Fe  Fe59      1.0  0.36502  0.78632  0.59842  1.0000
  S   S118      1.0  0.35402  0.76471  0.56702  1.0000
  S   S119      1.0  0.37271  0.83388  0.64430  1.0000
  S   S120      1.0  0.37443  0.82345  0.58881  1.0000
  Fe  Fe60      1.0  0.11087  0.90016  0.51180  1.0000
  S   S121      1.0  0.06877  0.89235  0.53066  1.0000
  Fe  Fe61      1.0  0.17659  0.89067  0.51099  1.0000
  C   C348      1.0  0.26780  0.71654  0.93689  1.0000
  S   S122      1.0  0.21818  0.87184  0.52189  1.0000
  H   H602      1.0  0.11796  0.86560  0.95362  1.0000
  H   H603      1.0  0.31254  0.91401  0.55886  1.0000
  S   S123      1.0  0.14966  0.91656  0.52907  1.0000
  H   H604      1.0  0.04048  0.93827  0.98615  1.0000
  H   H605      1.0  0.27731  0.74792  0.54891  1.0000
  H   H606      1.0  0.06967  0.95471  0.54989  1.0000
  C   C349      1.0  0.45346  0.69015  0.50112  1.0000
  C   C350      1.0  0.36576  0.73664  0.56152  1.0000
  C   C351      1.0  0.35735  0.72644  0.54057  1.0000
  C   C352      1.0  0.36628  0.70416  0.53532  1.0000
  C   C353      1.0  0.38363  0.69187  0.55108  1.0000
  C   C354      1.0  0.39198  0.70203  0.57207  1.0000
  C   C355      1.0  0.38312  0.72437  0.57729  1.0000
  H   H607      1.0  0.34392  0.73586  0.52830  1.0000
  H   H608      1.0  0.35978  0.69649  0.51911  1.0000
  H   H609      1.0  0.40539  0.69258  0.58435  1.0000
  H   H610      1.0  0.38963  0.73204  0.59350  1.0000
  C   C356      1.0  0.27914  0.86043  0.58521  1.0000
  C   C357      1.0  0.28727  0.85462  0.56278  1.0000
  C   C358      1.0  0.26816  0.85800  0.54380  1.0000
  C   C359      1.0  0.24070  0.86736  0.54687  1.0000
  C   C360      1.0  0.23250  0.87314  0.56932  1.0000
  C   C361      1.0  0.25169  0.86983  0.58831  1.0000
  H   H611      1.0  0.30849  0.84783  0.56002  1.0000
  H   H612      1.0  0.27490  0.85360  0.52653  1.0000
  H   H613      1.0  0.21136  0.88005  0.57211  1.0000
  H   H614      1.0  0.24510  0.87436  0.60558  1.0000
  H   H615      1.0  0.47246  0.82643  0.85043  1.0000
  C   C362      1.0  0.33224  0.71455  0.88794  1.0000
  C   C363      1.0  0.31986  0.69325  0.88270  1.0000
  H   H616      1.0  0.47948  0.69800  0.91211  1.0000
  H   H617      1.0  0.01847  0.97389  0.96781  1.0000
  C   C364      1.0  0.34554  0.69898  0.92637  1.0000
  C   C365      1.0  0.34467  0.71761  0.91005  1.0000
  H   H618      1.0  0.30991  0.69078  0.86583  1.0000
  H   H619      1.0  0.25767  0.81581  0.62725  1.0000
  H   H620      1.0  0.35528  0.70124  0.94331  1.0000
  H   H621      1.0  0.35331  0.73428  0.91458  1.0000
  C   C366      1.0  0.36933  0.80983  0.76064  1.0000
  C   C367      1.0  0.36680  0.78606  0.75777  1.0000
  C   C368      1.0  0.36413  0.77702  0.73524  1.0000
  C   C369      1.0  0.36392  0.79154  0.71528  1.0000
  C   C370      1.0  0.36650  0.81530  0.71816  1.0000
  C   C371      1.0  0.36928  0.82435  0.74067  1.0000
  H   H622      1.0  0.36674  0.77464  0.77289  1.0000
  H   H623      1.0  0.36202  0.75862  0.73328  1.0000
  H   H624      1.0  0.36593  0.82673  0.70307  1.0000
  H   H625      1.0  0.37117  0.84275  0.74260  1.0000
  C   C372      1.0  0.29926  0.85331  0.90527  1.0000
  C   C373      1.0  0.29393  0.87189  0.91983  1.0000
  C   C374      1.0  0.26580  0.87673  0.92730  1.0000
  C   C375      1.0  0.24238  0.86329  0.91995  1.0000
  C   C376      1.0  0.24769  0.84462  0.90546  1.0000
  C   C377      1.0  0.27593  0.83949  0.89837  1.0000
  H   H626      1.0  0.31173  0.88272  0.92532  1.0000
  H   H627      1.0  0.26221  0.89118  0.93835  1.0000
  H   H628      1.0  0.22983  0.83409  0.89959  1.0000
  H   H629      1.0  0.27957  0.82513  0.88721  1.0000
  C   C378      1.0  0.29256  0.92383  0.56168  1.0000
  C   C379      1.0  0.03423  0.90105  0.52047  1.0000
  H   H630      1.0  0.43105  0.83422  0.71250  1.0000
  H   H631      1.0  0.42719  0.72179  0.85257  1.0000
  H   H632      1.0  0.44901  0.84839  0.68796  1.0000
  H   H633      1.0  0.28513  0.96831  0.53302  1.0000
  C   C380      1.0  0.48398  0.82487  0.61556  1.0000
  C   C381      1.0  0.43484  0.81244  0.68164  1.0000
  H   H634      1.0  0.30480  0.80647  0.55836  1.0000
  H   H635      1.0  0.46525  0.79368  0.60247  1.0000
  S   S124      1.0  0.13744  0.87203  0.49682  1.0000
  H   H636      1.0  0.22297  0.98675  0.53419  1.0000
  S   S125      1.0  0.17196  0.87090  0.98681  1.0000
  H   H637      1.0  0.24681  0.98657  0.50985  1.0000
  C   C382      1.0  0.32040  0.67496  0.89890  1.0000
  C   C383      1.0  0.49238  0.81886  0.85650  1.0000
  C   C384      1.0  0.03887  0.99449  0.54108  1.0000
  H   H638      1.0  0.49153  0.82787  0.69522  1.0000
  N   N25       1.0  0.25524  0.78429  0.57583  1.0000
  C   C385      1.0  0.29264  0.79709  0.54485  1.0000
  C   C386      1.0  0.25196  0.80008  0.61750  1.0000
  H   H639      1.0  0.29102  0.71830  0.94072  1.0000
  H   H640      1.0  0.25175  0.78041  0.53837  1.0000
  H   H641      1.0  0.48324  0.77001  0.67185  1.0000
  H   H642      1.0  0.42910  0.73193  0.54025  1.0000
  H   H643      1.0  0.46155  0.74918  0.91365  1.0000
  H   H644      1.0  0.40214  0.66580  0.92469  1.0000
  H   H645      1.0  0.29248  0.73235  0.57296  1.0000
  H   H646      1.0  0.43828  0.69284  0.93777  1.0000
  N   N26       1.0  0.10580  0.83403  0.93681  1.0000
  C   C387      1.0  0.11756  0.81748  0.95514  1.0000
  C   C388      1.0  0.10807  0.82232  0.91379  1.0000
  H   H647      1.0  0.14995  0.80477  0.91700  1.0000
  H   H648      1.0  0.24943  0.80910  0.54747  1.0000
  H   H649      1.0  0.47047  0.73706  0.49899  1.0000
  C   C389      1.0  0.27444  0.74377  0.56763  1.0000
  C   C390      1.0  0.11307  0.82393  0.98072  1.0000
  H   H650      1.0  0.29899  0.94087  0.56838  1.0000
  H   H651      1.0  0.09880  0.98432  0.97878  1.0000
  H   H652      1.0  0.46615  0.72866  0.93673  1.0000
  H   H653      1.0  0.47857  0.70624  0.55458  1.0000
  H   H654      1.0  0.06335  0.82149  0.94641  1.0000
  C   C391      1.0  0.23526  0.93952  0.51502  1.0000
  C   C392      1.0  0.43189  0.83596  0.69328  1.0000
  H   H655      1.0  0.27071  0.75874  0.60089  1.0000
  H   H656      1.0  0.09742  0.83202  0.89944  1.0000
  H   H657      1.0  0.28311  0.80970  0.59177  1.0000
  C   C393      1.0  0.48540  0.72218  0.88345  1.0000
  H   H658      1.0  0.29794  0.77163  0.58374  1.0000
  C   C394      1.0  0.47550  0.67004  0.54749  1.0000
  H   H659      1.0  0.13814  0.81063  0.88794  1.0000
  H   H660      1.0  0.39433  0.68181  0.89884  1.0000
  N   N27       1.0  0.25755  0.69720  0.97744  1.0000
  H   H661      1.0  0.11039  0.86673  0.90113  1.0000
  C   C395      1.0  0.43446  0.73547  0.52175  1.0000
  C   C396      1.0  0.03074  0.91381  0.49973  1.0000
  C   C397      1.0  0.07462  0.83814  0.94238  1.0000
  H   H662      1.0  0.09006  0.82310  0.98570  1.0000
  N   N28       1.0  0.43961  0.71651  0.90810  1.0000
  C   C398      1.0  0.45013  0.73542  0.92380  1.0000
  C   C399      1.0  0.46588  0.70575  0.89796  1.0000
  C   C400      1.0  0.42401  0.69892  0.92321  1.0000
  C   C401      1.0  0.41983  0.72685  0.88977  1.0000
  C   C402      1.0  0.42686  0.74789  0.93755  1.0000
  H   H663      1.0  0.09943  0.98272  0.51004  1.0000
  H   H664      1.0  0.21084  0.96842  0.56730  1.0000
  C   C403      1.0  0.41514  0.71338  0.86711  1.0000
  C   C404      1.0  0.24584  0.98666  0.52911  1.0000
  C   C405      1.0  0.03927  0.97875  0.50209  1.0000
  H   H665      1.0  0.46028  0.69114  0.88675  1.0000
  H   H666      1.0  0.05283  0.84022  0.90797  1.0000
  H   H667      1.0  0.20256  0.80126  0.55495  1.0000
  H   H668      1.0  0.40516  0.70665  0.93156  1.0000
  H   H669      1.0  0.39835  0.72997  0.89715  1.0000
  H   H670      1.0  0.42794  0.74416  0.88419  1.0000
  H   H671      1.0  0.40910  0.75425  0.92623  1.0000
  H   H672      1.0  0.41816  0.73692  0.95195  1.0000
  H   H673      1.0  0.43682  0.76324  0.94570  1.0000
  H   H674      1.0  0.19000  0.94314  0.57337  1.0000
  H   H675      1.0  0.09620  0.80553  0.91438  1.0000
  S   S126      1.0  0.16528  0.97600  0.50320  1.0000
  C   C406      1.0  0.05615  0.85059  0.92371  1.0000
  H   H676      1.0  0.22279  0.91821  0.55532  1.0000
  C   C407      1.0  0.08471  0.98202  0.52516  1.0000
  H   H677      1.0  0.14224  0.87971  0.91189  1.0000
  H   H678      1.0  0.10788  0.79997  0.95319  1.0000
  H   H679      1.0  0.45921  0.67170  0.50201  1.0000
  N   N29       1.0  0.31090  0.86988  0.81896  1.0000
  C   C408      1.0  0.30234  0.85224  0.80116  1.0000
  C   C409      1.0  0.29615  0.86307  0.84141  1.0000
  C   C410      1.0  0.34303  0.86811  0.82247  1.0000
  C   C411      1.0  0.30270  0.89349  0.80992  1.0000
  C   C412      1.0  0.31196  0.85738  0.77585  1.0000
  C   C413      1.0  0.26290  0.86294  0.84064  1.0000
  C   C414      1.0  0.35732  0.88483  0.83956  1.0000
  C   C415      1.0  0.29912  0.91245  0.82812  1.0000
  H   H680      1.0  0.31056  0.83490  0.80641  1.0000
  H   H681      1.0  0.27860  0.85017  0.79994  1.0000
  H   H682      1.0  0.30279  0.87415  0.85594  1.0000
  H   H683      1.0  0.30293  0.84558  0.84737  1.0000
  H   H684      1.0  0.34860  0.85040  0.82851  1.0000
  H   H685      1.0  0.35470  0.87092  0.80590  1.0000
  H   H686      1.0  0.31866  0.89985  0.79684  1.0000
  H   H687      1.0  0.28172  0.89244  0.80043  1.0000
  H   H688      1.0  0.33545  0.86000  0.77410  1.0000
  H   H689      1.0  0.30627  0.84232  0.76510  1.0000
  H   H690      1.0  0.30070  0.87242  0.76805  1.0000
  H   H691      1.0  0.25440  0.84657  0.83358  1.0000
  H   H692      1.0  0.25459  0.86402  0.85861  1.0000
  H   H693      1.0  0.25390  0.87761  0.83051  1.0000
  H   H694      1.0  0.35647  0.90285  0.83289  1.0000
  H   H695      1.0  0.38050  0.88055  0.84126  1.0000
  H   H696      1.0  0.34841  0.88327  0.85732  1.0000
  H   H697      1.0  0.30807  0.92892  0.82095  1.0000
  H   H698      1.0  0.31002  0.90934  0.84502  1.0000
  H   H699      1.0  0.27596  0.91563  0.83119  1.0000
  H   H700      1.0  0.43173  0.75427  0.51880  1.0000
  H   H701      1.0  0.26155  0.73194  0.92630  1.0000
  H   H702      1.0  0.26598  0.97060  0.55921  1.0000
  Fe  Fe62      1.0  0.15254  0.93843  0.49615  1.0000
  H   H703      1.0  0.29175  0.93026  0.52501  1.0000
  H   H704      1.0  0.42033  0.69494  0.86811  1.0000
  N   N30       1.0  0.46242  0.79971  0.68666  1.0000
  H   H705      1.0  0.10507  0.95120  0.53901  1.0000
  C   C416      1.0  0.46249  0.77914  0.67114  1.0000
  H   H706      1.0  0.05764  0.95235  0.95167  1.0000
  C   C417      1.0  0.46271  0.79297  0.71213  1.0000
  C   C418      1.0  0.43930  0.76053  0.67629  1.0000
  H   H707      1.0  0.48002  0.73854  0.52863  1.0000
  C   C419      1.0  0.26013  0.80420  0.59177  1.0000
  H   H708      1.0  0.30386  0.78081  0.54160  1.0000
  C   C420      1.0  0.05480  0.90089  0.96025  1.0000
  H   H709      1.0  0.24897  0.73245  0.96633  1.0000
  H   H710      1.0  0.46006  0.78483  0.65256  1.0000
  H   H711      1.0  0.07428  0.90395  0.95047  1.0000
  H   H712      1.0  0.28032  0.91390  0.57511  1.0000
  H   H713      1.0  0.39206  0.71440  0.86190  1.0000
  H   H714      1.0  0.01214  0.88546  0.54975  1.0000
  H   H715      1.0  0.41724  0.76705  0.67373  1.0000
  H   H716      1.0  0.44172  0.74633  0.66391  1.0000
  H   H717      1.0  0.44153  0.75293  0.69407  1.0000
  C   C421      1.0  0.20453  0.95145  0.56033  1.0000
  H   H718      1.0  0.47113  0.66625  0.56616  1.0000
  C   C422      1.0  0.26312  0.96670  0.54046  1.0000
  C   C423      1.0  0.46579  0.72912  0.51626  1.0000
  H   H719      1.0  0.25423  0.73370  0.57015  1.0000
  H   H720      1.0  0.22679  0.71158  0.95260  1.0000
  H   H721      1.0  0.22077  0.76165  0.56458  1.0000
  C   C424      1.0  0.05625  0.89039  0.98233  1.0000
  H   H722      1.0  0.21411  0.68346  0.98122  1.0000
  C   C425      1.0  0.31114  0.70984  0.98345  1.0000
  N   N31       1.0  0.25105  0.94262  0.53777  1.0000
  H   H723      1.0  0.44393  0.69630  0.54612  1.0000
  C   C426      1.0  0.08306  0.95685  0.53413  1.0000
  H   H724      1.0  0.22062  0.76707  0.59469  1.0000
  H   H725      1.0  0.14663  0.85242  0.93996  1.0000
  H   H726      1.0  0.47310  0.73286  0.87071  1.0000
  C   C427      1.0  0.48506  0.80284  0.60640  1.0000
  C   C428      1.0  0.24916  0.71492  0.95899  1.0000
  H   H727      1.0  0.46394  0.80852  0.72298  1.0000
  H   H728      1.0  0.48018  0.76728  0.73624  1.0000
  H   H729      1.0  0.22855  0.79706  0.61973  1.0000
  N   N32       1.0  0.05627  0.99294  0.51916  1.0000
  H   H730      1.0  0.44193  0.78472  0.71754  1.0000
  H   H731      1.0  0.14120  0.81541  0.95320  1.0000
  C   C429      1.0  0.33352  0.67753  0.92065  1.0000
  H   H732      1.0  0.48184  0.82695  0.66538  1.0000
  H   H733      1.0  0.08582  0.97039  0.94047  1.0000
  H   H734      1.0  0.29377  0.80762  0.52851  1.0000
  C   C430      1.0  0.22470  0.77542  0.57738  1.0000
  C   C431      1.0  0.20110  0.79346  0.57270  1.0000
  H   H735      1.0  0.20149  0.80726  0.58566  1.0000
  H   H736      1.0  0.03215  0.96211  0.51026  1.0000
  H   H737      1.0  0.50090  0.71195  0.87353  1.0000
  C   C432      1.0  0.27553  0.92576  0.53854  1.0000
  C   C433      1.0  0.49161  0.79908  0.87082  1.0000
  H   H738      1.0  0.24810  0.81954  0.58543  1.0000
  C   C434      1.0  0.27534  0.76520  0.58296  1.0000
  C   C435      1.0  0.26079  0.79265  0.55120  1.0000
  H   H739      1.0  0.09507  0.94679  0.95904  1.0000
  H   H740      1.0  0.03439  0.85329  0.93099  1.0000
  H   H741      1.0  0.26402  0.78577  0.62587  1.0000
  H   H742      1.0  0.02688  0.91534  0.93358  1.0000
  H   H743      1.0  0.31376  0.72675  0.97432  1.0000
  C   C436      1.0  0.12325  0.85607  0.93775  1.0000
  H   H744      1.0  0.10806  0.88864  0.92223  1.0000
  H   H745      1.0  0.41122  0.84372  0.68755  1.0000
  H   H746      1.0  0.43196  0.81556  0.66261  1.0000
  N   N33       1.0  0.47252  0.70380  0.51724  1.0000
  H   H747      1.0  0.07510  0.94508  0.52057  1.0000
  C   C437      1.0  0.12045  0.87344  0.91704  1.0000
  C   C438      1.0  0.46706  0.69520  0.54182  1.0000
  C   C439      1.0  0.02795  0.90731  0.95074  1.0000
  H   H748      1.0  0.28412  0.67790  0.95400  1.0000
  H   H749      1.0  0.26417  0.70143  0.92570  1.0000
  H   H750      1.0  0.07288  0.84853  0.95829  1.0000
  H   H751      1.0  0.12207  0.84111  0.98452  1.0000
  H   H752      1.0  0.17967  0.78485  0.57397  1.0000
  H   H753      1.0  0.26762  0.90816  0.53436  1.0000
  H   H754      1.0  0.22447  0.92231  0.51482  1.0000
  C   C440      1.0  0.13903  0.81773  0.90570  1.0000
  H   H755      1.0  0.42878  0.66738  0.90272  1.0000
  H   H756      1.0  0.19170  0.95364  0.54417  1.0000
  H   H757      1.0  0.15238  0.83368  0.90466  1.0000
  H   H758      1.0  0.06459  0.86792  0.91908  1.0000
  Fe  Fe63      1.0  0.13409  0.89455  0.98577  1.0000
  H   H759      1.0  0.49409  0.76471  0.70817  1.0000
  C   C441      1.0  0.23092  0.93615  0.55737  1.0000
  H   H760      1.0  0.09630  0.99190  0.53879  1.0000
  C   C442      1.0  0.48752  0.77758  0.72082  1.0000
  H   H761      1.0  0.21754  0.95192  0.51269  1.0000
  H   H762      1.0  0.03057  0.97718  0.54666  1.0000
  C   C443      1.0  0.48730  0.81581  0.68080  1.0000
  H   H763      1.0  0.31757  0.69586  0.97205  1.0000
  C   C444      1.0  0.01383  0.96829  0.98596  1.0000
  S   S127      1.0  0.21353  0.91729  0.98007  1.0000
  H   H764      1.0  0.24219  0.93644  0.57449  1.0000
  C   C445      1.0  0.26608  0.67518  0.96619  1.0000
  H   H765      1.0  0.49866  0.66685  0.54472  1.0000
  C   C446      1.0  0.07874  0.96029  0.95607  1.0000
  C   C447      1.0  0.23132  0.69167  0.99197  1.0000
  H   H766      1.0  0.24813  0.66857  0.95510  1.0000
  H   H767      1.0  0.49834  0.73362  0.89477  1.0000
  Fe  Fe64      1.0  0.17202  0.93758  0.97947  1.0000
  H   H768      1.0  0.06307  0.99121  0.97118  1.0000
  H   H769      1.0  0.12452  0.81144  0.99230  1.0000
  C   C448      1.0  0.07695  0.97660  0.97675  1.0000
  H   H770      1.0  0.41862  0.72674  0.51032  1.0000
  H   H771      1.0  0.21130  0.72610  0.99196  1.0000
  H   H772      1.0  0.43062  0.68977  0.50682  1.0000
  C   C449      1.0  0.00972  0.89539  0.53372  1.0000
  C   C450      1.0  0.25398  0.94142  0.49302  1.0000
  H   H773      1.0  0.26984  0.95579  0.49371  1.0000
  S   S128      1.0  0.37811  0.67830  0.99227  1.0000
  Fe  Fe65      1.0  0.64076  0.26980  0.10812  1.0000
  S   S129      1.0  0.63062  0.23272  0.10149  1.0000
  S   S130      1.0  0.62491  0.29371  0.07909  1.0000
  Fe  Fe66      1.0  0.66402  0.25791  0.15687  1.0000
  S   S131      1.0  0.65624  0.21991  0.15284  1.0000
  S   S132      1.0  0.67620  0.27554  0.19065  1.0000
  Fe  Fe67      1.0  0.67460  0.22544  0.11671  1.0000
  S   S133      1.0  0.69903  0.20011  0.09415  1.0000
  Fe  Fe68      1.0  0.61341  0.23074  0.13767  1.0000
  S   S134      1.0  0.57136  0.21282  0.14801  1.0000
  S   S135      1.0  0.68547  0.26296  0.12169  1.0000
  S   S136      1.0  0.62036  0.26827  0.14333  1.0000
  Fe  Fe69      1.0  0.84968  0.15921  0.03845  1.0000
  S   S137      1.0  0.82635  0.13606  0.01356  1.0000
  S   S138      1.0  0.82974  0.17900  0.06824  1.0000
  Fe  Fe70      1.0  0.90911  0.15075  0.01541  1.0000
  H   H774      1.0  0.55052  0.29229  0.38884  1.0000
  H   H775      1.0  0.74911  0.27966  0.07915  1.0000
  Fe  Fe71      1.0  0.86377  0.11189  0.01890  1.0000
  C   C451      1.0  0.56250  0.32896  0.08741  1.0000
  S   S139      1.0  0.87545  0.17797  0.01081  1.0000
  S   S140      1.0  0.88574  0.13418  0.04559  1.0000
  Fe  Fe72      1.0  0.66999  0.23999  0.32588  1.0000
  S   S141      1.0  0.64034  0.21873  0.34883  1.0000
  S   S142      1.0  0.68361  0.22657  0.29078  1.0000
  Fe  Fe73      1.0  0.67525  0.27819  0.36189  1.0000
  S   S143      1.0  0.64523  0.26035  0.38671  1.0000
  S   S144      1.0  0.70167  0.31054  0.36776  1.0000
  Fe  Fe74      1.0  0.67040  0.22848  0.37844  1.0000
  S   S145      1.0  0.68787  0.20676  0.40909  1.0000
  Fe  Fe75      1.0  0.61815  0.25227  0.35498  1.0000
  S   S146      1.0  0.57173  0.26160  0.34614  1.0000
  S   S147      1.0  0.70144  0.24692  0.35498  1.0000
  S   S148      1.0  0.64685  0.27285  0.33063  1.0000
  S   S149      1.0  0.87579  0.17626  0.47193  1.0000
  C   C452      1.0  0.69014  0.29049  0.02087  1.0000
  S   S150      1.0  0.85958  0.12270  0.46274  1.0000
  H   H776      1.0  0.76363  0.09170  0.13197  1.0000
  C   C453      1.0  0.53471  0.29677  0.40235  1.0000
  Fe  Fe76      1.0  0.89483  0.14200  0.48170  1.0000
  Fe  Fe77      1.0  0.83798  0.15699  0.45670  1.0000
  S   S151      1.0  0.81592  0.16872  0.42264  1.0000
  H   H777      1.0  0.75961  0.29268  0.39282  1.0000
  H   H778      1.0  0.57546  0.32887  0.07147  1.0000
  C   C454      1.0  0.97595  0.16699  0.47416  1.0000
  H   H779      1.0  0.67204  0.26669  0.45903  1.0000
  H   H780      1.0  0.55902  0.22885  0.25992  1.0000
  H   H781      1.0  0.75961  0.08387  0.10191  1.0000
  H   H782      1.0  0.79482  0.07486  0.04477  1.0000
  H   H783      1.0  0.63014  0.25050  0.04921  1.0000
  H   H784      1.0  0.79920  0.23795  0.45141  1.0000
  H   H785      1.0  0.50881  0.31213  0.02800  1.0000
  H   H786      1.0  0.86435  0.08836  0.11373  1.0000
  C   C455      1.0  0.73628  0.26428  0.41085  1.0000
  H   H787      1.0  0.77756  0.23400  0.42609  1.0000
  C   C456      1.0  0.98979  0.13619  0.03864  1.0000
  H   H788      1.0  0.70107  0.30338  0.00943  1.0000
  H   H789      1.0  0.97395  0.10717  0.42762  1.0000
  C   C457      1.0  0.53922  0.24779  0.35464  1.0000
  H   H790      1.0  0.76018  0.13004  0.40434  1.0000
  C   C458      1.0  0.53832  0.23083  0.37227  1.0000
  H   H791      1.0  0.71047  0.27461  0.29314  1.0000
  H   H792      1.0  0.55810  0.22517  0.38053  1.0000
  C   C459      1.0  0.72380  0.19679  0.41257  1.0000
  C   C460      1.0  0.73304  0.18841  0.43453  1.0000
  C   C461      1.0  0.76130  0.18032  0.43805  1.0000
  C   C462      1.0  0.78055  0.17997  0.41949  1.0000
  C   C463      1.0  0.77129  0.18833  0.39754  1.0000
  C   C464      1.0  0.74322  0.19688  0.39412  1.0000
  H   H793      1.0  0.71830  0.18836  0.44897  1.0000
  H   H794      1.0  0.76816  0.17430  0.45510  1.0000
  H   H795      1.0  0.78594  0.18815  0.38304  1.0000
  H   H796      1.0  0.73646  0.20315  0.37710  1.0000
  C   C465      1.0  0.98832  0.14985  0.01833  1.0000
  H   H797      1.0  0.51384  0.26820  0.33053  1.0000
  H   H798      1.0  0.84468  0.13228  0.08663  1.0000
  H   H799      1.0  0.97071  0.13322  0.04893  1.0000
  C   C466      1.0  0.93530  0.07364  0.01460  1.0000
  H   H800      1.0  0.99313  0.07382  0.02416  1.0000
  H   H801      1.0  0.86881  0.02655  0.04425  1.0000
  H   H802      1.0  0.73329  0.20333  0.01136  1.0000
  C   C467      1.0  0.75433  0.30320  0.27278  1.0000
  C   C468      1.0  0.64520  0.31660  0.06649  1.0000
  C   C469      1.0  0.70483  0.26697  0.01831  1.0000
  C   C470      1.0  0.76847  0.26548  0.44573  1.0000
  H   H803      1.0  0.71981  0.09543  0.47447  1.0000
  N   N34       1.0  0.81202  0.10629  0.09466  1.0000
  H   H804      1.0  0.56619  0.29776  0.05352  1.0000
  H   H805      1.0  0.78215  0.06686  0.07284  1.0000
  H   H806      1.0  0.69092  0.29747  0.03848  1.0000
  C   C471      1.0  0.53832  0.22627  0.14081  1.0000
  H   H807      1.0  0.53312  0.18353  0.21041  1.0000
  C   C472      1.0  0.77707  0.24001  0.44421  1.0000
  H   H808      1.0  0.55710  0.25985  0.13500  1.0000
  C   C473      1.0  0.71650  0.25930  0.44982  1.0000
  C   C474      1.0  0.67610  0.26123  0.21819  1.0000
  C   C475      1.0  0.68522  0.23851  0.22089  1.0000
  C   C476      1.0  0.68718  0.22818  0.24323  1.0000
  C   C477      1.0  0.67935  0.24019  0.26307  1.0000
  C   C478      1.0  0.66919  0.26265  0.26031  1.0000
  C   C479      1.0  0.66817  0.27327  0.23801  1.0000
  H   H809      1.0  0.69176  0.22917  0.20582  1.0000
  H   H810      1.0  0.69511  0.21082  0.24517  1.0000
  H   H811      1.0  0.66258  0.27195  0.27537  1.0000
  H   H812      1.0  0.66104  0.29085  0.23606  1.0000
  C   C480      1.0  0.79328  0.18628  0.07376  1.0000
  C   C481      1.0  0.78734  0.20105  0.09212  1.0000
  C   C482      1.0  0.75874  0.20590  0.09835  1.0000
  C   C483      1.0  0.73564  0.19561  0.08658  1.0000
  C   C484      1.0  0.74158  0.18097  0.06811  1.0000
  C   C485      1.0  0.77013  0.17662  0.06148  1.0000
  H   H813      1.0  0.80502  0.20858  0.10181  1.0000
  H   H814      1.0  0.75462  0.21713  0.11263  1.0000
  H   H815      1.0  0.72392  0.17289  0.05886  1.0000
  H   H816      1.0  0.77423  0.16529  0.04727  1.0000
  H   H817      1.0  0.77083  0.09369  0.05842  1.0000
  H   H818      1.0  0.73562  0.24522  0.40973  1.0000
  C   C486      1.0  0.67682  0.25195  0.05283  1.0000
  H   H819      1.0  0.76548  0.15042  0.10964  1.0000
  C   C487      1.0  0.64925  0.24471  0.03958  1.0000
  S   S152      1.0  0.94076  0.12842  0.48049  1.0000
  H   H820      1.0  0.70392  0.21394  0.04590  1.0000
  H   H821      1.0  0.67301  0.26930  0.05951  1.0000
  H   H822      1.0  0.67823  0.24077  0.06877  1.0000
  C   C488      1.0  0.73089  0.27936  0.06650  1.0000
  C   C489      1.0  0.80533  0.08954  0.11440  1.0000
  C   C490      1.0  0.67197  0.32348  0.07547  1.0000
  H   H823      1.0  0.57217  0.20059  0.26508  1.0000
  C   C491      1.0  0.53743  0.24973  0.13513  1.0000
  N   N35       1.0  0.70439  0.25085  0.03930  1.0000
  N   N36       1.0  0.58879  0.21758  0.23376  1.0000
  C   C492      1.0  0.57860  0.21808  0.25864  1.0000
  C   C493      1.0  0.56326  0.21100  0.21880  1.0000
  C   C494      1.0  0.59934  0.24150  0.22708  1.0000
  C   C495      1.0  0.61284  0.20048  0.23275  1.0000
  C   C496      1.0  0.60057  0.22717  0.27673  1.0000
  S   S153      1.0  0.95553  0.16143  0.00769  1.0000
  C   C497      1.0  0.60054  0.24799  0.20094  1.0000
  C   C498      1.0  0.62432  0.19472  0.20853  1.0000
  H   H824      1.0  0.78860  0.06716  0.45980  1.0000
  H   H825      1.0  0.53748  0.31543  0.40529  1.0000
  H   H826      1.0  0.63244  0.17684  0.20897  1.0000
  H   H827      1.0  0.73993  0.10361  0.39850  1.0000
  H   H828      1.0  0.58554  0.25476  0.23490  1.0000
  H   H829      1.0  0.62127  0.24452  0.23427  1.0000
  H   H830      1.0  0.63191  0.20670  0.24273  1.0000
  H   H831      1.0  0.60712  0.18401  0.24197  1.0000
  H   H832      1.0  0.61971  0.21606  0.27849  1.0000
  H   H833      1.0  0.60750  0.24518  0.27298  1.0000
  H   H834      1.0  0.59028  0.22708  0.29412  1.0000
  C   C499      1.0  0.97315  0.14456  0.48327  1.0000
  H   H835      1.0  0.51377  0.25287  0.19623  1.0000
  N   N37       1.0  0.73613  0.30600  0.29406  1.0000
  H   H836      1.0  0.61138  0.26505  0.19884  1.0000
  H   H837      1.0  0.57868  0.24979  0.19319  1.0000
  H   H838      1.0  0.61303  0.23582  0.19079  1.0000
  H   H839      1.0  0.64241  0.20646  0.20364  1.0000
  H   H840      1.0  0.60794  0.19503  0.19449  1.0000
  N   N38       1.0  0.95984  0.07268  0.99761  1.0000
  H   H841      1.0  0.56827  0.21196  0.20000  1.0000
  H   H842      1.0  0.77243  0.06377  0.12311  1.0000
  H   H843      1.0  0.82400  0.10610  0.05842  1.0000
  H   H844      1.0  0.87333  0.09692  0.08406  1.0000
  H   H845      1.0  0.92261  0.23389  0.01663  1.0000
  C   C500      1.0  0.73759  0.12852  0.48296  1.0000
  C   C501      1.0  0.54527  0.28969  0.05816  1.0000
  H   H846      1.0  0.56679  0.17317  0.22106  1.0000
  H   H847      1.0  0.72985  0.24248  0.06995  1.0000
  H   H848      1.0  0.93354  0.25486  0.99530  1.0000
  H   H849      1.0  0.72175  0.29767  0.24518  1.0000
  H   H850      1.0  0.61351  0.32274  0.03953  1.0000
  C   C502      1.0  0.70703  0.22645  0.03116  1.0000
  H   H851      1.0  0.81221  0.09703  0.13126  1.0000
  H   H852      1.0  0.73541  0.29315  0.05335  1.0000
  H   H853      1.0  0.75495  0.26729  0.37642  1.0000
  H   H854      1.0  0.71891  0.30354  0.42466  1.0000
  C   C503      1.0  0.81567  0.09395  0.07213  1.0000
  H   H855      1.0  0.76813  0.11751  0.08702  1.0000
  C   C504      1.0  0.55055  0.18671  0.22337  1.0000
  H   H856      1.0  0.75351  0.21894  0.03220  1.0000
  C   C505      1.0  0.73560  0.22047  0.01935  1.0000
  H   H857      1.0  0.95890  0.23396  0.00709  1.0000
  C   C506      1.0  0.72948  0.25554  0.05544  1.0000
  H   H858      1.0  0.54562  0.22356  0.22083  1.0000
  C   C507      1.0  0.69051  0.32694  0.30719  1.0000
  C   C508      1.0  0.78893  0.08186  0.06189  1.0000
  H   H859      1.0  0.79517  0.13590  0.07615  1.0000
  C   C509      1.0  0.51166  0.22150  0.37954  1.0000
  H   H860      1.0  0.71961  0.26214  0.46877  1.0000
  H   H861      1.0  0.65983  0.31765  0.40601  1.0000
  C   C510      1.0  0.86715  0.10313  0.10139  1.0000
  C   C511      1.0  0.77341  0.08220  0.11756  1.0000
  H   H862      1.0  0.72275  0.13083  0.39811  1.0000
  N   N39       1.0  0.75189  0.10361  0.44815  1.0000
  C   C512      1.0  0.74933  0.07891  0.44086  1.0000
  C   C513      1.0  0.73234  0.11833  0.43308  1.0000
  C   C514      1.0  0.78248  0.11272  0.44751  1.0000
  C   C515      1.0  0.76621  0.06142  0.45617  1.0000
  C   C516      1.0  0.73962  0.12044  0.40708  1.0000
  C   C517      1.0  0.80164  0.10462  0.42745  1.0000
  H   H863      1.0  0.75617  0.07662  0.42271  1.0000
  H   H864      1.0  0.72634  0.07318  0.44091  1.0000
  H   H865      1.0  0.70963  0.11208  0.43450  1.0000
  H   H866      1.0  0.73245  0.13638  0.43899  1.0000
  H   H867      1.0  0.78277  0.13185  0.44705  1.0000
  H   H868      1.0  0.79406  0.10764  0.46382  1.0000
  C   C518      1.0  0.73100  0.30742  0.46055  1.0000
  C   C519      1.0  0.74107  0.10440  0.47284  1.0000
  H   H869      1.0  0.74795  0.30256  0.47336  1.0000
  H   H870      1.0  0.00543  0.19479  0.46533  1.0000
  H   H871      1.0  0.95882  0.08749  0.04518  1.0000
  H   H872      1.0  0.98037  0.10590  0.00244  1.0000
  H   H873      1.0  0.81648  0.11889  0.42220  1.0000
  H   H874      1.0  0.79018  0.09963  0.41144  1.0000
  H   H875      1.0  0.81588  0.09049  0.43357  1.0000
  H   H876      1.0  0.75651  0.28703  0.23910  1.0000
  H   H877      1.0  0.68056  0.31498  0.09092  1.0000
  H   H878      1.0  0.74205  0.31876  0.32899  1.0000
  C   C520      1.0  0.73638  0.29742  0.43642  1.0000
  C   C521      1.0  0.72691  0.28298  0.30432  1.0000
  H   H879      1.0  0.66750  0.28986  0.01450  1.0000
  H   H880      1.0  0.53399  0.25893  0.07973  1.0000
  H   H881      1.0  0.71523  0.26987  0.40339  1.0000
  C   C522      1.0  0.75111  0.26539  0.30868  1.0000
  C   C523      1.0  0.70960  0.31924  0.28708  1.0000
  C   C524      1.0  0.75964  0.27363  0.39413  1.0000
  C   C525      1.0  0.93643  0.23673  0.00114  1.0000
  H   H882      1.0  0.93096  0.05652  0.02298  1.0000
  C   C526      1.0  0.75363  0.31849  0.31213  1.0000
  C   C527      1.0  0.86736  0.02723  0.02547  1.0000
  H   H883      1.0  0.71617  0.28516  0.32130  1.0000
  H   H884      1.0  0.56151  0.32596  0.02824  1.0000
  H   H885      1.0  0.52540  0.31125  0.10096  1.0000
  S   S154      1.0  0.86153  0.07392  0.03050  1.0000
  N   N40       1.0  0.73936  0.27162  0.43570  1.0000
  H   H886      1.0  0.75968  0.32025  0.26464  1.0000
  H   H887      1.0  0.68236  0.28089  0.43266  1.0000
  H   H888      1.0  0.73114  0.32652  0.45892  1.0000
  H   H889      1.0  0.67539  0.25057  0.43293  1.0000
  H   H890      1.0  0.64748  0.22569  0.03870  1.0000
  H   H891      1.0  0.76294  0.22855  0.45486  1.0000
  H   H892      1.0  0.76161  0.26040  0.29238  1.0000
  H   H893      1.0  0.74158  0.24929  0.31620  1.0000
  H   H894      1.0  0.57349  0.31841  0.10111  1.0000
  H   H895      1.0  0.77550  0.29553  0.27747  1.0000
  H   H896      1.0  0.75521  0.05789  0.47295  1.0000
  H   H897      1.0  0.76728  0.04477  0.44716  1.0000
  H   H898      1.0  0.51109  0.20860  0.39340  1.0000
  S   S155      1.0  0.81358  0.15476  0.48992  1.0000
  H   H899      1.0  0.78324  0.13053  0.12898  1.0000
  H   H900      1.0  0.71138  0.28322  0.07647  1.0000
  C   C528      1.0  0.84024  0.11843  0.09991  1.0000
  H   H901      1.0  0.69537  0.30877  0.27567  1.0000
  H   H902      1.0  0.83193  0.08017  0.07414  1.0000
  H   H903      1.0  0.76754  0.27162  0.32119  1.0000
  H   H904      1.0  0.68973  0.22226  0.01837  1.0000
  C   C529      1.0  0.78544  0.14034  0.11236  1.0000
  H   H905      1.0  0.78587  0.27603  0.43741  1.0000
  C   C530      1.0  0.93913  0.09060  0.03465  1.0000
  C   C531      1.0  0.78962  0.12465  0.09141  1.0000
  H   H906      1.0  0.75031  0.25399  0.04631  1.0000
  H   H907      1.0  0.73422  0.27129  0.25901  1.0000
  H   H908      1.0  0.95731  0.17557  0.46685  1.0000
  H   H909      1.0  0.72737  0.27032  0.01259  1.0000
  H   H910      1.0  0.83937  0.12729  0.11682  1.0000
  H   H911      1.0  0.81809  0.07358  0.11274  1.0000
  C   C532      1.0  0.68497  0.26481  0.44307  1.0000
  H   H912      1.0  0.57113  0.26186  0.07285  1.0000
  H   H913      1.0  0.71841  0.24033  0.44824  1.0000
  H   H914      1.0  0.88567  0.11360  0.10774  1.0000
  H   H915      1.0  0.80336  0.15306  0.11380  1.0000
  H   H916      1.0  0.00483  0.10240  0.45807  1.0000
  H   H917      1.0  0.69359  0.25875  0.00339  1.0000
  H   H918      1.0  0.93887  0.10868  0.02812  1.0000
  H   H919      1.0  0.54068  0.18488  0.24079  1.0000
  H   H920      1.0  0.76973  0.26969  0.46448  1.0000
  C   C533      1.0  0.51331  0.25502  0.34412  1.0000
  C   C534      1.0  0.86388  0.04860  0.01383  1.0000
  H   H921      1.0  0.75583  0.09504  0.48502  1.0000
  H   H922      1.0  0.70953  0.30227  0.46732  1.0000
  H   H923      1.0  0.78137  0.26746  0.39905  1.0000
  C   C535      1.0  0.98578  0.11454  0.41245  1.0000
  H   H924      1.0  0.97238  0.11115  0.39678  1.0000
  H   H925      1.0  0.92064  0.08846  0.04664  1.0000
  H   H926      1.0  0.75602  0.30628  0.42952  1.0000
  C   C536      1.0  0.98528  0.06226  0.01025  1.0000
  H   H927      1.0  0.64806  0.25243  0.02182  1.0000
  H   H928      1.0  0.68242  0.31215  0.31775  1.0000
  C   C537      1.0  0.86866  0.00661  0.01305  1.0000
  H   H929      1.0  0.71774  0.13689  0.47626  1.0000
  C   C538      1.0  0.51740  0.32251  0.04264  1.0000
  C   C539      1.0  0.74058  0.28891  0.25318  1.0000
  H   H930      1.0  0.54065  0.28673  0.41825  1.0000
  H   H931      1.0  0.91501  0.07849  0.00534  1.0000
  H   H932      1.0  0.75637  0.13983  0.47938  1.0000
  H   H933      1.0  0.97913  0.04621  0.02004  1.0000
  C   C540      1.0  0.53062  0.32121  0.08472  1.0000
  H   H934      1.0  0.77664  0.32938  0.02412  1.0000
  H   H935      1.0  0.98738  0.13349  0.41397  1.0000
  H   H936      1.0  0.74149  0.23301  0.00532  1.0000
  C   C541      1.0  0.55179  0.27169  0.07760  1.0000
  H   H937      1.0  0.77393  0.30924  0.31615  1.0000
  H   H938      1.0  0.51003  0.25192  0.42184  1.0000
  H   H939      1.0  0.51059  0.27848  0.12591  1.0000
  H   H940      1.0  0.53873  0.28007  0.04239  1.0000
  C   C542      1.0  0.63409  0.32801  0.04667  1.0000
  C   C543      1.0  0.51241  0.21345  0.14134  1.0000
  H   H941      1.0  0.55668  0.27976  0.09444  1.0000
  H   H942      1.0  0.51289  0.19528  0.14578  1.0000
  C   C544      1.0  0.00328  0.17780  0.47326  1.0000
  C   C545      1.0  0.51102  0.26024  0.12985  1.0000
  N   N41       1.0  0.52280  0.30719  0.06376  1.0000
  C   C546      1.0  0.67588  0.33129  0.40600  1.0000
  H   H943      1.0  0.92433  0.03094  0.99593  1.0000
  C   C547      1.0  0.83945  0.28665  0.75744  1.0000
  S   S156      1.0  0.84124  0.16643  0.95006  1.0000
  C   C548      1.0  0.77257  0.32067  0.80249  1.0000
  S   S157      1.0  0.84759  0.20787  0.52162  1.0000
  H   H944      1.0  0.98033  0.26049  0.81194  1.0000
  Fe  Fe78      1.0  0.86039  0.30242  0.83944  1.0000
  S   S158      1.0  0.84309  0.28803  0.80528  1.0000
  Fe  Fe79      1.0  0.87176  0.29151  0.89115  1.0000
  H   H945      1.0  0.98321  0.20525  0.92788  1.0000
  S   S159      1.0  0.87021  0.27126  0.92546  1.0000
  C   C549      1.0  0.78542  0.32848  0.95085  1.0000
  S   S160      1.0  0.83259  0.30395  0.87156  1.0000
  S   S161      1.0  0.89795  0.28643  0.85887  1.0000
  Fe  Fe80      1.0  0.84022  0.27734  0.62983  1.0000
  S   S162      1.0  0.86232  0.29685  0.60103  1.0000
  S   S163      1.0  0.82473  0.24075  0.62384  1.0000
  Fe  Fe81      1.0  0.85418  0.31448  0.66563  1.0000
  H   H946      1.0  0.53844  0.32116  0.53800  1.0000
  Fe  Fe82      1.0  0.89752  0.30367  0.62713  1.0000
  H   H947      1.0  0.95158  0.24434  0.53953  1.0000
  S   S164      1.0  0.81530  0.30770  0.64254  1.0000
  S   S165      1.0  0.87646  0.28233  0.65540  1.0000
  C   C550      1.0  0.99375  0.21257  0.94335  1.0000
  C   C551      1.0  0.84854  0.29953  0.77664  1.0000
  H   H948      1.0  0.96142  0.02358  0.99040  1.0000
  H   H949      1.0  0.85792  0.05897  0.49574  1.0000
  H   H950      1.0  0.97514  0.19819  0.97494  1.0000
  C   C552      1.0  0.84239  0.29544  0.73446  1.0000
  C   C553      1.0  0.94018  0.31136  0.68242  1.0000
  C   C554      1.0  0.79191  0.02257  0.51614  1.0000
  C   C555      1.0  0.86610  0.00710  0.98879  1.0000
  H   H951      1.0  0.97435  0.30415  0.89277  1.0000
  H   H952      1.0  0.73552  0.12688  0.50217  1.0000
  C   C556      1.0  0.97777  0.30424  0.62167  1.0000
  Fe  Fe83      1.0  0.91315  0.32291  0.86346  1.0000
  H   H953      1.0  0.91450  0.21670  0.62793  1.0000
  C   C557      1.0  0.83630  0.21548  0.54959  1.0000
  C   C558      1.0  0.83211  0.23886  0.55367  1.0000
  C   C559      1.0  0.82747  0.24654  0.57624  1.0000
  C   C560      1.0  0.82729  0.23094  0.59508  1.0000
  C   C561      1.0  0.83013  0.20735  0.59094  1.0000
  C   C562      1.0  0.83463  0.19958  0.56822  1.0000
  H   H954      1.0  0.83310  0.25124  0.53934  1.0000
  H   H955      1.0  0.82425  0.26461  0.57906  1.0000
  H   H956      1.0  0.82967  0.19514  0.60543  1.0000
  H   H957      1.0  0.83792  0.18152  0.56526  1.0000
  H   H958      1.0  0.00365  0.22954  0.93870  1.0000
  C   C563      1.0  0.86206  0.04917  0.98953  1.0000
  C   C564      1.0  0.99384  0.31110  0.88503  1.0000
  H   H959      1.0  0.78990  0.31515  0.79069  1.0000
  C   C565      1.0  0.84660  0.19594  0.94283  1.0000
  C   C566      1.0  0.84885  0.21229  0.96018  1.0000
  C   C567      1.0  0.85504  0.23541  0.95433  1.0000
  C   C568      1.0  0.85892  0.24253  0.93108  1.0000
  C   C569      1.0  0.85565  0.22641  0.91354  1.0000
  C   C570      1.0  0.84941  0.20317  0.91943  1.0000
  H   H960      1.0  0.84581  0.20716  0.97815  1.0000
  H   H961      1.0  0.85726  0.24781  0.96797  1.0000
  H   H962      1.0  0.85854  0.23171  0.89554  1.0000
  H   H963      1.0  0.84739  0.19067  0.90586  1.0000
  H   H964      1.0  0.96449  0.24264  0.91718  1.0000
  H   H965      1.0  0.94520  0.26870  0.92035  1.0000
  H   H966      1.0  0.56569  0.29436  0.58150  1.0000
  C   C571      1.0  0.57909  0.32932  0.57218  1.0000
  H   H967      1.0  0.93278  0.27790  0.70021  1.0000
  H   H968      1.0  0.89629  0.20614  0.60288  1.0000
  H   H969      1.0  0.77321  0.01273  0.52173  1.0000
  H   H970      1.0  0.66339  0.32489  0.54692  1.0000
  H   H971      1.0  0.92560  0.24306  0.91433  1.0000
  H   H972      1.0  0.63264  0.30634  0.54895  1.0000
  C   C572      1.0  0.86059  0.32142  0.77258  1.0000
  H   H973      1.0  0.97015  0.28354  0.69272  1.0000
  H   H974      1.0  0.75203  0.31838  0.79257  1.0000
  H   H975      1.0  0.77165  0.05496  0.52167  1.0000
  C   C573      1.0  0.95499  0.24219  0.55864  1.0000
  H   H976      1.0  0.94505  0.30240  0.72922  1.0000
  H   H977      1.0  0.97727  0.26224  0.58578  1.0000
  H   H978      1.0  0.78303  0.99932  0.94747  1.0000
  C   C574      1.0  0.64008  0.32340  0.54252  1.0000
  H   H979      1.0  0.58324  0.29575  0.55463  1.0000
  H   H980      1.0  0.98911  0.25138  0.84157  1.0000
  H   H981      1.0  0.92017  0.27434  0.53693  1.0000
  H   H982      1.0  0.94420  0.27618  0.67086  1.0000
  H   H983      1.0  0.77345  0.28524  0.81542  1.0000
  H   H984      1.0  0.83534  0.28528  0.71990  1.0000
  H   H985      1.0  0.89098  0.23532  0.61218  1.0000
  C   C575      1.0  0.99197  0.32675  0.86622  1.0000
  H   H986      1.0  0.83006  0.26971  0.76034  1.0000
  C   C576      1.0  0.97124  0.26379  0.56715  1.0000
  H   H987      1.0  0.99556  0.11632  0.49983  1.0000
  H   H988      1.0  0.97026  0.22772  0.56086  1.0000
  N   N42       1.0  0.92697  0.23652  0.57060  1.0000
  C   C577      1.0  0.91242  0.21699  0.55814  1.0000
  C   C578      1.0  0.90719  0.25685  0.56995  1.0000
  C   C579      1.0  0.93314  0.23000  0.59568  1.0000
  Fe  Fe84      1.0  0.85174  0.17275  0.50570  1.0000
  C   C580      1.0  0.92782  0.19366  0.55941  1.0000
  C   C581      1.0  0.90063  0.26749  0.54567  1.0000
  C   C582      1.0  0.90701  0.22156  0.61011  1.0000
  H   H989      1.0  0.72727  0.32257  0.97788  1.0000
  H   H990      1.0  0.89037  0.21407  0.56478  1.0000
  H   H991      1.0  0.90954  0.22126  0.53931  1.0000
  H   H992      1.0  0.91557  0.27079  0.58114  1.0000
  H   H993      1.0  0.88599  0.25201  0.57746  1.0000
  H   H994      1.0  0.95002  0.21664  0.59708  1.0000
  H   H995      1.0  0.94218  0.24492  0.60511  1.0000
  H   H996      1.0  0.63852  0.32439  0.52324  1.0000
  H   H997      1.0  0.91643  0.31231  0.67976  1.0000
  H   H998      1.0  0.94922  0.19454  0.55109  1.0000
  H   H999      1.0  0.92977  0.18675  0.57747  1.0000
  H   H1000     1.0  0.91467  0.18097  0.54960  1.0000
  H   H1001     1.0  0.88921  0.25519  0.53427  1.0000
  H   H1002     1.0  0.88595  0.28222  0.54775  1.0000
  C   C583      1.0  0.86292  0.02852  0.97715  1.0000
  H   H1003     1.0  0.78518  0.00635  0.56773  1.0000
  H   H1004     1.0  0.79094  0.30476  0.83444  1.0000
  C   C584      1.0  0.98174  0.10034  0.96575  1.0000
  C   C585      1.0  0.92704  0.21950  0.98241  1.0000
  S   S166      1.0  0.94316  0.29106  0.62088  1.0000
  H   H1005     1.0  0.99897  0.27160  0.62557  1.0000
  N   N43       1.0  0.94297  0.22110  0.95964  1.0000
  C   C586      1.0  0.94749  0.28586  0.68712  1.0000
  C   C587      1.0  0.92794  0.20504  0.94311  1.0000
  C   C588      1.0  0.94110  0.24565  0.95051  1.0000
  C   C589      1.0  0.97376  0.21447  0.96442  1.0000
  C   C590      1.0  0.79097  0.04664  0.51602  1.0000
  C   C591      1.0  0.92674  0.17944  0.95069  1.0000
  C   C592      1.0  0.98686  0.26634  0.82944  1.0000
  C   C593      1.0  0.96671  0.09702  0.98938  1.0000
  H   H1006     1.0  0.94922  0.31607  0.66523  1.0000
  H   H1007     1.0  0.96890  0.27680  0.83599  1.0000
  H   H1008     1.0  0.93750  0.20575  0.92556  1.0000
  H   H1009     1.0  0.90543  0.21061  0.94016  1.0000
  H   H1010     1.0  0.91971  0.25300  0.95459  1.0000
  H   H1011     1.0  0.95731  0.25683  0.95929  1.0000
  S   S167      1.0  0.81059  0.09049  0.50935  1.0000
  H   H1012     1.0  0.00162  0.09031  0.96440  1.0000
  C   C594      1.0  0.77218  0.30274  0.82268  1.0000
  C   C595      1.0  0.81664  0.01114  0.50928  1.0000
  C   C596      1.0  0.85386  0.31751  0.73044  1.0000
  H   H1013     1.0  0.91697  0.16937  0.93638  1.0000
  H   H1014     1.0  0.94840  0.17241  0.95435  1.0000
  H   H1015     1.0  0.91260  0.17645  0.96591  1.0000
  H   H1016     1.0  0.95875  0.27973  0.56425  1.0000
  C   C597      1.0  0.83950  0.04884  0.50143  1.0000
  S   S168      1.0  0.85749  0.32996  0.70199  1.0000
  H   H1017     1.0  0.90355  0.22178  0.97949  1.0000
  H   H1018     1.0  0.86086  0.02913  0.95839  1.0000
  C   C598      1.0  0.81457  0.06005  0.50871  1.0000
  H   H1019     1.0  0.79416  0.31082  0.95015  1.0000
  H   H1020     1.0  0.85929  0.06543  0.98031  1.0000
  S   S169      1.0  0.87324  0.13962  0.51663  1.0000
  C   C599      1.0  0.99763  0.13357  0.49252  1.0000
  C   C600      1.0  0.58371  0.30312  0.57214  1.0000
  S   S170      1.0  0.88955  0.32720  0.89694  1.0000
  H   H1021     1.0  0.94673  0.10733  0.98774  1.0000
  H   H1022     1.0  0.58977  0.31808  0.52482  1.0000
  H   H1023     1.0  0.60421  0.29855  0.58110  1.0000
  H   H1024     1.0  0.98800  0.11879  0.96351  1.0000
  H   H1025     1.0  0.92975  0.06608  0.96953  1.0000
  C   C601      1.0  0.94946  0.05836  0.97757  1.0000
  H   H1026     1.0  0.96521  0.05819  0.96326  1.0000
  C   C602      1.0  0.94237  0.03291  0.98356  1.0000
  Fe  Fe85      1.0  0.85425  0.15368  0.98622  1.0000
  S   S171      1.0  0.88913  0.12725  0.98924  1.0000
  C   C603      1.0  0.94453  0.24985  0.92407  1.0000
  C   C604      1.0  0.93612  0.31929  0.72350  1.0000
  H   H1027     1.0  0.93523  0.02419  0.96746  1.0000
  H   H1028     1.0  0.54378  0.32729  0.50774  1.0000
  H   H1029     1.0  0.75191  0.30325  0.83267  1.0000
  H   H1030     1.0  0.85983  0.01580  0.49644  1.0000
  Fe  Fe86      1.0  0.83940  0.32765  0.61467  1.0000
  H   H1031     1.0  0.92928  0.20220  0.99074  1.0000
  H   H1032     1.0  0.77213  0.32079  0.98569  1.0000
  C   C605      1.0  0.84059  0.02437  0.50186  1.0000
  H   H1033     1.0  0.91264  0.31610  0.72101  1.0000
  Fe  Fe87      1.0  0.83742  0.12162  0.49713  1.0000
  H   H1034     1.0  0.99155  0.26601  0.55728  1.0000
  H   H1035     1.0  0.98447  0.22725  0.97580  1.0000
  H   H1036     1.0  0.96685  0.09631  0.95115  1.0000
  C   C606      1.0  0.98193  0.32875  0.70439  1.0000
  H   H1037     1.0  0.98897  0.31411  0.71584  1.0000
  H   H1038     1.0  0.76422  0.32820  0.94184  1.0000
  C   C607      1.0  0.86283  0.33044  0.74966  1.0000
  C   C608      1.0  0.98191  0.32805  0.61955  1.0000
  H   H1039     1.0  0.81245  0.00264  0.59011  1.0000
  H   H1040     1.0  0.00051  0.00883  0.55616  1.0000
  H   H1041     1.0  0.99722  0.00520  0.52555  1.0000
  C   C609      1.0  0.00194  0.29004  0.62392  1.0000
  N   N44       1.0  0.94965  0.32774  0.70102  1.0000
  H   H1042     1.0  0.93198  0.32577  0.76040  1.0000
  C   C610      1.0  0.00054  0.32743  0.68232  1.0000
  C   C611      1.0  0.64942  0.34627  0.03592  1.0000
  S   S172      1.0  0.69602  0.37583  0.03125  1.0000
  C   C612      1.0  0.54614  0.65412  0.99440  1.0000
  H   H1043     1.0  0.57028  0.44179  0.03349  1.0000
  H   H1044     1.0  0.77405  0.35100  0.32082  1.0000
  S   S173      1.0  0.65923  0.61702  0.03265  1.0000
  H   H1045     1.0  0.56972  0.42871  0.00581  1.0000
  Fe  Fe88      1.0  0.62576  0.64145  0.01817  1.0000
  C   C613      1.0  0.68753  0.34161  0.06451  1.0000
  Fe  Fe89      1.0  0.68868  0.64797  0.03649  1.0000
  C   C614      1.0  0.53385  0.64907  0.45153  1.0000
  N   N45       1.0  0.90475  0.65901  0.40090  1.0000
  C   C615      1.0  0.56227  0.46614  0.00491  1.0000
  S   S174      1.0  0.64261  0.63781  0.45089  1.0000
  H   H1046     1.0  0.69194  0.54842  0.05755  1.0000
  H   H1047     1.0  0.78904  0.36880  0.01276  1.0000
  H   H1048     1.0  0.77121  0.62179  0.01196  1.0000
  H   H1049     1.0  0.86418  0.65352  0.36032  1.0000
  C   C616      1.0  0.51996  0.58165  0.43905  1.0000
  H   H1050     1.0  0.85626  0.62465  0.43355  1.0000
  H   H1051     1.0  0.53385  0.59544  0.48245  1.0000
  S   S175      1.0  0.69641  0.38969  0.44239  1.0000
  H   H1052     1.0  0.50942  0.60903  0.99358  1.0000
  Fe  Fe90      1.0  0.66122  0.61117  0.47607  1.0000
  H   H1053     1.0  0.64528  0.56185  0.00791  1.0000
  C   C617      1.0  0.73952  0.59973  0.09374  1.0000
  C   C618      1.0  0.92730  0.64076  0.39859  1.0000
  C   C619      1.0  0.50636  0.64420  0.44210  1.0000
  Fe  Fe91      1.0  0.61721  0.64974  0.48145  1.0000
  C   C620      1.0  0.66142  0.54728  0.47876  1.0000
  H   H1054     1.0  0.55462  0.52599  0.47991  1.0000
  C   C621      1.0  0.53841  0.64783  0.47561  1.0000
  C   C622      1.0  0.76763  0.36260  0.00639  1.0000
  C   C623      1.0  0.95324  0.64670  0.38267  1.0000
  H   H1055     1.0  0.75241  0.37673  0.00985  1.0000
  C   C624      1.0  0.67490  0.34876  0.42283  1.0000
  H   H1056     1.0  0.70399  0.59653  0.06967  1.0000
  C   C625      1.0  0.76265  0.34345  0.30568  1.0000
  H   H1057     1.0  0.53647  0.43696  0.01924  1.0000
  H   H1058     1.0  0.74402  0.35461  0.30171  1.0000
  H   H1059     1.0  0.77790  0.34421  0.29097  1.0000
  H   H1060     1.0  0.54912  0.57746  0.04148  1.0000
  H   H1061     1.0  0.54396  0.59744  0.01804  1.0000
  S   S176      1.0  0.71451  0.65550  0.06964  1.0000
  C   C626      1.0  0.65867  0.52676  0.46637  1.0000
  C   C627      1.0  0.55929  0.44193  0.01624  1.0000
  H   H1062     1.0  0.57746  0.58621  0.41766  1.0000
  C   C628      1.0  0.72175  0.56946  0.03600  1.0000
  C   C629      1.0  0.74778  0.60559  0.04073  1.0000
  C   C630      1.0  0.59385  0.58947  0.43134  1.0000
  H   H1063     1.0  0.79055  0.65591  0.40563  1.0000
  C   C631      1.0  0.71725  0.36667  0.40591  1.0000
  H   H1064     1.0  0.75666  0.58911  0.10193  1.0000
  H   H1065     1.0  0.52153  0.59821  0.04362  1.0000
  C   C632      1.0  0.69564  0.36663  0.42268  1.0000
  H   H1066     1.0  0.73333  0.38031  0.40560  1.0000
  C   C633      1.0  0.67620  0.35315  0.04477  1.0000
  C   C634      1.0  0.76747  0.56873  0.05784  1.0000
  C   C635      1.0  0.70987  0.54609  0.04526  1.0000
  N   N46       1.0  0.56397  0.57333  0.46577  1.0000
  H   H1067     1.0  0.74688  0.59972  0.00305  1.0000
  C   C636      1.0  0.72393  0.58681  0.07414  1.0000
  C   C637      1.0  0.79485  0.58203  0.06575  1.0000
  H   H1068     1.0  0.87676  0.64702  0.44648  1.0000
  H   H1069     1.0  0.93606  0.63564  0.41602  1.0000
  C   C638      1.0  0.75929  0.34229  0.02283  1.0000
  H   H1070     1.0  0.72376  0.60324  0.10758  1.0000
  H   H1071     1.0  0.60591  0.60519  0.42569  1.0000
  C   C639      1.0  0.88743  0.65759  0.35812  1.0000
  H   H1072     1.0  0.73327  0.56560  0.01969  1.0000
  C   C640      1.0  0.76256  0.60446  0.01688  1.0000
  H   H1073     1.0  0.77389  0.55929  0.04210  1.0000
  H   H1074     1.0  0.60476  0.56150  0.48012  1.0000
  H   H1075     1.0  0.64042  0.35505  0.02079  1.0000
  C   C641      1.0  0.54183  0.56407  0.44896  1.0000
  N   N47       1.0  0.74097  0.58272  0.05245  1.0000
  H   H1076     1.0  0.97286  0.63863  0.39022  1.0000
  C   C642      1.0  0.87664  0.64764  0.40809  1.0000
  S   S177      1.0  0.63472  0.42498  0.47390  1.0000
  H   H1077     1.0  0.59312  0.54657  0.45556  1.0000
  H   H1078     1.0  0.76146  0.61669  0.05172  1.0000
  H   H1079     1.0  0.70289  0.57994  0.03041  1.0000
  C   C643      1.0  0.58508  0.55451  0.47163  1.0000
  H   H1080     1.0  0.80968  0.58505  0.05093  1.0000
  H   H1081     1.0  0.76267  0.55529  0.07142  1.0000
  H   H1082     1.0  0.91728  0.62488  0.39142  1.0000
  S   S178      1.0  0.70660  0.64557  0.00067  1.0000
  H   H1083     1.0  0.51722  0.33693  0.08514  1.0000
  C   C644      1.0  0.71831  0.34943  0.38941  1.0000
  H   H1084     1.0  0.53630  0.34599  0.01696  1.0000
  C   C645      1.0  0.52216  0.64820  0.03116  1.0000
  H   H1085     1.0  0.52299  0.64346  0.04946  1.0000
  H   H1086     1.0  0.55234  0.55590  0.43399  1.0000
  Fe  Fe92      1.0  0.67034  0.39893  0.47395  1.0000
  H   H1087     1.0  0.95023  0.63895  0.36534  1.0000
  H   H1088     1.0  0.59094  0.52151  0.48932  1.0000
  C   C646      1.0  0.54867  0.58117  0.48708  1.0000
  H   H1089     1.0  0.65805  0.34858  0.43568  1.0000
  S   S179      1.0  0.57977  0.63840  0.03168  1.0000
  H   H1090     1.0  0.89462  0.62265  0.43393  1.0000
  H   H1091     1.0  0.89952  0.64151  0.35607  1.0000
  Fe  Fe93      1.0  0.67927  0.66088  0.46289  1.0000
  C   C647      1.0  0.57382  0.53463  0.48741  1.0000
  S   S180      1.0  0.57031  0.65891  0.48859  1.0000
  H   H1092     1.0  0.70166  0.33924  0.31875  1.0000
  H   H1093     1.0  0.60952  0.57527  0.43206  1.0000
  H   H1094     1.0  0.85909  0.66052  0.40847  1.0000
  H   H1095     1.0  0.74462  0.65308  0.42746  1.0000
  H   H1096     1.0  0.52886  0.55004  0.45737  1.0000
  H   H1097     1.0  0.65667  0.52763  0.44762  1.0000
  C   C648      1.0  0.58032  0.59352  0.45528  1.0000
  H   H1098     1.0  0.65697  0.48948  0.46813  1.0000
  H   H1099     1.0  0.70076  0.53634  0.03046  1.0000
  C   C649      1.0  0.65879  0.50506  0.47797  1.0000
  H   H1100     1.0  0.72672  0.53520  0.05341  1.0000
  S   S181      1.0  0.66087  0.57414  0.46309  1.0000
  H   H1101     1.0  0.79108  0.59844  0.07442  1.0000
  H   H1102     1.0  0.74830  0.61669  0.08801  1.0000
  C   C650      1.0  0.54750  0.64789  0.01802  1.0000
  C   C651      1.0  0.87660  0.63484  0.43192  1.0000
  H   H1103     1.0  0.73527  0.34995  0.37666  1.0000
  C   C652      1.0  0.53237  0.58688  0.03133  1.0000
  H   H1104     1.0  0.72773  0.61560  0.03810  1.0000
  C   C653      1.0  0.54316  0.33669  0.03316  1.0000
  H   H1105     1.0  0.71664  0.57031  0.08238  1.0000
  H   H1106     1.0  0.55013  0.35016  0.04540  1.0000
  H   H1107     1.0  0.80697  0.57108  0.07843  1.0000
  Fe  Fe94      1.0  0.67348  0.39530  0.00182  1.0000
  H   H1108     1.0  0.59822  0.59887  0.46707  1.0000
  H   H1109     1.0  0.70816  0.34695  0.07154  1.0000
  S   S182      1.0  0.69925  0.63367  0.48634  1.0000
  H   H1110     1.0  0.86956  0.63470  0.39522  1.0000
  H   H1111     1.0  0.56653  0.60893  0.45358  1.0000
  H   H1112     1.0  0.62903  0.52116  0.01278  1.0000
  H   H1113     1.0  0.67135  0.33584  0.29985  1.0000
  H   H1114     1.0  0.73876  0.33393  0.01793  1.0000
  C   C654      1.0  0.65550  0.54855  0.99823  1.0000
  C   C655      1.0  0.51162  0.56936  0.02007  1.0000
  H   H1115     1.0  0.78069  0.59231  0.01698  1.0000
  Fe  Fe95      1.0  0.67477  0.61613  0.99585  1.0000
  H   H1116     1.0  0.51333  0.38233  0.99827  1.0000
  H   H1117     1.0  0.55114  0.65483  0.44025  1.0000
  H   H1118     1.0  0.56337  0.34688  0.09366  1.0000
  H   H1119     1.0  0.53040  0.59656  0.43006  1.0000
  S   S183      1.0  0.63499  0.41741  0.00573  1.0000
  H   H1120     1.0  0.55180  0.47845  0.01655  1.0000
  C   C656      1.0  0.64625  0.52541  0.00087  1.0000
  C   C657      1.0  0.51547  0.64086  0.49000  1.0000
  H   H1121     1.0  0.75632  0.34894  0.04060  1.0000
  H   H1122     1.0  0.58558  0.47077  0.00593  1.0000
  H   H1123     1.0  0.50842  0.37921  0.47965  1.0000
  H   H1124     1.0  0.71528  0.33482  0.27638  1.0000
  C   C658      1.0  0.69771  0.33170  0.38918  1.0000
  H   H1125     1.0  0.76530  0.65837  0.03936  1.0000
  H   H1126     1.0  0.52503  0.55924  0.00824  1.0000
  H   H1127     1.0  0.52211  0.46439  0.49169  1.0000
  S   S184      1.0  0.64802  0.37331  0.49742  1.0000
  H   H1128     1.0  0.63301  0.35924  0.54464  1.0000
  C   C659      1.0  0.79349  0.35515  0.76720  1.0000
  H   H1129     1.0  0.77362  0.37980  0.84578  1.0000
  S   S185      1.0  0.65385  0.37581  0.97262  1.0000
  S   S186      1.0  0.82001  0.35351  0.58811  1.0000
  S   S187      1.0  0.63537  0.42531  0.94905  1.0000
  H   H1130     1.0  0.57115  0.60939  0.50464  1.0000
  H   H1131     1.0  0.99033  0.33420  0.66629  1.0000
  H   H1132     1.0  0.71420  0.34855  0.59782  1.0000
  Fe  Fe96      1.0  0.67506  0.40266  0.94945  1.0000
  S   S188      1.0  0.69595  0.38591  0.91803  1.0000
  S   S189      1.0  0.63396  0.62212  0.50561  1.0000
  H   H1133     1.0  0.52284  0.43858  0.98019  1.0000
  C   C660      1.0  0.78218  0.42716  0.57460  1.0000
  H   H1134     1.0  0.80988  0.37519  0.97536  1.0000
  C   C661      1.0  0.56798  0.59050  0.50681  1.0000
  Fe  Fe97      1.0  0.66971  0.64705  0.51377  1.0000
  H   H1135     1.0  0.79319  0.41342  0.96403  1.0000
  C   C662      1.0  0.65915  0.50777  0.98839  1.0000
  S   S190      1.0  0.63325  0.41625  0.53066  1.0000
  H   H1136     1.0  0.96352  0.33916  0.61748  1.0000
  C   C663      1.0  0.76032  0.34959  0.59341  1.0000
  H   H1137     1.0  0.53798  0.35048  0.52649  1.0000
  H   H1138     1.0  0.77490  0.34073  0.88625  1.0000
  Fe  Fe98      1.0  0.67023  0.39186  0.52672  1.0000
  S   S191      1.0  0.68872  0.37375  0.55937  1.0000
  H   H1139     1.0  0.53889  0.49622  0.95630  1.0000
  H   H1140     1.0  0.71877  0.45200  0.53113  1.0000
  C   C664      1.0  0.66422  0.52414  0.51460  1.0000
  C   C665      1.0  0.51973  0.66083  0.98416  1.0000
  C   C666      1.0  0.78306  0.33536  0.97653  1.0000
  C   C667      1.0  0.76918  0.35688  0.89379  1.0000
  C   C668      1.0  0.78325  0.35749  0.57965  1.0000
  H   H1141     1.0  0.55803  0.36874  0.55540  1.0000
  C   C669      1.0  0.77258  0.35988  0.78719  1.0000
  C   C670      1.0  0.72534  0.36713  0.56621  1.0000
  C   C671      1.0  0.74822  0.37469  0.55220  1.0000
  C   C672      1.0  0.77694  0.37001  0.55897  1.0000
  S   S192      1.0  0.69114  0.58322  0.97959  1.0000
  H   H1142     1.0  0.74386  0.38426  0.53623  1.0000
  H   H1143     1.0  0.79444  0.37615  0.54812  1.0000
  H   H1144     1.0  0.58817  0.37833  0.53890  1.0000
  C   C673      1.0  0.57204  0.45682  0.96457  1.0000
  H   H1145     1.0  0.51873  0.63985  0.50865  1.0000
  N   N48       1.0  0.77699  0.34550  0.80910  1.0000
  C   C674      1.0  0.73966  0.44783  0.53974  1.0000
  H   H1146     1.0  0.74376  0.49330  0.59979  1.0000
  H   H1147     1.0  0.77400  0.37853  0.79035  1.0000
  C   C675      1.0  0.68598  0.43854  0.57146  1.0000
  C   C676      1.0  0.79024  0.37406  0.89649  1.0000
  C   C677      1.0  0.78229  0.39496  0.90633  1.0000
  C   C678      1.0  0.75381  0.39862  0.91360  1.0000
  C   C679      1.0  0.73260  0.38165  0.91048  1.0000
  C   C680      1.0  0.74047  0.36083  0.90038  1.0000
  H   H1148     1.0  0.92624  0.35066  0.74255  1.0000
  H   H1149     1.0  0.79831  0.40846  0.90834  1.0000
  H   H1150     1.0  0.74808  0.41486  0.92097  1.0000
  H   H1151     1.0  0.51403  0.45942  0.95919  1.0000
  C   C681      1.0  0.52197  0.45749  0.97741  1.0000
  C   C682      1.0  0.53612  0.40464  0.94642  1.0000
  C   C683      1.0  0.53778  0.39422  0.96856  1.0000
  H   H1152     1.0  0.78254  0.46428  0.57008  1.0000
  H   H1153     1.0  0.55549  0.40722  0.93635  1.0000
  H   H1154     1.0  0.96979  0.36771  0.67215  1.0000
  H   H1155     1.0  0.75980  0.48006  0.52603  1.0000
  C   C684      1.0  0.73162  0.35451  0.58680  1.0000
  H   H1156     1.0  0.66591  0.56143  0.51283  1.0000
  C   C685      1.0  0.53343  0.40739  0.52693  1.0000
  C   C686      1.0  0.53417  0.39569  0.50597  1.0000
  H   H1157     1.0  0.70885  0.54097  0.95937  1.0000
  H   H1158     1.0  0.55329  0.41323  0.53492  1.0000
  S   S193      1.0  0.95857  0.33497  0.85358  1.0000
  C   C687      1.0  0.50809  0.38835  0.49581  1.0000
  H   H1159     1.0  0.57100  0.47878  0.93259  1.0000
  H   H1160     1.0  0.58322  0.45030  0.92876  1.0000
  Fe  Fe99      1.0  0.65586  0.44240  0.98028  1.0000
  C   C688      1.0  0.58143  0.33525  0.52889  1.0000
  C   C689      1.0  0.68186  0.51357  0.97348  1.0000
  H   H1161     1.0  0.87158  0.34759  0.74679  1.0000
  C   C690      1.0  0.78707  0.37656  0.96933  1.0000
  H   H1162     1.0  0.50647  0.41993  0.55418  1.0000
  C   C691      1.0  0.69130  0.53671  0.97100  1.0000
  H   H1163     1.0  0.54578  0.45471  0.93221  1.0000
  H   H1164     1.0  0.59370  0.50097  0.96253  1.0000
  H   H1165     1.0  0.72423  0.34761  0.89778  1.0000
  C   C692      1.0  0.57736  0.50765  0.97446  1.0000
  H   H1166     1.0  0.57157  0.43792  0.96794  1.0000
  C   C693      1.0  0.50923  0.41132  0.93710  1.0000
  H   H1167     1.0  0.76088  0.45631  0.50718  1.0000
  H   H1168     1.0  0.57325  0.52574  0.96890  1.0000
  S   S194      1.0  0.63983  0.63922  0.98096  1.0000
  H   H1169     1.0  0.94129  0.35209  0.65684  1.0000
  C   C694      1.0  0.77781  0.40159  0.97314  1.0000
  S   S195      1.0  0.66320  0.47674  0.51779  1.0000
  C   C695      1.0  0.50685  0.41117  0.53781  1.0000
  C   C696      1.0  0.76754  0.45066  0.57679  1.0000
  S   S196      1.0  0.69668  0.42142  0.97897  1.0000
  H   H1170     1.0  0.74005  0.36095  0.95074  1.0000
  H   H1171     1.0  0.70572  0.49679  0.59394  1.0000
  C   C697      1.0  0.54886  0.49376  0.97384  1.0000
  N   N49       1.0  0.59173  0.34334  0.55232  1.0000
  H   H1172     1.0  0.66652  0.52328  0.53333  1.0000
  H   H1173     1.0  0.74307  0.48943  0.56005  1.0000
  C   C698      1.0  0.58189  0.36785  0.55454  1.0000
  C   C699      1.0  0.75403  0.37591  0.83535  1.0000
  C   C700      1.0  0.59348  0.38088  0.57587  1.0000
  H   H1174     1.0  0.98843  0.34467  0.71357  1.0000
  C   C701      1.0  0.62424  0.34351  0.55356  1.0000
  H   H1175     1.0  0.51260  0.58493  0.97632  1.0000
  S   S197      1.0  0.67743  0.65331  0.55204  1.0000
  H   H1176     1.0  0.61729  0.38263  0.57593  1.0000
  C   C702      1.0  0.94669  0.36270  0.67205  1.0000
  H   H1177     1.0  0.55562  0.33246  0.57401  1.0000
  H   H1178     1.0  0.79082  0.36851  0.75325  1.0000
  H   H1179     1.0  0.72119  0.43413  0.59578  1.0000
  H   H1180     1.0  0.53407  0.50233  0.98591  1.0000
  H   H1181     1.0  0.58615  0.37289  0.59250  1.0000
  H   H1182     1.0  0.67367  0.42335  0.57828  1.0000
  C   C703      1.0  0.72779  0.47677  0.56810  1.0000
  H   H1183     1.0  0.94425  0.36377  0.70880  1.0000
  H   H1184     1.0  0.58830  0.33507  0.58903  1.0000
  H   H1185     1.0  0.81627  0.35577  0.77294  1.0000
  S   S198      1.0  0.87679  0.33859  0.84244  1.0000
  H   H1186     1.0  0.80387  0.42792  0.58287  1.0000
  C   C704      1.0  0.76283  0.46121  0.52570  1.0000
  C   C705      1.0  0.67812  0.55437  0.98322  1.0000
  N   N50       1.0  0.55124  0.46859  0.98021  1.0000
  H   H1187     1.0  0.56917  0.54051  0.50517  1.0000
  H   H1188     1.0  0.58491  0.39864  0.57512  1.0000
  C   C706      1.0  0.56731  0.46061  0.93814  1.0000
  C   C707      1.0  0.73891  0.35924  0.96992  1.0000
  H   H1189     1.0  0.80067  0.33977  0.94099  1.0000
  N   N51       1.0  0.76859  0.35797  0.98067  1.0000
  C   C708      1.0  0.72390  0.48459  0.59336  1.0000
  H   H1190     1.0  0.72328  0.41746  0.57086  1.0000
  H   H1191     1.0  0.76608  0.45375  0.59577  1.0000
  Fe  Fe100     1.0  0.85142  0.33929  0.87575  1.0000
  H   H1192     1.0  0.78496  0.45681  0.53143  1.0000
  S   S199      1.0  0.82640  0.37081  0.88718  1.0000
  H   H1193     1.0  0.75098  0.38896  0.82125  1.0000
  H   H1194     1.0  0.63199  0.34446  0.57192  1.0000
  H   H1195     1.0  0.68154  0.43999  0.55257  1.0000
  H   H1196     1.0  0.75631  0.40510  0.96547  1.0000
  H   H1197     1.0  0.76999  0.41325  0.58386  1.0000
  H   H1198     1.0  0.78760  0.37461  0.95018  1.0000
  H   H1199     1.0  0.78529  0.42241  0.55626  1.0000
  N   N52       1.0  0.73835  0.45261  0.56537  1.0000
  H   H1200     1.0  0.93451  0.37890  0.66957  1.0000
  S   S200      1.0  0.69478  0.41593  0.50315  1.0000
  H   H1201     1.0  0.70741  0.47985  0.55816  1.0000
  H   H1202     1.0  0.59463  0.46208  0.96848  1.0000
  H   H1203     1.0  0.83762  0.37405  0.80578  1.0000
  H   H1204     1.0  0.80528  0.38708  0.81622  1.0000
  H   H1205     1.0  0.55764  0.58683  0.52384  1.0000
  H   H1206     1.0  0.71834  0.47038  0.60568  1.0000
  H   H1207     1.0  0.83123  0.37590  0.83589  1.0000
  H   H1208     1.0  0.67762  0.45390  0.58008  1.0000
  C   C709      1.0  0.71824  0.43510  0.57657  1.0000
  Fe  Fe101     1.0  0.61635  0.39966  0.97475  1.0000
  C   C710      1.0  0.82033  0.37277  0.81897  1.0000
  H   H1209     1.0  0.74291  0.42920  0.53674  1.0000
  S   S201      1.0  0.57092  0.38541  0.98118  1.0000
  H   H1210     1.0  0.69207  0.50029  0.96377  1.0000
  H   H1211     1.0  0.75031  0.35726  0.78026  1.0000
  Fe  Fe102     1.0  0.61334  0.40010  0.49923  1.0000
  C   C711      1.0  0.66389  0.54584  0.50301  1.0000
  Fe  Fe103     1.0  0.65703  0.43975  0.50528  1.0000
  H   H1212     1.0  0.72802  0.37525  0.97499  1.0000
  C   C712      1.0  0.80673  0.34826  0.81958  1.0000
  C   C713      1.0  0.66182  0.50360  0.50218  1.0000
  S   S202      1.0  0.87714  0.33642  0.63838  1.0000
  H   H1213     1.0  0.59012  0.34681  0.51480  1.0000
  H   H1214     1.0  0.73563  0.37763  0.84737  1.0000
  H   H1215     1.0  0.58936  0.58244  0.50801  1.0000
  C   C714      1.0  0.93775  0.35126  0.69535  1.0000
  H   H1216     1.0  0.91375  0.35060  0.69542  1.0000
  C   C715      1.0  0.51230  0.39045  0.98118  1.0000
  H   H1217     1.0  0.56539  0.65349  0.98406  1.0000
  C   C716      1.0  0.75420  0.35111  0.82653  1.0000
  S   S203      1.0  0.56691  0.38830  0.49252  1.0000
  H   H1218     1.0  0.73236  0.34729  0.81930  1.0000
  H   H1219     1.0  0.53406  0.56756  0.49437  1.0000
  H   H1220     1.0  0.76472  0.34001  0.60938  1.0000
  H   H1221     1.0  0.70448  0.34359  0.99110  1.0000
  C   C717      1.0  0.54849  0.33356  0.52549  1.0000
  H   H1222     1.0  0.80694  0.34203  0.83805  1.0000
  C   C718      1.0  0.71738  0.33959  0.97559  1.0000
  H   H1223     1.0  0.96250  0.34015  0.74765  1.0000
  H   H1224     1.0  0.80527  0.33558  0.98404  1.0000
  H   H1225     1.0  0.50810  0.41919  0.91989  1.0000
  H   H1226     1.0  0.82217  0.33712  0.81055  1.0000
  C   C719      1.0  0.93973  0.33512  0.74452  1.0000
  H   H1227     1.0  0.70228  0.33772  0.96061  1.0000
  H   H1228     1.0  0.78887  0.33834  0.75910  1.0000
  H   H1229     1.0  0.77821  0.40615  0.99174  1.0000
  H   H1230     1.0  0.75648  0.34018  0.84257  1.0000
  H   H1231     1.0  0.86776  0.33157  0.78709  1.0000
  H   H1232     1.0  0.58652  0.50806  0.99230  1.0000
  S   S204      1.0  0.64546  0.47906  0.99189  1.0000
  C   C720      1.0  0.77819  0.76117  0.31527  1.0000
  H   H1233     1.0  0.95995  0.71453  0.23326  1.0000
  S   S205      1.0  0.89183  0.88505  0.04625  1.0000
  C   C721      1.0  0.99259  0.75482  0.20647  1.0000
  H   H1234     1.0  0.89764  0.79329  0.06819  1.0000
  S   S206      1.0  0.83517  0.88658  0.44408  1.0000
  Fe  Fe104     1.0  0.85690  0.77067  0.11633  1.0000
  S   S207      1.0  0.88342  0.74866  0.09383  1.0000
  S   S208      1.0  0.83196  0.79778  0.09556  1.0000
  Fe  Fe105     1.0  0.86948  0.74035  0.16000  1.0000
  S   S209      1.0  0.89614  0.71605  0.13909  1.0000
  S   S210      1.0  0.86897  0.72891  0.19863  1.0000
  Fe  Fe106     1.0  0.91582  0.74807  0.12309  1.0000
  S   S211      1.0  0.96245  0.75980  0.11752  1.0000
  Fe  Fe107     1.0  0.86084  0.71881  0.11173  1.0000
  S   S212      1.0  0.84373  0.69142  0.08683  1.0000
  S   S213      1.0  0.89062  0.77238  0.14470  1.0000
  S   S214      1.0  0.83301  0.74078  0.13350  1.0000
  H   H1235     1.0  0.80375  0.68586  0.28431  1.0000
  Fe  Fe108     1.0  0.86766  0.75878  0.33448  1.0000
  S   S215      1.0  0.87623  0.72135  0.34053  1.0000
  S   S216      1.0  0.85457  0.77355  0.29866  1.0000
  Fe  Fe109     1.0  0.88186  0.76999  0.38524  1.0000
  S   S217      1.0  0.89190  0.73301  0.39412  1.0000
  S   S218      1.0  0.89055  0.79193  0.41685  1.0000
  Fe  Fe110     1.0  0.91560  0.73323  0.36034  1.0000
  S   S219      1.0  0.95770  0.71553  0.35210  1.0000
  Fe  Fe111     1.0  0.85160  0.72444  0.37399  1.0000
  S   S220      1.0  0.82271  0.69384  0.38528  1.0000
  S   S221      1.0  0.90835  0.77067  0.35255  1.0000
  S   S222      1.0  0.84010  0.76142  0.36679  1.0000
  H   H1236     1.0  0.84570  0.85366  0.03078  1.0000
  C   C722      1.0  0.79077  0.69295  0.40240  1.0000
  C   C723      1.0  0.77574  0.71281  0.40773  1.0000
  Fe  Fe112     1.0  0.88598  0.89933  0.00925  1.0000
  H   H1237     1.0  0.80636  0.73921  0.29709  1.0000
  H   H1238     1.0  0.73769  0.72654  0.42337  1.0000
  C   C724      1.0  0.86492  0.74202  0.22612  1.0000
  C   C725      1.0  0.85539  0.76457  0.22834  1.0000
  C   C726      1.0  0.85250  0.77397  0.25063  1.0000
  C   C727      1.0  0.85961  0.76117  0.27094  1.0000
  C   C728      1.0  0.86978  0.73881  0.26866  1.0000
  C   C729      1.0  0.87205  0.72924  0.24644  1.0000
  H   H1239     1.0  0.84980  0.77465  0.21294  1.0000
  H   H1240     1.0  0.84461  0.79128  0.25214  1.0000
  H   H1241     1.0  0.87571  0.72883  0.28403  1.0000
  H   H1242     1.0  0.87965  0.71184  0.24496  1.0000
  C   C730      1.0  0.80722  0.68294  0.08179  1.0000
  S   S223      1.0  0.65364  0.67219  0.02566  1.0000
  H   H1243     1.0  0.00085  0.93160  0.47691  1.0000
  C   C731      1.0  0.77090  0.66569  0.05593  1.0000
  C   C732      1.0  0.99547  0.74538  0.12251  1.0000
  H   H1244     1.0  0.82290  0.81954  0.05051  1.0000
  C   C733      1.0  0.77931  0.67144  0.40972  1.0000
  S   S224      1.0  0.87039  0.93675  0.47814  1.0000
  H   H1245     1.0  0.77418  0.76584  0.33355  1.0000
  H   H1246     1.0  0.96067  0.87318  0.02953  1.0000
  H   H1247     1.0  0.59072  0.72404  0.00896  1.0000
  H   H1248     1.0  0.91648  0.79066  0.21924  1.0000
  C   C734      1.0  0.99540  0.73181  0.38604  1.0000
  C   C735      1.0  0.79973  0.69704  0.32038  1.0000
  H   H1249     1.0  0.97657  0.73568  0.39606  1.0000
  H   H1250     1.0  0.75101  0.70769  0.26361  1.0000
  C   C736      1.0  0.84785  0.85909  0.43700  1.0000
  C   C737      1.0  0.84738  0.85238  0.41369  1.0000
  C   C738      1.0  0.85903  0.83122  0.40730  1.0000
  C   C739      1.0  0.87128  0.81665  0.42425  1.0000
  C   C740      1.0  0.87092  0.82304  0.44765  1.0000
  C   C741      1.0  0.85905  0.84406  0.45403  1.0000
  H   H1251     1.0  0.83851  0.86383  0.40044  1.0000
  H   H1252     1.0  0.85934  0.82654  0.38922  1.0000
  H   H1253     1.0  0.88022  0.81178  0.46086  1.0000
  H   H1254     1.0  0.85889  0.84877  0.47208  1.0000
  H   H1255     1.0  0.94118  0.69978  0.39921  1.0000
  H   H1256     1.0  0.00106  0.88952  0.42767  1.0000
  C   C742      1.0  0.87438  0.86083  0.05937  1.0000
  C   C743      1.0  0.88327  0.85362  0.08178  1.0000
  C   C744      1.0  0.87116  0.83387  0.09262  1.0000
  C   C745      1.0  0.84935  0.82146  0.08144  1.0000
  C   C746      1.0  0.84005  0.82883  0.05916  1.0000
  C   C747      1.0  0.85280  0.84825  0.04800  1.0000
  H   H1257     1.0  0.89965  0.86341  0.09084  1.0000
  H   H1258     1.0  0.87805  0.82865  0.10995  1.0000
  H   H1259     1.0  0.96647  0.79328  0.20758  1.0000
  C   C748      1.0  0.95890  0.73091  0.24246  1.0000
  H   H1260     1.0  0.72118  0.71294  0.04288  1.0000
  C   C749      1.0  0.95408  0.71520  0.18789  1.0000
  H   H1261     1.0  0.93070  0.87195  0.39698  1.0000
  H   H1262     1.0  0.93134  0.82977  0.47038  1.0000
  S   S225      1.0  0.70355  0.68854  0.44098  1.0000
  H   H1263     1.0  0.81527  0.69956  0.33501  1.0000
  H   H1264     1.0  0.94759  0.76599  0.23888  1.0000
  H   H1265     1.0  0.74804  0.75593  0.10717  1.0000
  C   C750      1.0  0.91305  0.67577  0.41951  1.0000
  C   C751      1.0  0.74935  0.71107  0.41974  1.0000
  H   H1266     1.0  0.97563  0.71112  0.19497  1.0000
  H   H1267     1.0  0.91617  0.66676  0.43658  1.0000
  H   H1268     1.0  0.79088  0.77563  0.30734  1.0000
  H   H1269     1.0  0.83028  0.70762  0.29265  1.0000
  H   H1270     1.0  0.54013  0.70921  0.48996  1.0000
  C   C752      1.0  0.94841  0.74116  0.18545  1.0000
  C   C753      1.0  0.92143  0.78797  0.20066  1.0000
  H   H1271     1.0  0.90583  0.77526  0.19378  1.0000
  H   H1272     1.0  0.78411  0.72949  0.40226  1.0000
  C   C754      1.0  0.79945  0.67314  0.06042  1.0000
  H   H1273     1.0  0.95553  0.74708  0.16785  1.0000
  H   H1274     1.0  0.96808  0.86456  0.40018  1.0000
  H   H1275     1.0  0.92470  0.74268  0.18415  1.0000
  H   H1276     1.0  0.93710  0.70650  0.19852  1.0000
  H   H1277     1.0  0.75983  0.79228  0.00962  1.0000
  H   H1278     1.0  0.78007  0.74052  0.10243  1.0000
  S   S226      1.0  0.65181  0.67526  0.49124  1.0000
  H   H1279     1.0  0.95828  0.78460  0.17882  1.0000
  H   H1280     1.0  0.98018  0.83714  0.09869  1.0000
  H   H1281     1.0  0.91821  0.68150  0.37193  1.0000
  C   C755      1.0  0.79572  0.73888  0.31421  1.0000
  H   H1282     1.0  0.95362  0.70765  0.17033  1.0000
  N   N53       1.0  0.77909  0.75035  0.05213  1.0000
  C   C756      1.0  0.80919  0.74422  0.06006  1.0000
  C   C757      1.0  0.76471  0.76154  0.07229  1.0000
  C   C758      1.0  0.78180  0.76714  0.03176  1.0000
  C   C759      1.0  0.76390  0.72851  0.04503  1.0000
  C   C760      1.0  0.82901  0.73437  0.04143  1.0000
  C   C761      1.0  0.75966  0.74599  0.09404  1.0000
  H   H1283     1.0  0.97808  0.84975  0.06212  1.0000
  H   H1284     1.0  0.94314  0.70259  0.42979  1.0000
  H   H1285     1.0  0.82056  0.75951  0.06719  1.0000
  H   H1286     1.0  0.80875  0.73125  0.07452  1.0000
  H   H1287     1.0  0.74335  0.76848  0.06744  1.0000
  H   H1288     1.0  0.77753  0.77684  0.07785  1.0000
  H   H1289     1.0  0.80047  0.77910  0.03442  1.0000
  H   H1290     1.0  0.78636  0.75789  0.01549  1.0000
  H   H1291     1.0  0.77414  0.72135  0.02943  1.0000
  H   H1292     1.0  0.76661  0.71465  0.05845  1.0000
  H   H1293     1.0  0.82107  0.71751  0.03526  1.0000
  H   H1294     1.0  0.83244  0.74649  0.02653  1.0000
  H   H1295     1.0  0.85050  0.73120  0.04943  1.0000
  H   H1296     1.0  0.74610  0.73070  0.09014  1.0000
  H   H1297     1.0  0.62400  0.73937  0.01071  1.0000
  H   H1298     1.0  0.75401  0.79621  0.03981  1.0000
  H   H1299     1.0  0.75639  0.77101  0.48571  1.0000
  H   H1300     1.0  0.87103  0.99030  0.02228  1.0000
  C   C762      1.0  0.81751  0.69245  0.29860  1.0000
  H   H1301     1.0  0.75751  0.75998  0.30561  1.0000
  C   C763      1.0  0.94807  0.81376  0.08266  1.0000
  H   H1302     1.0  0.99950  0.73762  0.21287  1.0000
  C   C764      1.0  0.61128  0.72723  0.99994  1.0000
  C   C765      1.0  0.94583  0.85881  0.40385  1.0000
  H   H1303     1.0  0.90907  0.82673  0.04440  1.0000
  H   H1304     1.0  0.92310  0.74695  0.22495  1.0000
  N   N54       1.0  0.94850  0.87114  0.44719  1.0000
  C   C766      1.0  0.92976  0.86787  0.46835  1.0000
  C   C767      1.0  0.94401  0.89529  0.43783  1.0000
  H   H1305     1.0  0.94161  0.84307  0.39367  1.0000
  C   C768      1.0  0.94043  0.85301  0.42979  1.0000
  C   C769      1.0  0.78600  0.68519  0.09865  1.0000
  C   C770      1.0  0.91244  0.90172  0.43254  1.0000
  C   C771      1.0  0.73157  0.72991  0.03892  1.0000
  C   C772      1.0  0.95717  0.84448  0.05418  1.0000
  C   C773      1.0  0.74895  0.69706  0.35162  1.0000
  H   H1306     1.0  0.90667  0.86913  0.46349  1.0000
  H   H1307     1.0  0.62384  0.71116  0.99971  1.0000
  H   H1308     1.0  0.95259  0.90808  0.45037  1.0000
  H   H1309     1.0  0.71968  0.74221  0.04939  1.0000
  C   C774      1.0  0.99668  0.72218  0.12944  1.0000
  H   H1310     1.0  0.95152  0.83656  0.43402  1.0000
  C   C775      1.0  0.92503  0.81270  0.04354  1.0000
  C   C776      1.0  0.97881  0.78049  0.05084  1.0000
  H   H1311     1.0  0.91708  0.84867  0.43075  1.0000
  H   H1312     1.0  0.97005  0.77410  0.06759  1.0000
  H   H1313     1.0  0.91180  0.91767  0.42155  1.0000
  H   H1314     1.0  0.97926  0.81009  0.02836  1.0000
  H   H1315     1.0  0.90096  0.90544  0.44880  1.0000
  H   H1316     1.0  0.74914  0.69411  0.30119  1.0000
  H   H1317     1.0  0.94464  0.72777  0.25766  1.0000
  N   N55       1.0  0.95206  0.81884  0.05703  1.0000
  H   H1318     1.0  0.78184  0.72325  0.35585  1.0000
  H   H1319     1.0  0.99327  0.80836  0.09352  1.0000
  C   C777      1.0  0.73783  0.68957  0.42705  1.0000
  H   H1320     1.0  0.92191  0.77535  0.05248  1.0000
  Fe  Fe113     1.0  0.84644  0.90295  0.47850  1.0000
  H   H1321     1.0  0.72828  0.73398  0.02011  1.0000
  N   N56       1.0  0.96029  0.75632  0.20427  1.0000
  H   H1322     1.0  0.81385  0.74047  0.32685  1.0000
  C   C778      1.0  0.94103  0.68980  0.41581  1.0000
  H   H1323     1.0  0.97696  0.71225  0.13135  1.0000
  C   C779      1.0  0.94638  0.75079  0.22745  1.0000
  H   H1324     1.0  0.74939  0.73276  0.34243  1.0000
  H   H1325     1.0  0.78547  0.71922  0.27053  1.0000
  H   H1326     1.0  0.95619  0.89870  0.42162  1.0000
  N   N57       1.0  0.77907  0.71682  0.31883  1.0000
  C   C780      1.0  0.76535  0.71866  0.34245  1.0000
  H   H1327     1.0  0.75380  0.73694  0.27102  1.0000
  H   H1328     1.0  0.90038  0.88805  0.42336  1.0000
  H   H1329     1.0  0.91760  0.80457  0.19126  1.0000
  C   C781      1.0  0.76255  0.71966  0.27537  1.0000
  H   H1330     1.0  0.89087  0.78732  0.03847  1.0000
  H   H1331     1.0  0.96900  0.81331  0.11655  1.0000
  S   S227      1.0  0.91495  0.92995  0.00056  1.0000
  C   C782      1.0  0.97928  0.86872  0.45539  1.0000
  C   C783      1.0  0.95314  0.78090  0.19744  1.0000
  H   H1332     1.0  0.73612  0.72232  0.30536  1.0000
  C   C784      1.0  0.75574  0.71260  0.30090  1.0000
  H   H1333     1.0  0.93386  0.88183  0.48093  1.0000
  H   H1334     1.0  0.99838  0.81426  0.05419  1.0000
  H   H1335     1.0  0.89533  0.68821  0.42203  1.0000
  H   H1336     1.0  0.73299  0.69049  0.33890  1.0000
  H   H1337     1.0  0.98316  0.85117  0.46274  1.0000
  H   H1338     1.0  0.73544  0.77336  0.02456  1.0000
  H   H1339     1.0  0.00361  0.85838  0.42491  1.0000
  H   H1340     1.0  0.79160  0.69255  0.11521  1.0000
  H   H1341     1.0  0.92983  0.82377  0.08934  1.0000
  H   H1342     1.0  0.98384  0.88072  0.46985  1.0000
  H   H1343     1.0  0.98044  0.73551  0.24961  1.0000
  C   C785      1.0  0.90834  0.79078  0.05129  1.0000
  C   C786      1.0  0.97441  0.81861  0.09841  1.0000
  H   H1344     1.0  0.97556  0.84742  0.01878  1.0000
  C   C787      1.0  0.95756  0.85422  0.02895  1.0000
  H   H1345     1.0  0.94041  0.85413  0.06347  1.0000
  C   C788      1.0  0.99210  0.72268  0.36386  1.0000
  H   H1346     1.0  0.81565  0.67133  0.04723  1.0000
  H   H1347     1.0  0.88302  0.68574  0.38119  1.0000
  C   C789      1.0  0.93273  0.84476  0.48189  1.0000
  H   H1348     1.0  0.92974  0.81107  0.02470  1.0000
  H   H1349     1.0  0.94177  0.79561  0.08627  1.0000
  C   C790      1.0  0.75601  0.78290  0.02640  1.0000
  H   H1350     1.0  0.00163  0.77499  0.05128  1.0000
  C   C791      1.0  0.75771  0.67699  0.09447  1.0000
  H   H1351     1.0  0.96026  0.67876  0.41724  1.0000
  C   C792      1.0  0.89899  0.67207  0.37839  1.0000
  C   C793      1.0  0.97779  0.80686  0.04744  1.0000
  C   C794      1.0  0.00290  0.87280  0.43713  1.0000
  H   H1352     1.0  0.96749  0.77172  0.03638  1.0000
  H   H1353     1.0  0.00500  0.74624  0.17102  1.0000
  H   H1354     1.0  0.78821  0.68057  0.32436  1.0000
  H   H1355     1.0  0.00072  0.76697  0.21980  1.0000
  H   H1356     1.0  0.73689  0.70155  0.36745  1.0000
  H   H1357     1.0  0.76388  0.68318  0.35711  1.0000
  H   H1358     1.0  0.93684  0.85137  0.01966  1.0000
  H   H1359     1.0  0.50650  0.71522  0.47634  1.0000
  C   C795      1.0  0.75320  0.66975  0.42213  1.0000
  H   H1360     1.0  0.83325  0.67874  0.30292  1.0000
  H   H1361     1.0  0.88941  0.66783  0.34163  1.0000
  H   H1362     1.0  0.74177  0.67815  0.10796  1.0000
  C   C796      1.0  0.74994  0.66715  0.07314  1.0000
  H   H1363     1.0  0.54389  0.73325  0.99738  1.0000
  H   H1364     1.0  0.98447  0.89047  0.99530  1.0000
  H   H1365     1.0  0.00519  0.77687  0.17609  1.0000
  H   H1366     1.0  0.95845  0.66520  0.38031  1.0000
  H   H1367     1.0  0.95294  0.84425  0.49232  1.0000
  Fe  Fe114     1.0  0.68332  0.82542  0.87993  1.0000
  S   S228      1.0  0.70273  0.79886  0.85720  1.0000
  S   S229      1.0  0.70598  0.84355  0.91036  1.0000
  Fe  Fe115     1.0  0.62288  0.81918  0.85692  1.0000
  S   S230      1.0  0.63836  0.79211  0.83303  1.0000
  S   S231      1.0  0.57804  0.83386  0.85096  1.0000
  Fe  Fe116     1.0  0.66229  0.77829  0.86442  1.0000
  S   S232      1.0  0.66155  0.73962  0.86984  1.0000
  Fe  Fe117     1.0  0.67701  0.81480  0.82755  1.0000
  S   S233      1.0  0.69579  0.82292  0.79161  1.0000
  S   S234      1.0  0.64389  0.80363  0.88891  1.0000
  S   S235      1.0  0.66056  0.84310  0.84978  1.0000
  Fe  Fe118     1.0  0.86128  0.89619  0.96025  1.0000
  H   H1368     1.0  0.79545  0.92493  0.56045  1.0000
  S   S236      1.0  0.83469  0.87993  0.93070  1.0000
  Fe  Fe119     1.0  0.92560  0.91039  0.96873  1.0000
  S   S237      1.0  0.96938  0.91274  0.95102  1.0000
  C   C797      1.0  0.59741  0.73313  0.93388  1.0000
  H   H1369     1.0  0.80826  0.80485  0.53266  1.0000
  H   H1370     1.0  0.52403  0.79253  0.68825  1.0000
  S   S238      1.0  0.88921  0.92597  0.94826  1.0000
  Fe  Fe120     1.0  0.65774  0.79979  0.65348  1.0000
  S   S239      1.0  0.63473  0.82862  0.63417  1.0000
  S   S240      1.0  0.64965  0.79125  0.69212  1.0000
  Fe  Fe121     1.0  0.67595  0.77751  0.60776  1.0000
  S   S241      1.0  0.65297  0.80418  0.58630  1.0000
  S   S242      1.0  0.70290  0.75500  0.58505  1.0000
  Fe  Fe122     1.0  0.67372  0.82946  0.61034  1.0000
  S   S243      1.0  0.69433  0.86022  0.59057  1.0000
  Fe  Fe123     1.0  0.61656  0.80073  0.61160  1.0000
  S   S244      1.0  0.57093  0.79172  0.59901  1.0000
  S   S245      1.0  0.69789  0.80278  0.63138  1.0000
  S   S246      1.0  0.63828  0.77189  0.63128  1.0000
  Fe  Fe124     1.0  0.84365  0.90059  0.53127  1.0000
  C   C798      1.0  0.72012  0.80859  0.54831  1.0000
  S   S247      1.0  0.82579  0.87925  0.56212  1.0000
  Fe  Fe125     1.0  0.89791  0.92046  0.50642  1.0000
  H   H1371     1.0  0.71568  0.93027  0.60729  1.0000
  H   H1372     1.0  0.56238  0.72769  0.53297  1.0000
  H   H1373     1.0  0.58550  0.68595  0.53552  1.0000
  S   S248      1.0  0.86977  0.93355  0.53505  1.0000
  S   S249      1.0  0.87476  0.88617  0.50547  1.0000
  H   H1374     1.0  0.51742  0.70263  0.52804  1.0000
  H   H1375     1.0  0.83219  0.94711  0.94644  1.0000
  C   C799      1.0  0.97881  0.91613  0.50623  1.0000
  C   C800      1.0  0.98209  0.90276  0.52659  1.0000
  H   H1376     1.0  0.81435  0.92788  0.60219  1.0000
  H   H1377     1.0  0.96351  0.89855  0.53713  1.0000
  H   H1378     1.0  0.65591  0.86001  0.80263  1.0000
  H   H1379     1.0  0.63026  0.88277  0.80561  1.0000
  C   C801      1.0  0.69376  0.72710  0.57583  1.0000
  C   C802      1.0  0.70084  0.72090  0.55316  1.0000
  C   C803      1.0  0.69531  0.69846  0.54551  1.0000
  C   C804      1.0  0.68346  0.68187  0.56075  1.0000
  C   C805      1.0  0.67658  0.68804  0.58347  1.0000
  C   C806      1.0  0.68140  0.71066  0.59093  1.0000
  H   H1380     1.0  0.71077  0.73343  0.54147  1.0000
  H   H1381     1.0  0.73248  0.78461  0.77099  1.0000
  H   H1382     1.0  0.59887  0.72088  0.61443  1.0000
  H   H1383     1.0  0.67643  0.71516  0.60857  1.0000
  C   C807      1.0  0.53788  0.80459  0.60652  1.0000
  C   C808      1.0  0.53680  0.82638  0.61624  1.0000
  H   H1384     1.0  0.51238  0.77604  0.59422  1.0000
  H   H1385     1.0  0.55659  0.83567  0.61989  1.0000
  C   C809      1.0  0.78409  0.92966  0.95302  1.0000
  C   C810      1.0  0.73098  0.86391  0.58211  1.0000
  C   C811      1.0  0.75378  0.85491  0.59540  1.0000
  C   C812      1.0  0.78257  0.85985  0.58908  1.0000
  C   C813      1.0  0.78904  0.87337  0.56912  1.0000
  C   C814      1.0  0.76622  0.88164  0.55535  1.0000
  C   C815      1.0  0.73744  0.87726  0.56204  1.0000
  H   H1386     1.0  0.74925  0.84470  0.61094  1.0000
  H   H1387     1.0  0.79997  0.85317  0.59979  1.0000
  H   H1388     1.0  0.77074  0.89157  0.53966  1.0000
  H   H1389     1.0  0.72002  0.88422  0.55155  1.0000
  C   C816      1.0  0.58074  0.68407  0.94205  1.0000
  C   C817      1.0  0.83360  0.96751  0.91540  1.0000
  H   H1390     1.0  0.58608  0.66583  0.94610  1.0000
  C   C818      1.0  0.77766  0.92963  0.91100  1.0000
  H   H1391     1.0  0.75785  0.84744  0.88128  1.0000
  C   C819      1.0  0.66801  0.72940  0.89846  1.0000
  C   C820      1.0  0.66451  0.70587  0.90399  1.0000
  C   C821      1.0  0.66841  0.69762  0.92702  1.0000
  C   C822      1.0  0.67604  0.71291  0.94451  1.0000
  C   C823      1.0  0.68005  0.73633  0.93883  1.0000
  C   C824      1.0  0.67594  0.74458  0.91592  1.0000
  H   H1392     1.0  0.65843  0.69406  0.89050  1.0000
  H   H1393     1.0  0.65037  0.74891  0.52843  1.0000
  H   H1394     1.0  0.68601  0.74824  0.95227  1.0000
  H   H1395     1.0  0.67886  0.76271  0.91182  1.0000
  C   C825      1.0  0.54515  0.81972  0.85842  1.0000
  C   C826      1.0  0.54440  0.79970  0.87238  1.0000
  C   C827      1.0  0.75246  0.92319  0.95831  1.0000
  H   H1396     1.0  0.56432  0.79230  0.87869  1.0000
  H   H1397     1.0  0.61746  0.71722  0.52375  1.0000
  C   C828      1.0  0.66332  0.80031  0.71942  1.0000
  C   C829      1.0  0.65187  0.79008  0.73980  1.0000
  C   C830      1.0  0.66122  0.79701  0.76197  1.0000
  C   C831      1.0  0.68260  0.81401  0.76407  1.0000
  C   C832      1.0  0.69430  0.82407  0.74371  1.0000
  C   C833      1.0  0.68460  0.81740  0.72149  1.0000
  H   H1398     1.0  0.63539  0.77685  0.73839  1.0000
  H   H1399     1.0  0.65184  0.78915  0.77739  1.0000
  H   H1400     1.0  0.71096  0.83716  0.74510  1.0000
  H   H1401     1.0  0.69367  0.82538  0.70599  1.0000
  C   C834      1.0  0.74241  0.85223  0.91592  1.0000
  C   C835      1.0  0.75021  0.85947  0.93836  1.0000
  C   C836      1.0  0.77848  0.86723  0.94349  1.0000
  C   C837      1.0  0.79935  0.86824  0.92609  1.0000
  C   C838      1.0  0.79159  0.86089  0.90368  1.0000
  C   C839      1.0  0.76342  0.85285  0.89863  1.0000
  H   H1402     1.0  0.73422  0.85901  0.95191  1.0000
  H   H1403     1.0  0.78403  0.87253  0.96087  1.0000
  H   H1404     1.0  0.80746  0.86160  0.89003  1.0000
  N   N58       1.0  0.72389  0.74813  0.80543  1.0000
  C   C840      1.0  0.71940  0.74078  0.83054  1.0000
  C   C841      1.0  0.69506  0.75560  0.79589  1.0000
  C   C842      1.0  0.74428  0.76856  0.80513  1.0000
  C   C843      1.0  0.73627  0.72820  0.79264  1.0000
  C   C844      1.0  0.74669  0.73513  0.84494  1.0000
  C   C845      1.0  0.67057  0.73749  0.79764  1.0000
  C   C846      1.0  0.75170  0.77926  0.78116  1.0000
  C   C847      1.0  0.73141  0.72793  0.76596  1.0000
  H   H1405     1.0  0.70779  0.75422  0.83995  1.0000
  H   H1406     1.0  0.70538  0.72513  0.83187  1.0000
  H   H1407     1.0  0.69622  0.76122  0.77743  1.0000
  H   H1408     1.0  0.68770  0.77110  0.80508  1.0000
  H   H1409     1.0  0.73554  0.78259  0.81579  1.0000
  H   H1410     1.0  0.76539  0.76401  0.81309  1.0000
  H   H1411     1.0  0.75986  0.72707  0.79602  1.0000
  H   H1412     1.0  0.72677  0.71170  0.79946  1.0000
  H   H1413     1.0  0.76089  0.72300  0.83610  1.0000
  H   H1414     1.0  0.75884  0.75099  0.84950  1.0000
  H   H1415     1.0  0.74009  0.72684  0.86172  1.0000
  H   H1416     1.0  0.65218  0.74320  0.78654  1.0000
  H   H1417     1.0  0.67722  0.72041  0.79168  1.0000
  H   H1418     1.0  0.66239  0.73585  0.81570  1.0000
  H   H1419     1.0  0.52554  0.73996  0.56059  1.0000
  H   H1420     1.0  0.76518  0.76763  0.77100  1.0000
  H   H1421     1.0  0.76470  0.79518  0.78379  1.0000
  H   H1422     1.0  0.75034  0.71999  0.75783  1.0000
  H   H1423     1.0  0.72879  0.74491  0.75726  1.0000
  H   H1424     1.0  0.74309  0.91146  0.94524  1.0000
  H   H1425     1.0  0.78375  0.80731  0.57786  1.0000
  H   H1426     1.0  0.51527  0.79658  0.65767  1.0000
  H   H1427     1.0  0.55704  0.68555  0.94290  1.0000
  H   H1428     1.0  0.72403  0.81731  0.56507  1.0000
  N   N59       1.0  0.78950  0.94348  0.93086  1.0000
  H   H1429     1.0  0.58004  0.70594  0.59278  1.0000
  H   H1430     1.0  0.55390  0.74814  0.96092  1.0000
  C   C848      1.0  0.78576  0.93799  0.88633  1.0000
  C   C849      1.0  0.77440  0.96619  0.93153  1.0000
  H   H1431     1.0  0.78198  0.77737  0.54593  1.0000
  H   H1432     1.0  0.61811  0.70099  0.59704  1.0000
  H   H1433     1.0  0.73365  0.94953  0.52340  1.0000
  H   H1434     1.0  0.65059  0.76192  0.55668  1.0000
  C   C850      1.0  0.74656  0.94194  0.53794  1.0000
  H   H1435     1.0  0.83129  0.93055  0.92131  1.0000
  H   H1436     1.0  0.80298  0.97667  0.96105  1.0000
  H   H1437     1.0  0.74756  0.76860  0.55484  1.0000
  H   H1438     1.0  0.74992  0.79505  0.58833  1.0000
  H   H1439     1.0  0.77007  0.97327  0.54288  1.0000
  H   H1440     1.0  0.76761  0.93349  0.60702  1.0000
  H   H1441     1.0  0.75068  0.96336  0.93133  1.0000
  H   H1442     1.0  0.85721  0.96569  0.91338  1.0000
  H   H1443     1.0  0.81437  0.98692  0.56434  1.0000
  H   H1444     1.0  0.70092  0.69381  0.52804  1.0000
  H   H1445     1.0  0.55189  0.74540  0.58258  1.0000
  S   S250      1.0  0.81521  0.98045  0.51074  1.0000
  H   H1446     1.0  0.68102  0.82834  0.54375  1.0000
  Fe  Fe126     1.0  0.84115  0.94765  0.50645  1.0000
  H   H1447     1.0  0.71281  0.71661  0.76151  1.0000
  H   H1448     1.0  0.58165  0.87016  0.81188  1.0000
  C   C851      1.0  0.51776  0.78955  0.87867  1.0000
  H   H1449     1.0  0.56083  0.82851  0.79579  1.0000
  C   C852      1.0  0.51636  0.80494  0.67483  1.0000
  S   S251      1.0  0.67905  0.70412  0.97394  1.0000
  H   H1450     1.0  0.52072  0.71528  0.98009  1.0000
  C   C853      1.0  0.64576  0.87501  0.79380  1.0000
  C   C854      1.0  0.60691  0.75505  0.54258  1.0000
  H   H1451     1.0  0.73882  0.93851  0.96002  1.0000
  C   C855      1.0  0.54355  0.71999  0.98380  1.0000
  C   C856      1.0  0.82185  0.94617  0.92894  1.0000
  C   C857      1.0  0.79753  0.82044  0.52582  1.0000
  S   S252      1.0  0.89907  0.87894  0.97832  1.0000
  H   H1452     1.0  0.84085  0.92716  0.58022  1.0000
  H   H1453     1.0  0.71125  0.84200  0.53056  1.0000
  H   H1454     1.0  0.77869  0.97677  0.91559  1.0000
  H   H1455     1.0  0.73272  0.92902  0.54703  1.0000
  H   H1456     1.0  0.75640  0.83553  0.52176  1.0000
  C   C858      1.0  0.78194  0.98086  0.95288  1.0000
  C   C859      1.0  0.70080  0.82499  0.53374  1.0000
  H   H1457     1.0  0.72515  0.96010  0.60604  1.0000
  H   H1458     1.0  0.64134  0.77841  0.53136  1.0000
  H   H1459     1.0  0.59719  0.75572  0.52478  1.0000
  H   H1460     1.0  0.83335  0.95403  0.59296  1.0000
  C   C860      1.0  0.54833  0.74521  0.56349  1.0000
  H   H1461     1.0  0.75174  0.91360  0.97525  1.0000
  H   H1462     1.0  0.60291  0.76301  0.91086  1.0000
  H   H1463     1.0  0.78111  0.77787  0.58728  1.0000
  C   C861      1.0  0.75644  0.93692  0.59013  1.0000
  C   C862      1.0  0.00397  0.89328  0.98549  1.0000
  H   H1464     1.0  0.79276  0.93866  0.96849  1.0000
  C   C863      1.0  0.72555  0.94404  0.59610  1.0000
  H   H1465     1.0  0.63270  0.73635  0.58139  1.0000
  N   N60       1.0  0.60526  0.85356  0.77092  1.0000
  C   C864      1.0  0.60280  0.84125  0.74811  1.0000
  C   C865      1.0  0.60715  0.83537  0.79000  1.0000
  C   C866      1.0  0.63254  0.86802  0.77030  1.0000
  C   C867      1.0  0.57907  0.86836  0.77310  1.0000
  C   C868      1.0  0.60563  0.85635  0.72576  1.0000
  C   C869      1.0  0.58082  0.81904  0.79229  1.0000
  C   C870      1.0  0.59622  0.69947  0.95982  1.0000
  H   H1466     1.0  0.77382  0.92734  0.87356  1.0000
  H   H1467     1.0  0.61957  0.82789  0.74709  1.0000
  H   H1468     1.0  0.58182  0.83196  0.74657  1.0000
  H   H1469     1.0  0.61072  0.84281  0.80735  1.0000
  H   H1470     1.0  0.62644  0.82463  0.78757  1.0000
  H   H1471     1.0  0.65003  0.85866  0.76148  1.0000
  H   H1472     1.0  0.59926  0.75558  0.97734  1.0000
  H   H1473     1.0  0.57933  0.88242  0.75966  1.0000
  H   H1474     1.0  0.55891  0.85861  0.76905  1.0000
  H   H1475     1.0  0.62734  0.86438  0.72414  1.0000
  H   H1476     1.0  0.60284  0.84518  0.71045  1.0000
  H   H1477     1.0  0.58888  0.86970  0.72441  1.0000
  C   C871      1.0  0.60899  0.73429  0.57987  1.0000
  H   H1478     1.0  0.57794  0.80805  0.77696  1.0000
  H   H1479     1.0  0.58424  0.80715  0.80744  1.0000
  H   H1480     1.0  0.81099  0.83491  0.53236  1.0000
  H   H1481     1.0  0.58829  0.68770  0.92408  1.0000
  H   H1482     1.0  0.60261  0.68316  0.56394  1.0000
  H   H1483     1.0  0.75372  0.92891  0.91133  1.0000
  H   H1484     1.0  0.73706  0.80545  0.50060  1.0000
  C   C872      1.0  0.00245  0.90369  0.96338  1.0000
  C   C873      1.0  0.56814  0.72793  0.55182  1.0000
  C   C874      1.0  0.63922  0.76107  0.53975  1.0000
  C   C875      1.0  0.59774  0.75945  0.92945  1.0000
  C   C876      1.0  0.74091  0.79161  0.51396  1.0000
  H   H1485     1.0  0.56155  0.71073  0.55871  1.0000
  H   H1486     1.0  0.54473  0.72312  0.94630  1.0000
  C   C877      1.0  0.60763  0.73790  0.97528  1.0000
  H   H1487     1.0  0.63001  0.74015  0.96866  1.0000
  C   C878      1.0  0.60563  0.68877  0.54566  1.0000
  H   H1488     1.0  0.61480  0.76820  0.93973  1.0000
  H   H1489     1.0  0.82419  0.96980  0.89782  1.0000
  H   H1490     1.0  0.80897  0.93541  0.88300  1.0000
  C   C879      1.0  0.76304  0.77516  0.50376  1.0000
  C   C880      1.0  0.60103  0.71417  0.59661  1.0000
  H   H1491     1.0  0.58255  0.72590  0.92056  1.0000
  H   H1492     1.0  0.69377  0.81748  0.51707  1.0000
  C   C881      1.0  0.57472  0.88035  0.79643  1.0000
  C   C882      1.0  0.51185  0.79287  0.60173  1.0000
  N   N61       1.0  0.60001  0.73231  0.55472  1.0000
  H   H1493     1.0  0.58564  0.89744  0.79645  1.0000
  H   H1494     1.0  0.71157  0.94568  0.58044  1.0000
  H   H1495     1.0  0.76352  0.75856  0.51372  1.0000
  H   H1496     1.0  0.57659  0.76730  0.93264  1.0000
  C   C883      1.0  0.51902  0.82918  0.85047  1.0000
  C   C884      1.0  0.78050  0.97469  0.58927  1.0000
  H   H1497     1.0  0.62923  0.88414  0.75984  1.0000
  H   H1498     1.0  0.66331  0.88783  0.79064  1.0000
  H   H1499     1.0  0.60108  0.75041  0.58749  1.0000
  H   H1500     1.0  0.51936  0.84471  0.83975  1.0000
  N   N62       1.0  0.74807  0.80184  0.53727  1.0000
  H   H1501     1.0  0.79069  0.97005  0.60632  1.0000
  C   C885      1.0  0.76185  0.78405  0.55317  1.0000
  C   C886      1.0  0.61670  0.71382  0.54291  1.0000
  C   C887      1.0  0.76647  0.82324  0.53439  1.0000
  H   H1502     1.0  0.76499  0.93332  0.52995  1.0000
  C   C888      1.0  0.76943  0.79191  0.57796  1.0000
  H   H1503     1.0  0.81135  0.95152  0.55324  1.0000
  C   C889      1.0  0.50999  0.83651  0.62054  1.0000
  H   H1504     1.0  0.70681  0.79304  0.55265  1.0000
  H   H1505     1.0  0.66533  0.67953  0.93126  1.0000
  H   H1506     1.0  0.72046  0.78136  0.51497  1.0000
  H   H1507     1.0  0.75479  0.91985  0.58192  1.0000
  H   H1508     1.0  0.79630  0.91331  0.95283  1.0000
  H   H1509     1.0  0.51742  0.77436  0.88984  1.0000
  S   S253      1.0  0.86581  0.98165  0.97217  1.0000
  H   H1510     1.0  0.76741  0.83299  0.55070  1.0000
  H   H1511     1.0  0.59170  0.69188  0.97725  1.0000
  C   C890      1.0  0.80064  0.94200  0.56781  1.0000
  H   H1512     1.0  0.83051  0.98344  0.92526  1.0000
  H   H1513     1.0  0.63945  0.71404  0.54896  1.0000
  H   H1514     1.0  0.78480  0.91147  0.91264  1.0000
  H   H1515     1.0  0.79830  0.82096  0.50651  1.0000
  H   H1516     1.0  0.59753  0.76964  0.55203  1.0000
  H   H1517     1.0  0.55081  0.76289  0.55607  1.0000
  H   H1518     1.0  0.91477  0.84295  0.49445  1.0000
  C   C891      1.0  0.75687  0.96134  0.55392  1.0000
  H   H1519     1.0  0.77969  0.95611  0.88286  1.0000
  H   H1520     1.0  0.73786  0.97160  0.55864  1.0000
  Fe  Fe127     1.0  0.67029  0.66854  0.98943  1.0000
  N   N63       1.0  0.77360  0.95375  0.57524  1.0000
  C   C892      1.0  0.55780  0.72931  0.96128  1.0000
  C   C893      1.0  0.79902  0.99361  0.57702  1.0000
  H   H1521     1.0  0.53299  0.81878  0.67316  1.0000
  H   H1522     1.0  0.61915  0.72704  0.92934  1.0000
  C   C894      1.0  0.00324  0.92143  0.49278  1.0000
  N   N64       1.0  0.58938  0.72475  0.95809  1.0000
  H   H1523     1.0  0.61973  0.69697  0.95768  1.0000
  C   C895      1.0  0.82331  0.93772  0.58715  1.0000
  H   H1524     1.0  0.55133  0.88285  0.79913  1.0000
  H   H1525     1.0  0.76037  0.98336  0.59426  1.0000
  Fe  Fe128     1.0  0.87680  0.94394  0.98078  1.0000
  S   S254      1.0  0.81405  0.91521  0.50403  1.0000
  S   S255      1.0  0.94517  0.92733  0.49689  1.0000
  H   H1526     1.0  0.62181  0.67712  0.53836  1.0000
  H   H1527     1.0  0.78497  0.78265  0.50283  1.0000
  H   H1528     1.0  0.76466  0.97930  0.96606  1.0000
  H   H1529     1.0  0.50941  0.85357  0.62760  1.0000
  H   H1530     1.0  0.66766  0.67521  0.59538  1.0000
  H   H1531     1.0  0.99395  0.95743  0.98522  1.0000
  H   H1532     1.0  0.50757  0.68207  0.50720  1.0000
  H   H1533     1.0  0.52049  0.73360  0.49890  1.0000
  H   H1534     1.0  0.50651  0.78815  0.72598  1.0000
  H   H1535     1.0  0.51879  0.66559  0.96589  1.0000
  H   H1536     1.0  0.55305  0.70410  0.99112  1.0000
  S   S256      1.0  0.84653  0.91493  0.99187  1.0000
  C   C896      1.0  0.51808  0.71558  0.49318  1.0000
