data_image0
_chemical_formula_structural       CH3SNH4CH2CFeCHCH2SCHC2HCHSCHCFeHCHCHC2H2SHSFeS2HC2SH4NHCHC3H5SNH4C2FeCSCFeH2FeCH4SCHCHCH5C2HCFeHCSCH2C2SCH6CHC3HCH3CHCHFeHSHNHCH5CFeH4FeHC2S2HC2SFeHSC2H2CHSCH2CH2C2H2CHSHSHFeHCH6C2H2NCH3CHCH3CSH2NH3C2HCH2CH3CHCFeHSHSCNH5SHCH3C2HC3NCH2FeH2C5HCFeH4CH6C2HCSNH2CH2C2H2C2FeH2C2H2CSH4CSH2C4H2CH7CH2CHSH3C2HCSH3CFeHC2HCH2SC2H2NC2HSCHSHFeH2CH2FeH4SH2CH3SHFeCH2CH3FeCHC2H5CSH2CH2CH3CHFe2SH2C2NHSH4SHCH2CSH3SHCFeHCH2CNH2CHCHCSHC3SH8FeH2SCH2CHC2SH2CHCH2SH2FeHCHCHFeH4C4HCFeHFeH2SH2SHCS2C2FeCSFeH2S2H4CFeCSH2CH3FeH3SC2HCH2C2H3CNH2C2SH3C5SCFeH3SFeH2FeCFeCSH3SHCH3CH4CH2CH6SC3H3CSC4NHSHCH3CHCH2SNSHC2H6CH2CH3C2H8CNH2FeSHSH4C2H2CH4CHSC4SH3C2HS2CHSCFeH2Fe2SH7CSCH2CFeHC3SFeH2CHCHCH3CFeCH3C2FeH3FeSHC3HSH9CHSCSHNCHCH3CSHC2NH2SHCHC3SFeCH2CHCHCFeH3C2SHSC3HCH2CH5C2H3C2HCHCSH4CH2CH3NH6CHCFeC3H3CHC2H2C2SCHSHSH2FeHFeHCHNC2H4CSHCHCH2C2H7CHCHS2HC2H5CH6CH4CSC2H4C2SH3CH2C2HC4H2CH7CH2C2HNH2CSH2CHCH3C5SHCH2FeNFeH3SCHNHSC2H2CHSH2CFeSC2H2C2H4CH2CH6CH4SH4C2FeS2H2C3HC5H3SC2H2CHCFeH3CNHCH2CHCH2CHSHSHC4H4CHCHCH2CH2CH3CHCSC2H2SCH4SH3CH2CHCHFeSFeH3SCH2NH2SCHC2H4SH2CH4CH2SCHCHC2HC3NH2FeH6C2H5CH3C2SCHCH2C3H2CSC3HS2HCHCS2CFeH2NHSHCH5C3HFeC2HFeHSH3CHCHC2H2CH2CSFeHCSHCH2CSHFeC3H2NCHCNHCH3C2S2HCHC2H3C2H2CH3SFeHCH3C3H4C2HCHC2SHC3H4CH2CHCH2NSHC3H6C2H3S2H5FeCH8C2H2CSC2HC2HCHN2HC2H9CH3SC2H2CH2FeHC3SCH2CHFeHSH3CH2CH4SH5CFeHCS2H2CH5CH2C3NC2H4C2H7FeHSH2FeSC2HSCHC4H5SH2CHCHNH2C2H3C2H2C2HC3H2CHCH10CH4CHC2SCH3CSCNC2HC2H2CSH2CHC2HSCFeHCHCH2C4H3CHCHCH4CHCS2HCHC2H2CHFeHSCH5SCHSC2HSHNH3CHFeH3C3HFeC2HSH3CH2CH2CFeSC2NSHCH2SHCHCHCHCHSH2C2H2CH2CFeH7CNCHC3H4C2HSHNH3C2HCFeC2SH2CH2SCH4CHNFeCHCFeHCH2
_chemical_formula_sum              "C560 H960 S160 N40 Fe80"
_cell_length_a       26.3579
_cell_length_b       34.4416
_cell_length_c       26.0259
_cell_angle_alpha    76.0588
_cell_angle_beta     102.035
_cell_angle_gamma    96.1995

_space_group_name_H-M_alt    "P 1"
_space_group_IT_number       1

loop_
  _space_group_symop_operation_xyz
  'x, y, z'

loop_
  _atom_site_type_symbol
  _atom_site_label
  _atom_site_symmetry_multiplicity
  _atom_site_fract_x
  _atom_site_fract_y
  _atom_site_fract_z
  _atom_site_occupancy
  C   C1        1.0  0.50901  0.01054  0.88558  1.0000
  H   H1        1.0  0.58904  0.45650  0.75780  1.0000
  H   H2        1.0  0.32576  0.37783  0.91686  1.0000
  H   H3        1.0  0.35330  0.02581  0.87278  1.0000
  S   S1        1.0  0.67958  0.09608  0.79549  1.0000
  N   N1        1.0  0.28630  0.45319  0.91063  1.0000
  H   H4        1.0  0.72162  0.26607  0.88757  1.0000
  H   H5        1.0  0.37428  0.44245  0.74689  1.0000
  H   H6        1.0  0.56726  0.07366  0.90129  1.0000
  H   H7        1.0  0.48428  0.37982  0.74010  1.0000
  C   C2        1.0  0.61022  0.34765  0.80471  1.0000
  H   H8        1.0  0.38484  0.28389  0.75309  1.0000
  H   H9        1.0  0.60329  0.23844  0.78765  1.0000
  C   C3        1.0  0.60546  0.26887  0.79235  1.0000
  Fe  Fe1       1.0  0.69120  0.21078  0.77473  1.0000
  C   C4        1.0  0.44060  0.12270  0.79052  1.0000
  H   H10       1.0  0.61268  0.37797  0.81037  1.0000
  C   C5        1.0  0.55091  0.46165  0.73008  1.0000
  H   H11       1.0  0.38984  0.40301  0.83698  1.0000
  H   H12       1.0  0.41407  0.47191  0.78933  1.0000
  S   S2        1.0  0.64437  0.17978  0.71215  1.0000
  C   C6        1.0  0.34321  0.00930  0.83994  1.0000
  H   H13       1.0  0.57707  0.25294  0.68515  1.0000
  C   C7        1.0  0.56557  0.28200  0.81090  1.0000
  C   C8        1.0  0.45034  0.38705  0.70747  1.0000
  H   H14       1.0  0.31048  0.06561  0.79499  1.0000
  C   C9        1.0  0.64951  0.33479  0.78492  1.0000
  H   H15       1.0  0.42802  0.38202  0.80302  1.0000
  S   S3        1.0  0.52259  0.33570  0.84829  1.0000
  C   C10       1.0  0.44029  0.43200  0.68955  1.0000
  H   H16       1.0  0.32124  0.49945  0.85411  1.0000
  C   C11       1.0  0.49399  0.13225  0.80153  1.0000
  Fe  Fe2       1.0  0.30154  0.19489  0.81357  1.0000
  H   H17       1.0  0.50479  0.25333  0.72554  1.0000
  C   C12       1.0  0.44857  0.50016  0.70305  1.0000
  H   H18       1.0  0.42327  0.24216  0.76116  1.0000
  C   C13       1.0  0.32405  0.03885  0.78618  1.0000
  H   H19       1.0  0.36913  0.16345  0.67960  1.0000
  C   C14       1.0  0.50766  0.45220  0.76367  1.0000
  C   C15       1.0  0.74415  0.03079  0.89651  1.0000
  H   H20       1.0  0.41531  0.36910  0.71931  1.0000
  H   H21       1.0  0.36173  0.20223  0.71137  1.0000
  S   S4        1.0  0.75084  0.42645  0.90909  1.0000
  H   H22       1.0  0.49457  0.20233  0.87367  1.0000
  S   S5        1.0  0.70052  0.27764  0.76249  1.0000
  Fe  Fe3       1.0  0.71178  0.14098  0.73158  1.0000
  S   S6        1.0  0.38376  0.19861  0.85845  1.0000
  S   S7        1.0  0.65906  0.17055  0.84361  1.0000
  H   H23       1.0  0.49535  0.08807  0.92164  1.0000
  C   C16       1.0  0.42575  0.17124  0.83876  1.0000
  C   C17       1.0  0.40761  0.27949  0.67871  1.0000
  S   S8        1.0  0.60159  0.42956  0.89533  1.0000
  H   H24       1.0  0.49385  0.03964  0.86120  1.0000
  H   H25       1.0  0.59205  0.05069  0.73476  1.0000
  H   H26       1.0  0.53348  0.26145  0.82156  1.0000
  H   H27       1.0  0.35959  0.05055  0.76956  1.0000
  N   N2        1.0  0.28445  0.02181  0.74540  1.0000
  H   H28       1.0  0.34481  0.08724  0.68697  1.0000
  C   C18       1.0  0.56837  0.32115  0.81791  1.0000
  H   H29       1.0  0.45292  0.19800  0.71170  1.0000
  C   C19       1.0  0.47934  0.17998  0.85086  1.0000
  C   C20       1.0  0.40646  0.14233  0.80887  1.0000
  C   C21       1.0  0.42378  0.40928  0.81654  1.0000
  H   H30       1.0  0.36540  0.13529  0.79937  1.0000
  H   H31       1.0  0.42571  0.10098  0.76645  1.0000
  H   H32       1.0  0.76000  0.04638  0.86146  1.0000
  H   H33       1.0  0.61286  0.03673  0.92135  1.0000
  H   H34       1.0  0.54686  0.44176  0.70155  1.0000
  S   S9        1.0  0.53552  0.10868  0.77612  1.0000
  N   N3        1.0  0.45295  0.45659  0.73190  1.0000
  H   H35       1.0  0.73427  0.33516  0.86823  1.0000
  H   H36       1.0  0.68191  0.35535  0.77499  1.0000
  H   H37       1.0  0.51590  0.47194  0.79299  1.0000
  H   H38       1.0  0.55249  0.49348  0.70821  1.0000
  C   C22       1.0  0.41810  0.27389  0.74048  1.0000
  C   C23       1.0  0.30233  0.46881  0.85674  1.0000
  Fe  Fe4       1.0  0.61631  0.13726  0.78188  1.0000
  C   C24       1.0  0.51337  0.16082  0.83184  1.0000
  S   S10       1.0  0.76128  0.17569  0.78820  1.0000
  C   C25       1.0  0.28496  0.38152  0.89555  1.0000
  Fe  Fe5       1.0  0.57103  0.36553  0.91075  1.0000
  H   H39       1.0  0.45311  0.29238  0.75441  1.0000
  H   H40       1.0  0.48701  0.25434  0.91377  1.0000
  Fe  Fe6       1.0  0.72491  0.13258  0.85146  1.0000
  C   C26       1.0  0.41456  0.44652  0.76969  1.0000
  H   H41       1.0  0.33321  0.45124  0.85157  1.0000
  H   H42       1.0  0.64173  0.02010  0.72923  1.0000
  H   H43       1.0  0.51357  0.42167  0.78910  1.0000
  H   H44       1.0  0.55440  0.16836  0.84056  1.0000
  S   S11       1.0  0.27225  0.23578  0.73419  1.0000
  C   C27       1.0  0.64794  0.29505  0.78025  1.0000
  H   H45       1.0  0.45820  0.41454  0.84751  1.0000
  C   C28       1.0  0.59937  0.02359  0.72219  1.0000
  H   H46       1.0  0.43470  0.05870  0.91450  1.0000
  C   C29       1.0  0.49710  0.26574  0.68129  1.0000
  H   H47       1.0  0.57548  0.01773  0.84381  1.0000
  H   H48       1.0  0.27337  0.46763  0.77217  1.0000
  H   H49       1.0  0.75881  0.26767  0.68350  1.0000
  H   H50       1.0  0.28320  0.38972  0.85132  1.0000
  H   H51       1.0  0.50600  0.29878  0.67549  1.0000
  C   C30       1.0  0.26855  0.05521  0.69696  1.0000
  C   C31       1.0  0.37274  0.19647  0.67518  1.0000
  H   H52       1.0  0.58112  0.23897  0.00853  1.0000
  C   C32       1.0  0.45807  0.19604  0.99872  1.0000
  Fe  Fe7       1.0  0.67761  0.40505  0.94038  1.0000
  H   H53       1.0  0.46074  0.21065  0.11476  1.0000
  C   C33       1.0  0.41834  0.26182  0.96829  1.0000
  S   S12       1.0  0.74046  0.09782  0.10694  1.0000
  C   C34       1.0  0.33451  0.45012  0.95411  1.0000
  H   H54       1.0  0.64901  0.42416  0.15611  1.0000
  H   H55       1.0  0.26859  0.46147  0.15206  1.0000
  C   C35       1.0  0.36424  0.49002  0.96223  1.0000
  C   C36       1.0  0.40644  0.17671  0.01499  1.0000
  S   S13       1.0  0.66448  0.40903  0.02110  1.0000
  C   C37       1.0  0.45864  0.24208  0.09100  1.0000
  H   H56       1.0  0.66454  0.46359  0.10200  1.0000
  H   H57       1.0  0.68099  0.21205  0.94567  1.0000
  H   H58       1.0  0.69598  0.22414  0.13460  1.0000
  H   H59       1.0  0.39959  0.18400  0.05196  1.0000
  H   H60       1.0  0.64347  0.49777  0.94877  1.0000
  H   H61       1.0  0.38717  0.25124  0.99196  1.0000
  C   C38       1.0  0.74142  0.25883  0.93066  1.0000
  H   H62       1.0  0.58036  0.24818  0.93804  1.0000
  C   C39       1.0  0.64722  0.45679  0.13881  1.0000
  C   C40       1.0  0.72591  0.02924  0.98431  1.0000
  C   C41       1.0  0.65484  0.16733  0.12861  1.0000
  H   H63       1.0  0.66003  0.13469  0.13949  1.0000
  C   C42       1.0  0.74457  0.05011  0.93829  1.0000
  H   H64       1.0  0.64281  0.17586  0.08405  1.0000
  H   H65       1.0  0.40717  0.14357  0.02274  1.0000
  H   H66       1.0  0.72629  0.04400  0.01675  1.0000
  C   C43       1.0  0.32374  0.03941  0.11731  1.0000
  H   H67       1.0  0.76241  0.37904  0.01845  1.0000
  C   C44       1.0  0.61665  0.31435  0.15081  1.0000
  H   H68       1.0  0.50891  0.28160  0.04262  1.0000
  Fe  Fe8       1.0  0.62851  0.34653  0.02728  1.0000
  H   H69       1.0  0.51567  0.02533  0.01265  1.0000
  S   S14       1.0  0.54843  0.36644  0.98863  1.0000
  H   H70       1.0  0.72366  0.27737  0.95117  1.0000
  N   N4        1.0  0.46788  0.24077  0.99363  1.0000
  H   H71       1.0  0.60586  0.46412  0.12514  1.0000
  C   C45       1.0  0.30325  0.29288  0.06026  1.0000
  H   H72       1.0  0.31095  0.06786  0.08912  1.0000
  H   H73       1.0  0.47432  0.03035  0.11420  1.0000
  H   H74       1.0  0.28345  0.38819  0.06326  1.0000
  H   H75       1.0  0.41767  0.24902  0.07514  1.0000
  H   H76       1.0  0.75179  0.48483  0.06848  1.0000
  C   C46       1.0  0.27641  0.35637  0.06656  1.0000
  Fe  Fe9       1.0  0.39591  0.39659  0.10136  1.0000
  H   H77       1.0  0.36307  0.43179  0.94616  1.0000
  H   H78       1.0  0.49003  0.17958  0.02807  1.0000
  H   H79       1.0  0.73191  0.18977  0.11852  1.0000
  H   H80       1.0  0.44034  0.31790  0.99691  1.0000
  Fe  Fe10      1.0  0.42774  0.47695  0.13152  1.0000
  H   H81       1.0  0.55076  0.20220  0.96995  1.0000
  C   C47       1.0  0.60439  0.06336  0.98519  1.0000
  C   C48       1.0  0.55712  0.23459  0.96971  1.0000
  S   S15       1.0  0.37179  0.35796  0.04149  1.0000
  S   S16       1.0  0.64841  0.34080  0.95011  1.0000
  H   H82       1.0  0.35863  0.03144  0.10544  1.0000
  C   C49       1.0  0.50572  0.25591  0.95586  1.0000
  C   C50       1.0  0.30457  0.07258  0.94601  1.0000
  S   S17       1.0  0.55512  0.47850  0.00098  1.0000
  Fe  Fe11      1.0  0.71809  0.04040  0.16130  1.0000
  H   H83       1.0  0.54539  0.32674  0.09378  1.0000
  S   S18       1.0  0.76575  0.10085  0.93195  1.0000
  C   C51       1.0  0.49836  0.02506  0.96991  1.0000
  C   C52       1.0  0.72416  0.21500  0.95321  1.0000
  H   H84       1.0  0.34317  0.08726  0.94998  1.0000
  H   H85       1.0  0.51746  0.28808  0.95423  1.0000
  C   C53       1.0  0.49245  0.25014  0.04737  1.0000
  H   H86       1.0  0.33463  0.04541  0.15826  1.0000
  S   S19       1.0  0.47270  0.43080  0.11587  1.0000
  C   C54       1.0  0.47073  0.06434  0.94325  1.0000
  H   H87       1.0  0.61918  0.03907  0.01994  1.0000
  H   H88       1.0  0.40218  0.25462  0.92831  1.0000
  C   C55       1.0  0.56637  0.32750  0.13363  1.0000
  H   H89       1.0  0.63814  0.08454  0.97669  1.0000
  H   H90       1.0  0.32527  0.43394  0.99376  1.0000
  C   C56       1.0  0.31293  0.33416  0.05615  1.0000
  C   C57       1.0  0.29808  0.03103  0.96364  1.0000
  H   H91       1.0  0.52724  0.23253  0.06601  1.0000
  H   H92       1.0  0.47308  0.26251  0.11882  1.0000
  C   C58       1.0  0.42306  0.30787  0.95932  1.0000
  H   H93       1.0  0.50406  0.35238  0.15370  1.0000
  S   S20       1.0  0.35031  0.44533  0.10956  1.0000
  H   H94       1.0  0.37300  0.18535  0.98151  1.0000
  S   S21       1.0  0.64744  0.30045  0.10495  1.0000
  H   H95       1.0  0.33161  0.27566  0.05255  1.0000
  Fe  Fe12      1.0  0.58578  0.42870  0.97707  1.0000
  H   H96       1.0  0.73706  0.20566  0.99746  1.0000
  C   C59       1.0  0.70534  0.19209  0.14567  1.0000
  H   H97       1.0  0.62238  0.17356  0.14594  1.0000
  H   H98       1.0  0.32579  0.13384  0.14893  1.0000
  H   H99       1.0  0.46024  0.07684  0.97493  1.0000
  H   H100      1.0  0.57654  0.08017  0.99662  1.0000
  H   H101      1.0  0.39959  0.48324  0.99399  1.0000
  H   H102      1.0  0.45806  0.18813  0.95964  1.0000
  C   C60       1.0  0.54294  0.34236  0.16772  1.0000
  C   C61       1.0  0.47955  0.01009  0.15351  1.0000
  H   H103      1.0  0.38356  0.31933  0.94563  1.0000
  H   H104      1.0  0.73639  0.19418  0.93239  1.0000
  N   N5        1.0  0.53713  0.01497  0.94070  1.0000
  C   C62       1.0  0.58020  0.04746  0.93431  1.0000
  H   H105      1.0  0.44538  0.32204  0.92718  1.0000
  H   H106      1.0  0.37797  0.50742  0.92550  1.0000
  H   H107      1.0  0.74936  0.04554  0.33300  1.0000
  C   C63       1.0  0.52912  0.02735  0.39120  1.0000
  H   H108      1.0  0.75323  0.24216  0.20692  1.0000
  C   C64       1.0  0.45686  0.01727  0.19437  1.0000
  H   H109      1.0  0.37823  0.50097  0.34300  1.0000
  H   H110      1.0  0.49731  0.43856  0.35011  1.0000
  H   H111      1.0  0.31345  0.24545  0.33457  1.0000
  C   C65       1.0  0.66276  0.21068  0.23689  1.0000
  S   S22       1.0  0.54410  0.37106  0.25664  1.0000
  H   H112      1.0  0.74310  0.39289  0.29361  1.0000
  H   H113      1.0  0.31716  0.02307  0.41644  1.0000
  N   N6        1.0  0.66458  0.47133  0.23397  1.0000
  H   H114      1.0  0.27416  0.16366  0.35972  1.0000
  H   H115      1.0  0.64245  0.40831  0.24774  1.0000
  H   H116      1.0  0.66300  0.14696  0.38154  1.0000
  C   C66       1.0  0.54798  0.36681  0.39439  1.0000
  C   C67       1.0  0.74522  0.03941  0.37467  1.0000
  H   H117      1.0  0.48934  0.07659  0.33609  1.0000
  C   C68       1.0  0.55431  0.14114  0.33275  1.0000
  H   H118      1.0  0.31715  0.09821  0.34340  1.0000
  H   H119      1.0  0.52913  0.15115  0.35602  1.0000
  C   C69       1.0  0.45841  0.34298  0.36296  1.0000
  H   H120      1.0  0.37789  0.32652  0.33192  1.0000
  H   H121      1.0  0.62027  0.05672  0.35238  1.0000
  H   H122      1.0  0.68365  0.49349  0.30749  1.0000
  C   C70       1.0  0.67517  0.42846  0.26213  1.0000
  H   H123      1.0  0.39054  0.25863  0.29158  1.0000
  C   C71       1.0  0.59895  0.08254  0.32629  1.0000
  Fe  Fe13      1.0  0.40662  0.14028  0.41201  1.0000
  H   H124      1.0  0.72726  0.11674  0.20496  1.0000
  S   S23       1.0  0.41807  0.13866  0.33001  1.0000
  H   H125      1.0  0.62963  0.10497  0.31226  1.0000
  S   S24       1.0  0.43597  0.44985  0.22018  1.0000
  C   C72       1.0  0.40105  0.33412  0.36941  1.0000
  N   N7        1.0  0.73183  0.18010  0.20400  1.0000
  H   H126      1.0  0.58321  0.45503  0.20587  1.0000
  H   H127      1.0  0.68824  0.23396  0.25427  1.0000
  H   H128      1.0  0.50563  0.08258  0.40241  1.0000
  H   H129      1.0  0.34431  0.48423  0.28486  1.0000
  H   H130      1.0  0.71861  0.48179  0.17813  1.0000
  S   S25       1.0  0.68077  0.23043  0.37211  1.0000
  H   H131      1.0  0.57835  0.08680  0.23866  1.0000
  C   C73       1.0  0.69419  0.49992  0.26697  1.0000
  H   H132      1.0  0.42936  0.42090  0.34122  1.0000
  H   H133      1.0  0.67647  0.42378  0.30623  1.0000
  H   H134      1.0  0.49223  0.12759  0.26641  1.0000
  C   C74       1.0  0.31902  0.10585  0.30108  1.0000
  C   C75       1.0  0.52171  0.07291  0.37144  1.0000
  H   H135      1.0  0.59795  0.44358  0.30956  1.0000
  C   C76       1.0  0.27808  0.10774  0.20781  1.0000
  C   C77       1.0  0.72477  0.41179  0.25453  1.0000
  C   C78       1.0  0.61938  0.32975  0.23772  1.0000
  N   N8        1.0  0.49496  0.35659  0.40907  1.0000
  C   C79       1.0  0.36442  0.12479  0.28427  1.0000
  H   H136      1.0  0.71445  0.39131  0.22631  1.0000
  H   H137      1.0  0.32799  0.20376  0.31285  1.0000
  Fe  Fe14      1.0  0.47471  0.40092  0.20286  1.0000
  H   H138      1.0  0.45941  0.36523  0.32417  1.0000
  H   H139      1.0  0.34208  0.29170  0.25231  1.0000
  C   C80       1.0  0.46382  0.42838  0.37058  1.0000
  C   C81       1.0  0.57723  0.33116  0.39118  1.0000
  C   C82       1.0  0.69338  0.17396  0.24115  1.0000
  C   C83       1.0  0.63738  0.22685  0.41602  1.0000
  C   C84       1.0  0.64284  0.31457  0.20344  1.0000
  H   H140      1.0  0.47091  0.31496  0.35657  1.0000
  C   C85       1.0  0.58660  0.47180  0.28031  1.0000
  Fe  Fe15      1.0  0.36131  0.41511  0.19723  1.0000
  H   H141      1.0  0.61372  0.34285  0.37628  1.0000
  H   H142      1.0  0.28092  0.18224  0.23961  1.0000
  H   H143      1.0  0.58854  0.16287  0.33349  1.0000
  H   H144      1.0  0.66519  0.14821  0.23528  1.0000
  C   C86       1.0  0.70584  0.01227  0.39236  1.0000
  H   H145      1.0  0.38349  0.36028  0.37497  1.0000
  H   H146      1.0  0.27983  0.30600  0.30030  1.0000
  H   H147      1.0  0.54354  0.47073  0.27060  1.0000
  H   H148      1.0  0.35428  0.24823  0.22991  1.0000
  H   H149      1.0  0.63177  0.20164  0.26119  1.0000
  H   H150      1.0  0.68193  0.30468  0.21693  1.0000
  C   C87       1.0  0.75392  0.49949  0.27899  1.0000
  C   C88       1.0  0.31201  0.23393  0.29779  1.0000
  H   H151      1.0  0.68394  0.09679  0.40263  1.0000
  C   C89       1.0  0.57006  0.34502  0.21894  1.0000
  S   S26       1.0  0.64291  0.03525  0.19030  1.0000
  N   N9        1.0  0.56959  0.09895  0.35939  1.0000
  H   H152      1.0  0.55477  0.31374  0.36241  1.0000
  H   H153      1.0  0.40198  0.14874  0.21633  1.0000
  C   C90       1.0  0.60728  0.47684  0.22767  1.0000
  H   H154      1.0  0.45417  0.45428  0.38446  1.0000
  H   H155      1.0  0.75496  0.43442  0.24104  1.0000
  C   C91       1.0  0.67682  0.48259  0.17794  1.0000
  C   C92       1.0  0.58391  0.22768  0.39554  1.0000
  H   H156      1.0  0.50764  0.22555  0.41422  1.0000
  H   H157      1.0  0.49245  0.01206  0.40264  1.0000
  C   C93       1.0  0.66052  0.11839  0.41143  1.0000
  C   C94       1.0  0.60420  0.10097  0.41315  1.0000
  Fe  Fe16      1.0  0.76084  0.21089  0.41286  1.0000
  H   H158      1.0  0.54508  0.38816  0.35471  1.0000
  H   H159      1.0  0.56956  0.23066  0.35275  1.0000
  C   C95       1.0  0.35136  0.25977  0.26540  1.0000
  C   C96       1.0  0.52624  0.14877  0.27342  1.0000
  H   H160      1.0  0.64017  0.33093  0.27787  1.0000
  H   H161      1.0  0.71324  0.16586  0.28396  1.0000
  C   C97       1.0  0.56725  0.06811  0.27623  1.0000
  S   S27       1.0  0.30158  0.40196  0.25003  1.0000
  H   H162      1.0  0.55337  0.14837  0.24629  1.0000
  H   H163      1.0  0.51126  0.17923  0.26179  1.0000
  H   H164      1.0  0.57609  0.03687  0.27831  1.0000
  H   H165      1.0  0.52465  0.06771  0.27168  1.0000
  C   C98       1.0  0.36696  0.13420  0.22947  1.0000
  S   S28       1.0  0.40084  0.36391  0.18746  1.0000
  H   H166      1.0  0.59913  0.49781  0.29913  1.0000
  H   H167      1.0  0.43365  0.04284  0.18650  1.0000
  C   C99       1.0  0.32387  0.12581  0.19134  1.0000
  C   C100      1.0  0.75707  0.14127  0.21192  1.0000
  C   C101      1.0  0.47641  0.39324  0.41987  1.0000
  C   C102      1.0  0.27583  0.09704  0.26276  1.0000
  H   H168      1.0  0.64379  0.22404  0.19513  1.0000
  H   H169      1.0  0.53686  0.01410  0.35901  1.0000
  C   C103      1.0  0.27472  0.01503  0.41132  1.0000
  H   H170      1.0  0.39637  0.30795  0.40292  1.0000
  H   H171      1.0  0.76726  0.11835  0.29987  1.0000
  H   H172      1.0  0.26972  0.02593  0.20819  1.0000
  H   H173      1.0  0.27424  0.22751  0.19060  1.0000
  H   H174      1.0  0.57409  0.38306  0.42276  1.0000
  H   H175      1.0  0.76723  0.47131  0.30738  1.0000
  H   H176      1.0  0.59715  0.50705  0.20236  1.0000
  C   C104      1.0  0.54888  0.22490  0.43031  1.0000
  H   H177      1.0  0.41667  0.02711  0.49788  1.0000
  H   H178      1.0  0.53079  0.21610  0.66157  1.0000
  C   C105      1.0  0.57257  0.02412  0.66340  1.0000
  H   H179      1.0  0.71348  0.22619  0.63685  1.0000
  S   S29       1.0  0.31930  0.37097  0.55178  1.0000
  H   H180      1.0  0.31008  0.32445  0.44384  1.0000
  H   H181      1.0  0.64866  0.01283  0.61886  1.0000
  H   H182      1.0  0.72163  0.32372  0.53777  1.0000
  C   C106      1.0  0.55874  0.05548  0.56706  1.0000
  C   C107      1.0  0.54871  0.44177  0.58559  1.0000
  H   H183      1.0  0.57067  0.30819  0.51499  1.0000
  C   C108      1.0  0.48464  0.46822  0.50704  1.0000
  S   S30       1.0  0.39523  0.15660  0.55128  1.0000
  H   H184      1.0  0.57068  0.08047  0.53508  1.0000
  H   H185      1.0  0.71415  0.06120  0.57934  1.0000
  H   H186      1.0  0.32343  0.05170  0.64445  1.0000
  C   C109      1.0  0.49694  0.32341  0.45902  1.0000
  Fe  Fe17      1.0  0.40924  0.09978  0.53090  1.0000
  H   H187      1.0  0.41256  0.31225  0.66123  1.0000
  C   C110      1.0  0.54577  0.11079  0.63811  1.0000
  C   C111      1.0  0.50418  0.43587  0.54765  1.0000
  H   H188      1.0  0.52740  0.08992  0.66948  1.0000
  C   C112      1.0  0.73429  0.02331  0.48256  1.0000
  H   H189      1.0  0.39850  0.43318  0.67055  1.0000
  H   H190      1.0  0.37079  0.49383  0.65140  1.0000
  S   S31       1.0  0.34615  0.10691  0.45744  1.0000
  C   C113      1.0  0.53962  0.32926  0.50791  1.0000
  C   C114      1.0  0.31066  0.07362  0.66332  1.0000
  H   H191      1.0  0.55356  0.13997  0.65016  1.0000
  H   H192      1.0  0.45981  0.37710  0.67321  1.0000
  N   N10       1.0  0.59419  0.05524  0.62056  1.0000
  C   C115      1.0  0.67336  0.06959  0.57265  1.0000
  C   C116      1.0  0.73139  0.31836  0.58250  1.0000
  H   H193      1.0  0.44874  0.30392  0.58768  1.0000
  S   S32       1.0  0.34607  0.42957  0.43897  1.0000
  C   C117      1.0  0.53831  0.24866  0.65989  1.0000
  H   H194      1.0  0.50265  0.29453  0.44960  1.0000
  S   S33       1.0  0.47100  0.12727  0.48366  1.0000
  H   H195      1.0  0.51754  0.11614  0.59954  1.0000
  Fe  Fe18      1.0  0.27599  0.39662  0.46847  1.0000
  H   H196      1.0  0.36566  0.27171  0.66623  1.0000
  H   H197      1.0  0.67532  0.04804  0.65746  1.0000
  C   C118      1.0  0.27782  0.30238  0.44057  1.0000
  H   H198      1.0  0.65096  0.32358  0.58574  1.0000
  H   H199      1.0  0.62657  0.09826  0.66914  1.0000
  Fe  Fe19      1.0  0.33694  0.16635  0.47401  1.0000
  H   H200      1.0  0.27694  0.29665  0.62091  1.0000
  H   H201      1.0  0.35016  0.28223  0.57842  1.0000
  H   H202      1.0  0.50594  0.40557  0.44998  1.0000
  H   H203      1.0  0.56400  0.41677  0.61701  1.0000
  S   S34       1.0  0.46893  0.38948  0.55328  1.0000
  H   H204      1.0  0.53026  0.02696  0.66010  1.0000
  H   H205      1.0  0.61123  0.11953  0.59939  1.0000
  C   C119      1.0  0.64811  0.04482  0.61973  1.0000
  H   H206      1.0  0.63487  0.21854  0.54856  1.0000
  H   H207      1.0  0.66440  0.27443  0.58494  1.0000
  H   H208      1.0  0.65364  0.06304  0.53353  1.0000
  S   S35       1.0  0.37147  0.46183  0.55126  1.0000
  H   H209      1.0  0.32607  0.25200  0.45949  1.0000
  Fe  Fe20      1.0  0.38751  0.40819  0.52435  1.0000
  C   C120      1.0  0.68050  0.30080  0.60159  1.0000
  H   H210      1.0  0.69671  0.22246  0.48706  1.0000
  H   H211      1.0  0.73000  0.01739  0.52418  1.0000
  C   C121      1.0  0.37933  0.26895  0.56398  1.0000
  H   H212      1.0  0.27713  0.02859  0.48917  1.0000
  H   H213      1.0  0.54143  0.26491  0.61834  1.0000
  H   H214      1.0  0.45048  0.46387  0.47743  1.0000
  Fe  Fe21      1.0  0.32439  0.48037  0.46834  1.0000
  C   C122      1.0  0.62079  0.22162  0.50582  1.0000
  H   H215      1.0  0.44128  0.38555  0.43859  1.0000
  C   C123      1.0  0.28688  0.26161  0.44974  1.0000
  C   C124      1.0  0.57202  0.48059  0.58436  1.0000
  H   H216      1.0  0.72491  0.19894  0.59083  1.0000
  H   H217      1.0  0.56041  0.01947  0.42676  1.0000
  H   H218      1.0  0.45910  0.31887  0.47290  1.0000
  H   H219      1.0  0.51864  0.06121  0.56894  1.0000
  H   H220      1.0  0.29393  0.09818  0.62976  1.0000
  C   C125      1.0  0.43455  0.27185  0.59716  1.0000
  S   S36       1.0  0.39427  0.20032  0.42453  1.0000
  H   H221      1.0  0.52660  0.02044  0.50755  1.0000
  H   H222      1.0  0.67532  0.10224  0.57013  1.0000
  C   C126      1.0  0.42951  0.21164  0.67178  1.0000
  H   H223      1.0  0.38001  0.28626  0.52221  1.0000
  H   H224      1.0  0.44186  0.19710  0.64291  1.0000
  C   C127      1.0  0.59730  0.09638  0.63209  1.0000
  H   H225      1.0  0.73656  0.50510  0.52381  1.0000
  H   H226      1.0  0.34418  0.20921  0.63907  1.0000
  H   H227      1.0  0.36687  0.23762  0.56128  1.0000
  C   C128      1.0  0.50829  0.50667  0.50535  1.0000
  H   H228      1.0  0.45837  0.25550  0.57978  1.0000
  Fe  Fe22      1.0  0.45376  0.18464  0.50010  1.0000
  Fe  Fe23      1.0  0.30031  0.42611  0.57361  1.0000
  S   S37       1.0  0.52415  0.22140  0.52848  1.0000
  H   H229      1.0  0.73965  0.34854  0.59217  1.0000
  H   H230      1.0  0.55706  0.36017  0.50538  1.0000
  C   C129      1.0  0.74386  0.21902  0.61781  1.0000
  C   C130      1.0  0.55349  0.01624  0.54716  1.0000
  N   N11       1.0  0.44103  0.25651  0.65734  1.0000
  H   H231      1.0  0.58649  0.11869  0.43486  1.0000
  S   S38       1.0  0.28176  0.42170  0.65556  1.0000
  H   H232      1.0  0.46058  0.44502  0.65513  1.0000
  H   H233      1.0  0.60848  0.07092  0.44043  1.0000
  H   H234      1.0  0.68432  0.29362  0.64592  1.0000
  H   H235      1.0  0.60588  0.48525  0.61406  1.0000
  S   S39       1.0  0.41951  0.04651  0.60011  1.0000
  H   H236      1.0  0.52273  0.32131  0.54490  1.0000
  C   C131      1.0  0.56746  0.22262  0.48534  1.0000
  H   H237      1.0  0.58857  0.31071  0.43099  1.0000
  H   H238      1.0  0.67936  0.12398  0.45159  1.0000
  C   C132      1.0  0.65568  0.22338  0.47123  1.0000
  S   S40       1.0  0.74229  0.11533  0.67416  1.0000
  H   H239      1.0  0.75031  0.26071  0.54219  1.0000
  H   H240      1.0  0.41241  0.83697  0.90929  1.0000
  H   H241      1.0  0.29982  0.77532  0.84857  1.0000
  S   S41       1.0  0.53530  0.78708  0.82779  1.0000
  H   H242      1.0  0.62265  0.65708  0.78408  1.0000
  C   C133      1.0  0.52690  0.53124  0.85188  1.0000
  Fe  Fe24      1.0  0.72552  0.83430  0.84487  1.0000
  H   H243      1.0  0.76435  0.51374  0.91353  1.0000
  C   C134      1.0  0.55317  0.55586  0.81325  1.0000
  H   H244      1.0  0.74947  0.94904  0.72344  1.0000
  H   H245      1.0  0.45544  0.61382  0.74133  1.0000
  C   C135      1.0  0.39297  0.51340  0.67742  1.0000
  N   N12       1.0  0.64138  0.67743  0.85912  1.0000
  H   H246      1.0  0.46697  0.69855  0.91025  1.0000
  H   H247      1.0  0.57807  0.58906  0.92146  1.0000
  C   C136      1.0  0.49574  0.91915  0.68578  1.0000
  H   H248      1.0  0.31346  0.98564  0.85227  1.0000
  C   C137      1.0  0.62059  0.70610  0.88399  1.0000
  H   H249      1.0  0.64131  0.61348  0.86611  1.0000
  C   C138      1.0  0.30880  0.98955  0.73044  1.0000
  S   S42       1.0  0.67118  0.82575  0.90269  1.0000
  H   H250      1.0  0.54710  0.60531  0.74402  1.0000
  C   C139      1.0  0.27475  0.97055  0.68605  1.0000
  C   C140      1.0  0.39408  0.72033  0.86354  1.0000
  C   C141      1.0  0.42762  0.68527  0.89600  1.0000
  S   S43       1.0  0.66166  0.83047  0.77438  1.0000
  H   H251      1.0  0.37802  0.99476  0.83765  1.0000
  H   H252      1.0  0.72113  0.63212  0.84668  1.0000
  H   H253      1.0  0.36386  0.62066  0.88738  1.0000
  H   H254      1.0  0.73043  0.85481  0.68812  1.0000
  H   H255      1.0  0.54829  0.62763  0.86844  1.0000
  H   H256      1.0  0.52480  0.93751  0.70880  1.0000
  H   H257      1.0  0.38891  0.74098  0.88852  1.0000
  H   H258      1.0  0.52271  0.79916  0.71742  1.0000
  Fe  Fe25      1.0  0.64731  0.57157  0.73777  1.0000
  H   H259      1.0  0.28512  0.83949  0.70630  1.0000
  H   H260      1.0  0.34650  0.00082  0.71772  1.0000
  S   S44       1.0  0.60263  0.89378  0.81533  1.0000
  C   C142      1.0  0.72327  0.99114  0.89996  1.0000
  H   H261      1.0  0.74754  0.56047  0.86542  1.0000
  H   H262      1.0  0.51916  0.86313  0.73893  1.0000
  C   C143      1.0  0.44740  0.56460  0.80884  1.0000
  H   H263      1.0  0.66038  0.73062  0.76023  1.0000
  C   C144      1.0  0.72546  0.66498  0.83113  1.0000
  C   C145      1.0  0.54175  0.99646  0.85153  1.0000
  S   S45       1.0  0.38040  0.56878  0.80354  1.0000
  H   H264      1.0  0.55530  0.96595  0.87019  1.0000
  H   H265      1.0  0.55714  0.88134  0.69022  1.0000
  C   C146      1.0  0.44830  0.82241  0.91616  1.0000
  H   H266      1.0  0.46568  0.52007  0.73099  1.0000
  C   C147      1.0  0.61220  0.68077  0.80196  1.0000
  H   H267      1.0  0.62746  0.73754  0.86182  1.0000
  H   H268      1.0  0.47388  0.98966  0.88833  1.0000
  S   S46       1.0  0.73032  0.90135  0.82880  1.0000
  H   H269      1.0  0.46329  0.60751  0.90436  1.0000
  H   H270      1.0  0.56964  0.67523  0.80084  1.0000
  Fe  Fe26      1.0  0.35818  0.62147  0.73548  1.0000
  H   H271      1.0  0.43967  0.81807  0.83342  1.0000
  C   C148      1.0  0.58002  0.62188  0.90417  1.0000
  H   H272      1.0  0.31912  0.96467  0.76623  1.0000
  C   C149      1.0  0.46359  0.81155  0.87332  1.0000
  H   H273      1.0  0.57747  0.70226  0.87930  1.0000
  Fe  Fe27      1.0  0.32533  0.70715  0.70666  1.0000
  H   H274      1.0  0.29492  0.94538  0.68103  1.0000
  H   H275      1.0  0.32733  0.65674  0.89720  1.0000
  H   H276      1.0  0.44092  0.82658  0.72600  1.0000
  H   H277      1.0  0.72212  0.97666  0.86718  1.0000
  C   C150      1.0  0.63403  0.63464  0.88949  1.0000
  C   C151      1.0  0.52696  0.58558  0.77338  1.0000
  C   C152      1.0  0.61921  0.72142  0.76256  1.0000
  C   C153      1.0  0.51106  0.79418  0.88181  1.0000
  H   H278      1.0  0.37072  0.51504  0.70861  1.0000
  C   C154      1.0  0.47451  0.59030  0.77178  1.0000
  Fe  Fe28      1.0  0.30403  0.88882  0.89554  1.0000
  H   H279      1.0  0.72652  0.80053  0.70095  1.0000
  Fe  Fe29      1.0  0.66089  0.89704  0.76288  1.0000
  H   H280      1.0  0.58291  0.99741  0.74917  1.0000
  H   H281      1.0  0.70643  0.72065  0.84529  1.0000
  S   S47       1.0  0.64290  0.93206  0.67767  1.0000
  H   H282      1.0  0.43354  0.66839  0.86649  1.0000
  H   H283      1.0  0.41411  0.73840  0.83119  1.0000
  S   S48       1.0  0.30184  0.75546  0.73885  1.0000
  H   H284      1.0  0.71078  0.67250  0.78697  1.0000
  C   C155      1.0  0.69866  0.68794  0.86107  1.0000
  S   S49       1.0  0.61868  0.54935  0.81568  1.0000
  S   S50       1.0  0.28076  0.64850  0.70261  1.0000
  C   C156      1.0  0.51633  0.87720  0.69519  1.0000
  C   C157      1.0  0.74720  0.94582  0.68273  1.0000
  Fe  Fe30      1.0  0.60762  0.82742  0.83072  1.0000
  C   C158      1.0  0.47391  0.53519  0.84929  1.0000
  S   S51       1.0  0.65858  0.52549  0.69393  1.0000
  Fe  Fe31      1.0  0.67155  0.89270  0.88232  1.0000
  H   H285      1.0  0.51721  0.99523  0.81163  1.0000
  H   H286      1.0  0.45386  0.51546  0.87875  1.0000
  S   S52       1.0  0.72869  0.59844  0.74035  1.0000
  S   S53       1.0  0.40032  0.67951  0.74653  1.0000
  H   H287      1.0  0.35574  0.70984  0.84311  1.0000
  H   H288      1.0  0.59935  0.71859  0.72146  1.0000
  H   H289      1.0  0.72007  0.68204  0.90360  1.0000
  H   H290      1.0  0.60059  0.74537  0.77242  1.0000
  C   C159      1.0  0.35751  0.63536  0.91912  1.0000
  Fe  Fe32      1.0  0.73759  0.55568  0.69099  1.0000
  C   C160      1.0  0.43403  0.83940  0.68159  1.0000
  S   S54       1.0  0.27146  0.88994  0.80868  1.0000
  H   H291      1.0  0.45928  0.91772  0.70120  1.0000
  H   H292      1.0  0.76770  0.67374  0.83769  1.0000
  C   C161      1.0  0.76009  0.52987  0.87068  1.0000
  H   H293      1.0  0.72766  0.51357  0.84809  1.0000
  H   H294      1.0  0.54737  0.50856  0.88331  1.0000
  H   H295      1.0  0.41252  0.86673  0.67497  1.0000
  Fe  Fe33      1.0  0.33917  0.93968  0.97875  1.0000
  H   H296      1.0  0.72789  0.81227  0.16075  1.0000
  H   H297      1.0  0.61390  0.70804  0.96580  1.0000
  H   H298      1.0  0.30295  0.61880  0.97568  1.0000
  S   S55       1.0  0.35309  0.00291  0.99010  1.0000
  C   C162      1.0  0.70514  0.98971  0.98768  1.0000
  C   C163      1.0  0.53198  0.58866  0.11017  1.0000
  H   H299      1.0  0.53576  0.85912  0.12528  1.0000
  C   C164      1.0  0.52437  0.93850  0.97925  1.0000
  H   H300      1.0  0.58713  0.80571  0.12474  1.0000
  H   H301      1.0  0.54755  0.91247  0.00154  1.0000
  C   C165      1.0  0.39271  0.68019  0.97953  1.0000
  C   C166      1.0  0.64581  0.51723  0.97627  1.0000
  H   H302      1.0  0.57866  0.53902  0.06289  1.0000
  H   H303      1.0  0.32858  0.57571  0.10002  1.0000
  H   H304      1.0  0.49488  0.93993  0.00345  1.0000
  C   C167      1.0  0.66941  0.82150  0.06311  1.0000
  N   N13       1.0  0.28940  0.96647  0.15046  1.0000
  H   H305      1.0  0.57939  0.77369  0.93938  1.0000
  H   H306      1.0  0.30599  0.52517  0.10096  1.0000
  C   C168      1.0  0.65421  0.77636  0.06774  1.0000
  C   C169      1.0  0.45570  0.59552  0.94571  1.0000
  S   S56       1.0  0.38113  0.91818  0.92508  1.0000
  H   H307      1.0  0.33208  0.95369  0.09404  1.0000
  H   H308      1.0  0.68920  0.97395  0.02241  1.0000
  H   H309      1.0  0.74413  0.88697  0.05408  1.0000
  C   C170      1.0  0.49537  0.56239  0.13497  1.0000
  C   C171      1.0  0.52653  0.79657  0.97576  1.0000
  C   C172      1.0  0.68816  0.54510  0.98178  1.0000
  C   C173      1.0  0.34517  0.90601  0.16577  1.0000
  C   C174      1.0  0.57577  0.60406  0.14160  1.0000
  S   S57       1.0  0.69973  0.98629  0.12611  1.0000
  C   C175      1.0  0.51031  0.97733  0.16413  1.0000
  Fe  Fe34      1.0  0.75131  0.62639  0.09922  1.0000
  H   H310      1.0  0.32911  0.71416  0.06180  1.0000
  H   H311      1.0  0.31008  0.58025  0.94153  1.0000
  H   H312      1.0  0.68377  0.75807  0.09766  1.0000
  S   S58       1.0  0.67477  0.92188  0.95108  1.0000
  Fe  Fe35      1.0  0.62687  0.97934  0.15923  1.0000
  H   H313      1.0  0.35883  0.58915  0.99596  1.0000
  H   H314      1.0  0.66327  0.62779  0.92721  1.0000
  Fe  Fe36      1.0  0.28085  0.85874  0.00880  1.0000
  C   C176      1.0  0.29396  0.72212  0.07097  1.0000
  Fe  Fe37      1.0  0.39082  0.86231  0.99048  1.0000
  C   C177      1.0  0.44744  0.62891  0.97297  1.0000
  S   S59       1.0  0.70147  0.67135  0.11018  1.0000
  H   H315      1.0  0.31565  0.88516  0.14768  1.0000
  H   H316      1.0  0.45185  0.73069  0.97177  1.0000
  H   H317      1.0  0.67284  0.89757  0.12792  1.0000
  S   S60       1.0  0.35573  0.88606  0.04672  1.0000
  H   H318      1.0  0.66326  0.67702  0.96604  1.0000
  C   C178      1.0  0.48030  0.81532  0.96726  1.0000
  H   H319      1.0  0.46660  0.00106  0.97353  1.0000
  H   H320      1.0  0.37184  0.96778  0.15066  1.0000
  H   H321      1.0  0.35923  0.69902  0.95943  1.0000
  C   C179      1.0  0.60623  0.51514  0.00539  1.0000
  H   H322      1.0  0.59364  0.97033  0.95559  1.0000
  H   H323      1.0  0.58001  0.84105  0.06188  1.0000
  H   H324      1.0  0.60449  0.62360  0.12228  1.0000
  H   H325      1.0  0.61607  0.76703  0.07953  1.0000
  C   C180      1.0  0.60909  0.54101  0.04005  1.0000
  H   H326      1.0  0.38375  0.89915  0.16047  1.0000
  H   H327      1.0  0.48987  0.57881  0.96978  1.0000
  C   C181      1.0  0.33532  0.95022  0.13817  1.0000
  H   H328      1.0  0.64948  0.83821  0.02293  1.0000
  H   H329      1.0  0.42206  0.57326  0.94447  1.0000
  H   H330      1.0  0.34108  0.50876  0.97661  1.0000
  H   H331      1.0  0.65456  0.58808  0.07364  1.0000
  H   H332      1.0  0.71139  0.82452  0.06126  1.0000
  H   H333      1.0  0.35101  0.62172  0.15528  1.0000
  S   S61       1.0  0.31706  0.83120  0.95655  1.0000
  C   C182      1.0  0.70333  0.97074  0.94551  1.0000
  C   C183      1.0  0.33103  0.60440  0.96072  1.0000
  C   C184      1.0  0.68625  0.81510  0.16076  1.0000
  H   H334      1.0  0.58235  0.89738  0.10349  1.0000
  H   H335      1.0  0.71821  0.54705  0.95861  1.0000
  H   H336      1.0  0.52759  0.59603  0.06679  1.0000
  C   C185      1.0  0.28663  0.76237  0.06822  1.0000
  S   S62       1.0  0.54537  0.97150  0.11656  1.0000
  C   C186      1.0  0.57823  0.86638  0.12783  1.0000
  C   C187      1.0  0.73696  0.89058  0.09313  1.0000
  C   C188      1.0  0.67895  0.88245  0.09690  1.0000
  C   C189      1.0  0.60079  0.83619  0.10461  1.0000
  N   N14       1.0  0.65903  0.83907  0.10758  1.0000
  H   H337      1.0  0.31702  0.78504  0.05906  1.0000
  S   S63       1.0  0.46398  0.83032  0.02078  1.0000
  H   H338      1.0  0.65617  0.89932  0.05854  1.0000
  C   C190      1.0  0.65218  0.56836  0.04649  1.0000
  H   H339      1.0  0.43945  0.61423  0.01367  1.0000
  H   H340      1.0  0.57947  0.97956  0.01454  1.0000
  H   H341      1.0  0.55023  0.79042  0.01529  1.0000
  C   C191      1.0  0.30801  0.54949  0.12269  1.0000
  H   H342      1.0  0.42269  0.72305  0.02948  1.0000
  C   C192      1.0  0.69172  0.57026  0.01732  1.0000
  H   H343      1.0  0.65323  0.76885  0.02835  1.0000
  H   H344      1.0  0.46996  0.68963  0.02908  1.0000
  S   S64       1.0  0.74535  0.60454  0.02381  1.0000
  N   N15       1.0  0.40626  0.65743  0.94195  1.0000
  S   S65       1.0  0.44121  0.54241  0.09581  1.0000
  H   H345      1.0  0.37919  0.65914  0.01451  1.0000
  C   C193      1.0  0.56123  0.97665  0.97301  1.0000
  C   C194      1.0  0.43733  0.70723  0.00346  1.0000
  H   H346      1.0  0.66795  0.51435  0.15872  1.0000
  H   H347      1.0  0.48589  0.64544  0.98114  1.0000
  H   H348      1.0  0.74891  0.92216  0.09499  1.0000
  H   H349      1.0  0.50524  0.93164  0.94006  1.0000
  H   H350      1.0  0.40396  0.59162  0.16469  1.0000
  H   H351      1.0  0.27114  0.00418  0.07043  1.0000
  C   C195      1.0  0.54242  0.78658  0.93298  1.0000
  H   H352      1.0  0.57322  0.63658  0.93543  1.0000
  H   H353      1.0  0.67023  0.78345  0.16739  1.0000
  C   C196      1.0  0.64471  0.70511  0.94392  1.0000
  H   H354      1.0  0.67457  0.73024  0.94711  1.0000
  H   H355      1.0  0.76235  0.87148  0.12677  1.0000
  H   H356      1.0  0.59519  0.86561  0.17054  1.0000
  C   C197      1.0  0.27907  0.00680  0.11306  1.0000
  C   C198      1.0  0.54444  0.56916  0.22254  1.0000
  H   H357      1.0  0.26897  0.55142  0.23260  1.0000
  H   H358      1.0  0.54905  0.56183  0.26602  1.0000
  H   H359      1.0  0.41564  0.53628  0.26317  1.0000
  H   H360      1.0  0.51191  0.72066  0.41865  1.0000
  H   H361      1.0  0.51094  0.68302  0.38046  1.0000
  H   H362      1.0  0.31306  0.50894  0.19967  1.0000
  H   H363      1.0  0.28552  0.75306  0.39353  1.0000
  H   H364      1.0  0.47388  0.53218  0.21040  1.0000
  C   C199      1.0  0.68235  0.82849  0.21211  1.0000
  N   N16       1.0  0.34729  0.56596  0.21553  1.0000
  H   H365      1.0  0.62756  0.83681  0.32120  1.0000
  H   H366      1.0  0.54265  0.92687  0.22404  1.0000
  Fe  Fe38      1.0  0.70255  0.63267  0.19321  1.0000
  S   S66       1.0  0.32191  0.54297  0.41767  1.0000
  H   H367      1.0  0.42789  0.65491  0.19460  1.0000
  S   S67       1.0  0.66240  0.98881  0.34752  1.0000
  H   H368      1.0  0.63071  0.90638  0.35222  1.0000
  H   H369      1.0  0.67841  0.80329  0.33850  1.0000
  H   H370      1.0  0.30184  0.93930  0.23601  1.0000
  H   H371      1.0  0.42324  0.67291  0.38498  1.0000
  C   C200      1.0  0.43916  0.61082  0.39526  1.0000
  C   C201      1.0  0.42313  0.64472  0.41677  1.0000
  H   H372      1.0  0.39238  0.56800  0.29537  1.0000
  H   H373      1.0  0.43105  0.58098  0.42094  1.0000
  C   C202      1.0  0.49437  0.95833  0.25564  1.0000
  H   H374      1.0  0.27481  0.99025  0.27045  1.0000
  H   H375      1.0  0.56809  0.93466  0.37783  1.0000
  H   H376      1.0  0.32727  0.60010  0.29608  1.0000
  H   H377      1.0  0.71711  0.81933  0.24359  1.0000
  C   C203      1.0  0.50190  0.55242  0.19117  1.0000
  H   H378      1.0  0.48041  0.61422  0.39091  1.0000
  S   S68       1.0  0.74586  0.58513  0.17862  1.0000
  C   C204      1.0  0.37917  0.54658  0.26913  1.0000
  C   C205      1.0  0.30185  0.96958  0.20866  1.0000
  C   C206      1.0  0.46362  0.99096  0.24516  1.0000
  C   C207      1.0  0.51816  0.95178  0.21539  1.0000
  S   S69       1.0  0.33080  0.92582  0.36010  1.0000
  H   H379      1.0  0.71789  0.91610  0.41303  1.0000
  H   H380      1.0  0.34176  0.98325  0.21894  1.0000
  H   H381      1.0  0.38164  0.63735  0.41996  1.0000
  C   C208      1.0  0.52584  0.69120  0.41977  1.0000
  C   C209      1.0  0.35214  0.51061  0.30341  1.0000
  H   H382      1.0  0.63049  0.79545  0.37999  1.0000
  S   S70       1.0  0.63680  0.61264  0.23776  1.0000
  S   S71       1.0  0.76093  0.00746  0.24117  1.0000
  C   C210      1.0  0.37762  0.60152  0.18684  1.0000
  H   H383      1.0  0.37380  0.52335  0.17931  1.0000
  S   S72       1.0  0.43276  0.99833  0.29519  1.0000
  C   C211      1.0  0.65365  0.81888  0.35588  1.0000
  Fe  Fe39      1.0  0.68320  0.99654  0.26653  1.0000
  H   H384      1.0  0.58824  0.86419  0.37116  1.0000
  H   H385      1.0  0.39187  0.63882  0.24765  1.0000
  Fe  Fe40      1.0  0.41205  0.93812  0.34457  1.0000
  Fe  Fe41      1.0  0.33240  0.86883  0.33376  1.0000
  S   S73       1.0  0.41173  0.88286  0.31328  1.0000
  H   H386      1.0  0.72096  0.82707  0.41458  1.0000
  H   H387      1.0  0.70745  0.86969  0.36097  1.0000
  H   H388      1.0  0.68296  0.86124  0.20695  1.0000
  H   H389      1.0  0.31591  0.51881  0.31222  1.0000
  H   H390      1.0  0.64691  0.81446  0.22755  1.0000
  H   H391      1.0  0.30173  0.63815  0.23757  1.0000
  H   H392      1.0  0.27113  0.61686  0.38183  1.0000
  C   C212      1.0  0.29713  0.60633  0.25920  1.0000
  S   S74       1.0  0.36309  0.83419  0.41640  1.0000
  C   C213      1.0  0.68905  0.84593  0.38992  1.0000
  H   H393      1.0  0.68334  0.53122  0.24758  1.0000
  H   H394      1.0  0.27440  0.59381  0.18140  1.0000
  C   C214      1.0  0.58639  0.91065  0.41114  1.0000
  Fe  Fe42      1.0  0.44262  0.85322  0.39905  1.0000
  H   H395      1.0  0.50077  0.93854  0.29517  1.0000
  C   C215      1.0  0.33677  0.53517  0.18140  1.0000
  C   C216      1.0  0.58190  0.59442  0.19779  1.0000
  C   C217      1.0  0.29573  0.57799  0.22115  1.0000
  S   S75       1.0  0.66178  0.94012  0.23726  1.0000
  Fe  Fe43      1.0  0.73691  0.95239  0.20787  1.0000
  H   H396      1.0  0.34585  0.89952  0.20953  1.0000
  H   H397      1.0  0.41526  0.61136  0.35472  1.0000
  C   C218      1.0  0.41277  0.62802  0.22166  1.0000
  H   H398      1.0  0.44721  0.61209  0.24648  1.0000
  C   C219      1.0  0.61765  0.88585  0.38783  1.0000
  H   H399      1.0  0.74217  0.64083  0.48022  1.0000
  C   C220      1.0  0.27712  0.60858  0.42539  1.0000
  H   H400      1.0  0.74038  0.86165  0.52773  1.0000
  H   H401      1.0  0.43873  0.80652  0.49906  1.0000
  H   H402      1.0  0.44109  0.88838  0.59288  1.0000
  C   C221      1.0  0.50403  0.73370  0.59290  1.0000
  Fe  Fe44      1.0  0.36709  0.89202  0.44160  1.0000
  C   C222      1.0  0.54707  0.75628  0.51627  1.0000
  H   H403      1.0  0.37341  0.71100  0.50394  1.0000
  H   H404      1.0  0.70214  0.82980  0.63567  1.0000
  H   H405      1.0  0.29909  0.57961  0.58168  1.0000
  C   C223      1.0  0.47282  0.61621  0.57111  1.0000
  C   C224      1.0  0.44794  0.61354  0.51279  1.0000
  Fe  Fe45      1.0  0.69808  0.63917  0.66159  1.0000
  H   H406      1.0  0.46564  0.58700  0.59876  1.0000
  H   H407      1.0  0.49250  0.53158  0.47424  1.0000
  H   H408      1.0  0.60873  0.92573  0.44230  1.0000
  Fe  Fe46      1.0  0.30382  0.65844  0.62172  1.0000
  S   S76       1.0  0.49858  0.70018  0.65370  1.0000
  H   H409      1.0  0.58079  0.78513  0.66518  1.0000
  C   C225      1.0  0.74184  0.93928  0.57690  1.0000
  C   C226      1.0  0.69615  0.93664  0.59727  1.0000
  C   C227      1.0  0.55109  0.51317  0.54480  1.0000
  H   H410      1.0  0.40695  0.77864  0.67211  1.0000
  S   S77       1.0  0.57593  0.56252  0.54423  1.0000
  H   H411      1.0  0.53575  0.99115  0.57453  1.0000
  H   H412      1.0  0.43929  0.71384  0.44917  1.0000
  H   H413      1.0  0.52895  0.63026  0.46641  1.0000
  H   H414      1.0  0.48720  0.78783  0.65749  1.0000
  H   H415      1.0  0.59195  0.83736  0.66282  1.0000
  H   H416      1.0  0.65713  0.86576  0.53323  1.0000
  H   H417      1.0  0.48983  0.93528  0.64291  1.0000
  H   H418      1.0  0.55360  0.81918  0.60568  1.0000
  H   H419      1.0  0.56883  0.69511  0.42447  1.0000
  C   C228      1.0  0.69958  0.00482  0.44595  1.0000
  H   H420      1.0  0.55546  0.89604  0.60471  1.0000
  S   S78       1.0  0.37696  0.62635  0.65392  1.0000
  C   C229      1.0  0.64723  0.83144  0.46874  1.0000
  S   S79       1.0  0.71147  0.59800  0.61218  1.0000
  H   H421      1.0  0.59092  0.85629  0.50260  1.0000
  N   N17       1.0  0.48489  0.84969  0.66179  1.0000
  C   C230      1.0  0.75049  0.87592  0.48798  1.0000
  H   H422      1.0  0.27870  0.80763  0.50548  1.0000
  C   C231      1.0  0.51191  0.65819  0.46741  1.0000
  H   H423      1.0  0.39552  0.54397  0.65149  1.0000
  H   H424      1.0  0.45919  0.84497  0.57887  1.0000
  H   H425      1.0  0.57614  0.71204  0.58780  1.0000
  C   C232      1.0  0.37956  0.96960  0.61148  1.0000
  S   S80       1.0  0.50725  0.81088  0.42479  1.0000
  H   H426      1.0  0.37363  0.65798  0.52564  1.0000
  C   C233      1.0  0.73379  0.82854  0.67155  1.0000
  C   C234      1.0  0.36003  0.93522  0.59251  1.0000
  N   N18       1.0  0.45486  0.65077  0.46976  1.0000
  H   H427      1.0  0.68631  0.91287  0.46675  1.0000
  H   H428      1.0  0.66830  0.98457  0.45939  1.0000
  S   S81       1.0  0.61512  0.61652  0.66288  1.0000
  H   H429      1.0  0.37857  0.97074  0.65238  1.0000
  C   C235      1.0  0.39532  0.80981  0.65521  1.0000
  H   H430      1.0  0.38946  0.81707  0.61065  1.0000
  C   C236      1.0  0.39919  0.00287  0.57714  1.0000
  C   C237      1.0  0.30840  0.56270  0.50976  1.0000
  C   C238      1.0  0.30135  0.57346  0.45343  1.0000
  S   S82       1.0  0.44880  0.90962  0.42935  1.0000
  Fe  Fe47      1.0  0.41571  0.68596  0.66380  1.0000
  C   C239      1.0  0.38381  0.96631  0.50613  1.0000
  H   H431      1.0  0.65883  0.93204  0.57210  1.0000
  H   H432      1.0  0.57530  0.99362  0.65763  1.0000
  C   C240      1.0  0.26971  0.75620  0.42862  1.0000
  H   H433      1.0  0.68004  0.81174  0.48807  1.0000
  C   C241      1.0  0.46794  0.78537  0.51721  1.0000
  H   H434      1.0  0.26790  0.99234  0.64671  1.0000
  C   C242      1.0  0.36228  0.93357  0.53992  1.0000
  Fe  Fe48      1.0  0.63129  0.57181  0.61898  1.0000
  H   H435      1.0  0.53417  0.66687  0.50469  1.0000
  H   H436      1.0  0.38552  0.96507  0.46540  1.0000
  H   H437      1.0  0.40613  0.60411  0.51167  1.0000
  C   C243      1.0  0.40133  0.00136  0.52443  1.0000
  C   C244      1.0  0.69914  0.93902  0.65065  1.0000
  S   S83       1.0  0.34380  0.71881  0.62404  1.0000
  H   H438      1.0  0.43265  0.76106  0.58622  1.0000
  S   S84       1.0  0.73256  0.70156  0.63745  1.0000
  C   C245      1.0  0.56256  0.81432  0.65021  1.0000
  C   C246      1.0  0.51832  0.89334  0.57663  1.0000
  C   C247      1.0  0.46498  0.75996  0.56727  1.0000
  H   H439      1.0  0.51552  0.62203  0.57636  1.0000
  C   C248      1.0  0.43665  0.68683  0.48225  1.0000
  H   H440      1.0  0.34328  0.90987  0.61854  1.0000
  H   H441      1.0  0.59101  0.00768  0.54161  1.0000
  C   C249      1.0  0.38056  0.68343  0.49214  1.0000
  H   H442      1.0  0.73162  0.51511  0.61374  1.0000
  H   H443      1.0  0.46518  0.58779  0.50538  1.0000
  H   H444      1.0  0.61525  0.81201  0.45169  1.0000
  H   H445      1.0  0.45599  0.63926  0.58457  1.0000
  H   H446      1.0  0.57779  0.75338  0.49597  1.0000
  C   C250      1.0  0.47359  0.86839  0.60220  1.0000
  C   C251      1.0  0.54601  0.73266  0.56815  1.0000
  H   H447      1.0  0.50627  0.92414  0.55673  1.0000
  H   H448      1.0  0.32675  0.53554  0.53171  1.0000
  H   H449      1.0  0.62612  0.81694  0.54788  1.0000
  C   C252      1.0  0.29287  0.58774  0.53813  1.0000
  C   C253      1.0  0.50783  0.78268  0.49065  1.0000
  H   H450      1.0  0.52613  0.88009  0.54435  1.0000
  C   C254      1.0  0.70317  0.89417  0.44654  1.0000
  H   H451      1.0  0.73991  0.93767  0.53582  1.0000
  C   C255      1.0  0.62958  0.84399  0.51513  1.0000
  S   S85       1.0  0.33867  0.89030  0.51704  1.0000
  H   H452      1.0  0.27773  0.97735  0.48993  1.0000
  H   H453      1.0  0.46229  0.69431  0.51820  1.0000
  H   H454      1.0  0.35673  0.81114  0.66513  1.0000
  H   H455      1.0  0.30341  0.76566  0.45717  1.0000
  C   C256      1.0  0.26834  0.62273  0.50996  1.0000
  H   H456      1.0  0.76424  0.68238  0.51087  1.0000
  H   H457      1.0  0.35177  0.68154  0.45506  1.0000
  C   C257      1.0  0.51265  0.81159  0.67332  1.0000
  H   H458      1.0  0.55368  0.89193  0.42666  1.0000
  H   H459      1.0  0.76525  0.60134  0.43044  1.0000
  H   H460      1.0  0.47125  0.50812  0.66994  1.0000
  N   N19       1.0  0.66343  0.86444  0.42454  1.0000
  H   H461      1.0  0.09557  0.23433  0.77957  1.0000
  H   H462      1.0  0.01129  0.33091  0.70679  1.0000
  H   H463      1.0  0.84015  0.44061  0.70133  1.0000
  H   H464      1.0  0.01792  0.22665  0.82156  1.0000
  H   H465      1.0  0.00641  0.18500  0.75145  1.0000
  H   H466      1.0  0.88154  0.37563  0.84406  1.0000
  C   C258      1.0  0.14459  0.43853  0.69158  1.0000
  H   H467      1.0  0.83439  0.19558  0.88169  1.0000
  C   C259      1.0  0.77613  0.33566  0.86698  1.0000
  Fe  Fe49      1.0  0.22708  0.18127  0.71232  1.0000
  C   C260      1.0  0.08463  0.25925  0.79225  1.0000
  C   C261      1.0  0.98084  0.38544  0.71345  1.0000
  C   C262      1.0  0.25810  0.47247  0.80672  1.0000
  H   H468      1.0  0.78129  0.32259  0.83359  1.0000
  H   H469      1.0  0.90541  0.34901  0.77997  1.0000
  H   H470      1.0  0.00692  0.10430  0.77965  1.0000
  C   C263      1.0  0.24991  0.48169  0.91734  1.0000
  H   H471      1.0  0.93548  0.09374  0.90547  1.0000
  C   C264      1.0  0.81522  0.08725  0.76369  1.0000
  C   C265      1.0  0.05764  0.32280  0.82826  1.0000
  H   H472      1.0  0.21446  0.40868  0.73343  1.0000
  H   H473      1.0  0.17787  0.01440  0.80992  1.0000
  C   C266      1.0  0.85659  0.03809  0.71399  1.0000
  C   C267      1.0  0.00124  0.45479  0.76535  1.0000
  S   S86       1.0  0.94439  0.02654  0.79270  1.0000
  C   C268      1.0  0.11470  0.29553  0.78592  1.0000
  H   H474      1.0  0.95124  0.20767  0.70510  1.0000
  S   S87       1.0  0.15645  0.19000  0.74192  1.0000
  H   H475      1.0  0.10792  0.23721  0.92075  1.0000
  S   S88       1.0  0.15853  0.10384  0.87623  1.0000
  H   H476      1.0  0.79349  0.25427  0.85848  1.0000
  H   H477      1.0  0.84074  0.25528  0.73741  1.0000
  Fe  Fe50      1.0  0.20379  0.24176  0.76941  1.0000
  H   H478      1.0  0.87988  0.07239  0.82913  1.0000
  Fe  Fe51      1.0  0.19496  0.15366  0.82121  1.0000
  H   H479      1.0  0.12482  0.42868  0.72542  1.0000
  C   C269      1.0  0.99314  0.20308  0.71046  1.0000
  H   H480      1.0  0.91911  0.46012  0.73699  1.0000
  N   N20       1.0  0.93622  0.40170  0.72845  1.0000
  C   C270      1.0  0.81239  0.05891  0.68669  1.0000
  C   C271      1.0  0.88218  0.04398  0.76461  1.0000
  H   H481      1.0  0.14185  0.20602  0.89602  1.0000
  H   H482      1.0  0.82232  0.38817  0.72671  1.0000
  H   H483      1.0  0.21385  0.48264  0.88598  1.0000
  H   H484      1.0  0.20587  0.05957  0.77375  1.0000
  C   C272      1.0  0.83996  0.20954  0.91683  1.0000
  S   S89       1.0  0.26130  0.13988  0.78871  1.0000
  H   H485      1.0  0.95454  0.46204  0.68587  1.0000
  C   C273      1.0  0.04045  0.11117  0.75881  1.0000
  H   H486      1.0  0.92559  0.09800  0.69051  1.0000
  C   C274      1.0  0.84111  0.26614  0.69363  1.0000
  H   H487      1.0  0.92979  0.41515  0.84185  1.0000
  H   H488      1.0  0.12356  0.35576  0.79794  1.0000
  C   C275      1.0  0.25879  0.41207  0.91455  1.0000
  C   C276      1.0  0.95029  0.44549  0.72738  1.0000
  H   H489      1.0  0.25544  0.08047  0.70961  1.0000
  H   H490      1.0  0.93959  0.13479  0.72899  1.0000
  H   H491      1.0  0.88061  0.36642  0.68156  1.0000
  H   H492      1.0  0.87231  0.01931  0.69436  1.0000
  H   H493      1.0  0.24170  0.03195  0.83665  1.0000
  H   H494      1.0  0.95376  0.03124  0.91971  1.0000
  H   H495      1.0  0.06224  0.12050  0.68262  1.0000
  C   C277      1.0  0.97307  0.34169  0.70683  1.0000
  H   H496      1.0  0.96594  0.36989  0.80947  1.0000
  C   C278      1.0  0.08874  0.48195  0.89188  1.0000
  H   H497      1.0  0.00296  0.48654  0.76835  1.0000
  S   S90       1.0  0.17118  0.30079  0.75901  1.0000
  S   S91       1.0  0.98021  0.27862  0.87522  1.0000
  H   H498      1.0  0.95711  0.32110  0.74024  1.0000
  C   C279      1.0  0.10034  0.32765  0.80265  1.0000
  C   C280      1.0  0.83733  0.41021  0.69372  1.0000
  H   H499      1.0  0.01696  0.38687  0.74410  1.0000
  H   H500      1.0  0.03586  0.45154  0.74903  1.0000
  H   H501      1.0  0.85660  0.27181  0.88657  1.0000
  H   H502      1.0  0.22533  0.44989  0.81206  1.0000
  H   H503      1.0  0.93254  0.49424  0.88694  1.0000
  C   C281      1.0  0.86062  0.06779  0.79001  1.0000
  H   H504      1.0  0.24258  0.50270  0.79572  1.0000
  H   H505      1.0  0.06270  0.13879  0.76722  1.0000
  H   H506      1.0  0.04855  0.34727  0.84345  1.0000
  H   H507      1.0  0.79942  0.10584  0.78348  1.0000
  H   H508      1.0  0.01350  0.23325  0.70761  1.0000
  H   H509      1.0  0.03310  0.20691  0.91853  1.0000
  C   C282      1.0  0.21135  0.07623  0.91425  1.0000
  H   H510      1.0  0.01226  0.08208  0.69307  1.0000
  H   H511      1.0  0.99019  0.40421  0.67489  1.0000
  H   H512      1.0  0.85802  0.43666  0.90354  1.0000
  H   H513      1.0  0.88752  0.49051  0.82456  1.0000
  C   C283      1.0  0.88893  0.39794  0.68541  1.0000
  S   S92       1.0  0.23714  0.20613  0.85099  1.0000
  C   C284      1.0  0.02811  0.28630  0.83558  1.0000
  C   C285      1.0  0.92782  0.37793  0.78325  1.0000
  H   H514      1.0  0.19327  0.26726  0.90485  1.0000
  H   H515      1.0  0.00462  0.43580  0.80667  1.0000
  H   H516      1.0  0.21796  0.41360  0.89206  1.0000
  H   H517      1.0  0.10899  0.05007  0.68890  1.0000
  C   C286      1.0  0.90085  0.39897  0.81574  1.0000
  C   C287      1.0  0.19549  0.42750  0.69627  1.0000
  S   S93       1.0  0.11227  0.43675  0.89070  1.0000
  H   H518      1.0  0.78989  0.36776  0.85788  1.0000
  H   H519      1.0  0.87532  0.28760  0.69001  1.0000
  H   H520      1.0  0.06683  0.08637  0.77750  1.0000
  C   C288      1.0  0.93537  0.13050  0.68740  1.0000
  H   H521      1.0  0.84828  0.32439  0.92209  1.0000
  H   H522      1.0  0.87088  0.41951  0.79179  1.0000
  C   C289      1.0  0.02527  0.11312  0.69784  1.0000
  C   C290      1.0  0.04054  0.25494  0.81587  1.0000
  H   H523      1.0  0.16227  0.11253  0.70160  1.0000
  C   C291      1.0  0.79228  0.08426  0.71108  1.0000
  C   C292      1.0  0.82164  0.25278  0.89724  1.0000
  C   C293      1.0  0.21477  0.02934  0.79860  1.0000
  C   C294      1.0  0.26131  0.09509  0.92121  1.0000
  H   H524      1.0  0.08993  0.14788  0.92248  1.0000
  H   H525      1.0  0.88938  0.01042  0.90295  1.0000
  C   C295      1.0  0.80665  0.31445  0.92203  1.0000
  H   H526      1.0  0.26366  0.35177  0.90474  1.0000
  H   H527      1.0  0.81679  0.49719  0.85431  1.0000
  H   H528      1.0  0.85708  0.14947  0.67835  1.0000
  H   H529      1.0  0.84623  0.23998  0.67778  1.0000
  H   H530      1.0  0.26699  0.12702  0.90683  1.0000
  H   H531      1.0  0.79146  0.31526  0.67834  1.0000
  H   H532      1.0  0.96233  0.09779  0.97431  1.0000
  C   C296      1.0  0.24793  0.01244  0.95907  1.0000
  H   H533      1.0  0.84093  0.35389  0.08419  1.0000
  H   H534      1.0  0.10265  0.18620  0.10257  1.0000
  C   C297      1.0  0.22051  0.29638  0.08520  1.0000
  C   C298      1.0  0.89855  0.40623  0.98081  1.0000
  H   H535      1.0  0.21195  0.10025  0.03411  1.0000
  N   N21       1.0  0.90990  0.01944  0.98447  1.0000
  H   H536      1.0  0.88251  0.20981  0.93268  1.0000
  H   H537      1.0  0.90548  0.26332  0.97711  1.0000
  C   C299      1.0  0.82257  0.13313  0.06123  1.0000
  S   S94       1.0  0.09028  0.48630  0.15605  1.0000
  H   H538      1.0  0.25492  0.39816  0.95691  1.0000
  H   H539      1.0  0.24996  0.24180  0.07959  1.0000
  C   C300      1.0  0.82556  0.25538  0.99403  1.0000
  H   H540      1.0  0.93452  0.23535  0.16441  1.0000
  C   C301      1.0  0.82464  0.47392  0.12612  1.0000
  H   H541      1.0  0.80395  0.22843  0.14178  1.0000
  H   H542      1.0  0.20147  0.35517  0.08733  1.0000
  H   H543      1.0  0.93420  0.28635  0.16809  1.0000
  C   C302      1.0  0.80530  0.40995  0.95695  1.0000
  C   C303      1.0  0.14058  0.21711  0.93257  1.0000
  C   C304      1.0  0.95677  0.02074  0.02880  1.0000
  C   C305      1.0  0.11151  0.16947  0.07428  1.0000
  C   C306      1.0  0.89370  0.38204  0.03112  1.0000
  S   S95       1.0  0.08992  0.04810  0.13056  1.0000
  H   H544      1.0  0.91963  0.05672  0.15160  1.0000
  C   C307      1.0  0.18022  0.15819  0.99460  1.0000
  H   H545      1.0  0.88626  0.47427  0.05401  1.0000
  H   H546      1.0  0.18675  0.49581  0.11637  1.0000
  Fe  Fe52      1.0  0.00481  0.35352  0.02579  1.0000
  N   N22       1.0  0.88271  0.48300  0.13325  1.0000
  Fe  Fe53      1.0  0.01778  0.30927  0.94137  1.0000
  H   H547      1.0  0.18708  0.26260  0.97284  1.0000
  H   H548      1.0  0.98096  0.44443  0.13978  1.0000
  H   H549      1.0  0.15219  0.09660  0.98805  1.0000
  S   S96       1.0  0.08889  0.37458  0.04101  1.0000
  C   C308      1.0  0.84053  0.07368  0.13209  1.0000
  H   H550      1.0  0.97119  0.45289  0.06842  1.0000
  N   N23       1.0  0.13236  0.18238  0.97882  1.0000
  H   H551      1.0  0.15232  0.10592  0.05303  1.0000
  S   S97       1.0  0.94876  0.36237  0.07540  1.0000
  C   C309      1.0  0.96190  0.46411  0.10181  1.0000
  C   C310      1.0  0.80037  0.38688  0.00806  1.0000
  H   H552      1.0  0.82779  0.02498  0.04438  1.0000
  H   H553      1.0  0.20515  0.49454  0.97203  1.0000
  C   C311      1.0  0.89294  0.07833  0.12682  1.0000
  H   H554      1.0  0.90683  0.12397  0.93692  1.0000
  S   S98       1.0  0.01857  0.28969  0.02989  1.0000
  H   H555      1.0  0.82741  0.04879  0.16138  1.0000
  H   H556      1.0  0.94958  0.03946  0.05570  1.0000
  C   C312      1.0  0.20451  0.03501  0.93470  1.0000
  Fe  Fe54      1.0  0.10206  0.31142  0.04102  1.0000
  S   S99       1.0  0.22394  0.10047  0.15839  1.0000
  C   C313      1.0  0.92617  0.09547  0.94440  1.0000
  C   C314      1.0  0.84471  0.37267  0.04516  1.0000
  H   H557      1.0  0.14483  0.15141  0.09579  1.0000
  H   H558      1.0  0.16093  0.21665  0.03944  1.0000
  C   C315      1.0  0.80545  0.10136  0.09950  1.0000
  C   C316      1.0  0.90241  0.46196  0.09725  1.0000
  H   H559      1.0  0.07913  0.12916  0.98909  1.0000
  H   H560      1.0  0.93648  0.41525  0.97101  1.0000
  H   H561      1.0  0.16596  0.02031  0.92988  1.0000
  H   H562      1.0  0.22602  0.22885  0.95615  1.0000
  C   C317      1.0  0.23209  0.47179  0.97217  1.0000
  H   H563      1.0  0.13705  0.33906  0.15792  1.0000
  H   H564      1.0  0.97497  0.27181  0.12851  1.0000
  C   C318      1.0  0.95960  0.26324  0.16634  1.0000
  H   H565      1.0  0.07701  0.14945  0.06450  1.0000
  H   H566      1.0  0.99089  0.03604  0.01153  1.0000
  H   H567      1.0  0.88954  0.30026  0.00925  1.0000
  H   H568      1.0  0.90142  0.25045  0.04711  1.0000
  H   H569      1.0  0.87518  0.06962  0.99839  1.0000
  H   H570      1.0  0.21078  0.17086  0.02372  1.0000
  C   C319      1.0  0.25731  0.27378  0.07585  1.0000
  H   H571      1.0  0.79850  0.46460  0.04340  1.0000
  H   H572      1.0  0.24346  0.01854  0.11898  1.0000
  H   H573      1.0  0.02005  0.17983  0.98317  1.0000
  H   H574      1.0  0.79519  0.32731  0.95298  1.0000
  S   S100      1.0  0.16126  0.27394  0.09996  1.0000
  H   H575      1.0  0.88786  0.16228  0.02610  1.0000
  H   H576      1.0  0.79504  0.15363  0.03510  1.0000
  H   H577      1.0  0.82229  0.22241  0.00781  1.0000
  H   H578      1.0  0.04316  0.31233  0.14301  1.0000
  C   C320      1.0  0.22983  0.33765  0.08008  1.0000
  C   C321      1.0  0.07037  0.48561  0.93701  1.0000
  Fe  Fe55      1.0  0.03173  0.08282  0.14880  1.0000
  S   S101      1.0  0.97517  0.11737  0.08093  1.0000
  S   S102      1.0  0.10343  0.32479  0.95317  1.0000
  H   H579      1.0  0.81569  0.44121  0.14086  1.0000
  H   H580      1.0  0.80586  0.26667  0.02111  1.0000
  C   C322      1.0  0.17312  0.11283  0.01898  1.0000
  C   C323      1.0  0.12500  0.19961  0.02451  1.0000
  C   C324      1.0  0.87477  0.13773  0.05586  1.0000
  H   H581      1.0  0.06970  0.46026  0.97082  1.0000
  C   C325      1.0  0.18993  0.47216  0.15241  1.0000
  C   C326      1.0  0.91014  0.11059  0.08896  1.0000
  C   C327      1.0  0.23649  0.45280  0.17277  1.0000
  C   C328      1.0  0.88862  0.06057  0.96549  1.0000
  C   C329      1.0  0.88382  0.26827  0.00695  1.0000
  H   H582      1.0  0.97941  0.49511  0.09850  1.0000
  H   H583      1.0  0.88924  0.42960  0.10545  1.0000
  H   H584      1.0  0.21009  0.44228  0.97931  1.0000
  S   S103      1.0  0.99674  0.37106  0.93579  1.0000
  C   C330      1.0  0.79395  0.48596  0.06777  1.0000
  C   C331      1.0  0.03259  0.17724  0.94603  1.0000
  H   H585      1.0  0.26493  0.47267  0.00632  1.0000
  H   H586      1.0  0.09402  0.22145  0.01041  1.0000
  C   C332      1.0  0.08490  0.15740  0.95908  1.0000
  H   H587      1.0  0.81920  0.18912  0.94628  1.0000
  C   C333      1.0  0.85430  0.41934  0.94326  1.0000
  Fe  Fe56      1.0  0.08231  0.38627  0.95108  1.0000
  H   H588      1.0  0.85401  0.06050  0.93261  1.0000
  H   H589      1.0  0.19815  0.15976  0.95887  1.0000
  H   H590      1.0  0.80683  0.48866  0.15079  1.0000
  C   C334      1.0  0.18980  0.24507  0.94303  1.0000
  N   N24       1.0  0.79918  0.26927  0.93606  1.0000
  H   H591      1.0  0.87256  0.49962  0.93702  1.0000
  C   C335      1.0  0.92402  0.00908  0.93623  1.0000
  H   H592      1.0  0.20452  0.18864  0.15719  1.0000
  H   H593      1.0  0.00228  0.15840  0.92534  1.0000
  C   C336      1.0  0.07836  0.27737  0.27996  1.0000
  H   H594      1.0  0.19105  0.16287  0.22118  1.0000
  C   C337      1.0  0.24001  0.30060  0.27814  1.0000
  H   H595      1.0  0.03013  0.48295  0.35250  1.0000
  H   H596      1.0  0.08905  0.47393  0.26587  1.0000
  C   C338      1.0  0.77166  0.21299  0.21667  1.0000
  H   H597      1.0  0.01318  0.44905  0.30853  1.0000
  S   S104      1.0  0.78964  0.16261  0.38443  1.0000
  H   H598      1.0  0.05325  0.21571  0.31667  1.0000
  S   S105      1.0  0.09222  0.11582  0.19918  1.0000
  H   H599      1.0  0.97393  0.01503  0.34046  1.0000
  C   C339      1.0  0.79059  0.12565  0.26774  1.0000
  C   C340      1.0  0.77910  0.05869  0.41111  1.0000
  C   C341      1.0  0.05887  0.24590  0.32599  1.0000
  C   C342      1.0  0.06957  0.30252  0.18236  1.0000
  H   H600      1.0  0.13541  0.33469  0.22715  1.0000
  H   H601      1.0  0.82371  0.14688  0.27778  1.0000
  H   H602      1.0  0.02526  0.22990  0.21323  1.0000
  H   H603      1.0  0.90304  0.43168  0.19882  1.0000
  C   C343      1.0  0.18505  0.28616  0.42148  1.0000
  H   H604      1.0  0.14563  0.29559  0.41087  1.0000
  C   C344      1.0  0.00304  0.25464  0.21671  1.0000
  H   H605      1.0  0.18658  0.44504  0.33675  1.0000
  C   C345      1.0  0.97887  0.15648  0.37263  1.0000
  H   H606      1.0  0.77088  0.50487  0.24229  1.0000
  H   H607      1.0  0.22777  0.33013  0.25303  1.0000
  C   C346      1.0  0.01659  0.12889  0.37966  1.0000
  H   H608      1.0  0.88967  0.02498  0.33985  1.0000
  H   H609      1.0  0.95080  0.47244  0.19708  1.0000
  C   C347      1.0  0.23731  0.27168  0.24050  1.0000
  H   H610      1.0  0.97473  0.16822  0.40628  1.0000
  H   H611      1.0  0.20659  0.15378  0.36175  1.0000
  H   H612      1.0  0.99823  0.11682  0.25100  1.0000
  C   C348      1.0  0.20866  0.47443  0.33399  1.0000
  H   H613      1.0  0.17132  0.21294  0.19293  1.0000
  C   C349      1.0  0.02373  0.11450  0.33590  1.0000
  S   S106      1.0  0.14049  0.02868  0.25988  1.0000
  C   C350      1.0  0.09061  0.47762  0.30733  1.0000
  C   C351      1.0  0.03357  0.47838  0.31274  1.0000
  H   H614      1.0  0.11244  0.26431  0.27273  1.0000
  H   H615      1.0  0.23006  0.14610  0.30614  1.0000
  S   S107      1.0  0.21412  0.36463  0.41814  1.0000
  C   C352      1.0  0.20251  0.19264  0.19778  1.0000
  H   H616      1.0  0.04058  0.11895  0.41897  1.0000
  H   H617      1.0  0.19604  0.26924  0.22005  1.0000
  H   H618      1.0  0.01256  0.50124  0.28011  1.0000
  H   H619      1.0  0.22525  0.22545  0.33903  1.0000
  S   S108      1.0  0.00006  0.39908  0.41282  1.0000
  H   H620      1.0  0.08955  0.27675  0.17833  1.0000
  H   H621      1.0  0.98873  0.33865  0.18907  1.0000
  H   H622      1.0  0.24061  0.08270  0.27559  1.0000
  C   C353      1.0  0.99325  0.12798  0.28496  1.0000
  H   H623      1.0  0.80743  0.09747  0.26754  1.0000
  H   H624      1.0  0.10490  0.44930  0.33490  1.0000
  C   C354      1.0  0.81732  0.22042  0.18607  1.0000
  H   H625      1.0  0.94604  0.34075  0.25787  1.0000
  C   C355      1.0  0.25637  0.20833  0.22398  1.0000
  H   H626      1.0  0.78809  0.20749  0.26065  1.0000
  Fe  Fe57      1.0  0.07821  0.06545  0.26800  1.0000
  S   S109      1.0  0.93921  0.50074  0.39892  1.0000
  Fe  Fe58      1.0  0.86434  0.19997  0.38281  1.0000
  H   H627      1.0  0.90943  0.46072  0.27539  1.0000
  H   H628      1.0  0.02260  0.25357  0.33527  1.0000
  H   H629      1.0  0.97609  0.04757  0.40748  1.0000
  S   S110      1.0  0.83316  0.25067  0.40482  1.0000
  C   C356      1.0  0.11074  0.33768  0.18664  1.0000
  H   H630      1.0  0.09204  0.36673  0.17504  1.0000
  H   H631      1.0  0.03952  0.35009  0.23873  1.0000
  N   N25       1.0  0.03966  0.28979  0.22787  1.0000
  H   H632      1.0  0.95292  0.28892  0.27467  1.0000
  H   H633      1.0  0.08868  0.24357  0.36336  1.0000
  S   S111      1.0  0.01383  0.03456  0.21861  1.0000
  C   C357      1.0  0.23467  0.16585  0.33456  1.0000
  H   H634      1.0  0.14196  0.48172  0.40185  1.0000
  C   C358      1.0  0.22259  0.20945  0.30618  1.0000
  C   C359      1.0  0.90807  0.46505  0.19056  1.0000
  H   H635      1.0  0.16959  0.03970  0.39044  1.0000
  H   H636      1.0  0.09471  0.30387  0.29691  1.0000
  H   H637      1.0  0.22518  0.47888  0.37506  1.0000
  H   H638      1.0  0.99850  0.32058  0.31127  1.0000
  S   S112      1.0  0.90290  0.20621  0.31161  1.0000
  H   H639      1.0  0.21320  0.29048  0.30705  1.0000
  H   H640      1.0  0.97458  0.31952  0.39570  1.0000
  C   C360      1.0  0.15181  0.42918  0.22450  1.0000
  H   H641      1.0  0.11905  0.41945  0.24443  1.0000
  H   H642      1.0  0.93250  0.16619  0.23833  1.0000
  H   H643      1.0  0.84720  0.47113  0.23505  1.0000
  H   H644      1.0  0.80963  0.07973  0.39756  1.0000
  C   C361      1.0  0.94839  0.17002  0.32172  1.0000
  H   H645      1.0  0.84196  0.19443  0.19725  1.0000
  H   H646      1.0  0.20297  0.38840  0.28340  1.0000
  S   S113      1.0  0.07069  0.07962  0.34561  1.0000
  C   C362      1.0  0.97569  0.31800  0.27112  1.0000
  H   H647      1.0  0.25492  0.04070  0.38289  1.0000
  C   C363      1.0  0.95587  0.15588  0.27784  1.0000
  H   H648      1.0  0.18101  0.20934  0.28594  1.0000
  C   C364      1.0  0.01132  0.32510  0.22937  1.0000
  C   C365      1.0  0.24175  0.42319  0.22058  1.0000
  H   H649      1.0  0.98256  0.24142  0.25039  1.0000
  C   C366      1.0  0.88929  0.47787  0.23584  1.0000
  C   C367      1.0  0.19918  0.41123  0.24625  1.0000
  C   C368      1.0  0.14758  0.46053  0.17844  1.0000
  N   N26       1.0  0.25702  0.23076  0.26722  1.0000
  H   H650      1.0  0.16824  0.50740  0.25734  1.0000
  H   H651      1.0  0.84273  0.24611  0.19745  1.0000
  Fe  Fe59      1.0  0.14942  0.07697  0.18680  1.0000
  H   H652      1.0  0.25830  0.28704  0.20745  1.0000
  H   H653      1.0  0.88156  0.04104  0.42089  1.0000
  H   H654      1.0  0.78247  0.14392  0.18194  1.0000
  H   H655      1.0  0.24176  0.47256  0.31461  1.0000
  H   H656      1.0  0.12713  0.49288  0.56271  1.0000
  H   H657      1.0  0.11275  0.36568  0.46761  1.0000
  C   C369      1.0  0.00493  0.18485  0.66589  1.0000
  C   C370      1.0  0.16695  0.35926  0.54580  1.0000
  H   H658      1.0  0.04351  0.11437  0.59480  1.0000
  H   H659      1.0  0.86016  0.30237  0.59853  1.0000
  H   H660      1.0  0.94032  0.25870  0.45344  1.0000
  H   H661      1.0  0.10985  0.38801  0.60664  1.0000
  H   H662      1.0  0.99874  0.37924  0.52618  1.0000
  C   C371      1.0  0.94540  0.28621  0.52065  1.0000
  H   H663      1.0  0.21407  0.32548  0.64339  1.0000
  H   H664      1.0  0.23887  0.30050  0.55484  1.0000
  H   H665      1.0  0.19848  0.35575  0.52535  1.0000
  C   C372      1.0  0.98421  0.35352  0.50974  1.0000
  C   C373      1.0  0.11295  0.24838  0.56860  1.0000
  S   S114      1.0  0.08433  0.01272  0.59690  1.0000
  C   C374      1.0  0.23853  0.28819  0.59814  1.0000
  H   H666      1.0  0.21579  0.47382  0.57089  1.0000
  C   C375      1.0  0.17284  0.11549  0.57271  1.0000
  H   H667      1.0  0.86970  0.13841  0.61867  1.0000
  H   H668      1.0  0.14575  0.23314  0.59751  1.0000
  C   C376      1.0  0.98599  0.35410  0.45630  1.0000
  C   C377      1.0  0.81881  0.33216  0.52231  1.0000
  C   C378      1.0  0.17398  0.03689  0.43466  1.0000
  H   H669      1.0  0.13351  0.03516  0.44173  1.0000
  H   H670      1.0  0.23626  0.25502  0.60600  1.0000
  C   C379      1.0  0.82403  0.31889  0.58420  1.0000
  S   S115      1.0  0.89942  0.17132  0.46769  1.0000
  C   C380      1.0  0.12644  0.06849  0.65638  1.0000
  C   C381      1.0  0.11591  0.35886  0.63578  1.0000
  C   C382      1.0  0.98216  0.01541  0.42640  1.0000
  H   H671      1.0  0.19089  0.13349  0.54034  1.0000
  S   S116      1.0  0.94755  0.44331  0.52064  1.0000
  S   S117      1.0  0.78825  0.18298  0.50033  1.0000
  H   H672      1.0  0.00111  0.06832  0.49312  1.0000
  C   C383      1.0  0.02110  0.14161  0.58070  1.0000
  H   H673      1.0  0.07979  0.24752  0.58907  1.0000
  C   C384      1.0  0.77140  0.25548  0.58474  1.0000
  S   S118      1.0  0.95603  0.01399  0.64773  1.0000
  S   S119      1.0  0.25144  0.44878  0.49243  1.0000
  C   C385      1.0  0.22679  0.31451  0.42672  1.0000
  Fe  Fe60      1.0  0.98396  0.44847  0.44837  1.0000
  H   H674      1.0  0.09326  0.30316  0.51202  1.0000
  H   H675      1.0  0.18475  0.38001  0.57241  1.0000
  N   N27       1.0  0.77850  0.29384  0.60459  1.0000
  H   H676      1.0  0.94614  0.15907  0.58229  1.0000
  S   S120      1.0  0.81637  0.07362  0.51097  1.0000
  H   H677      1.0  0.08758  0.35534  0.66296  1.0000
  C   C386      1.0  0.96354  0.31959  0.54204  1.0000
  H   H678      1.0  0.95800  0.06965  0.53699  1.0000
  H   H679      1.0  0.02064  0.01555  0.45412  1.0000
  H   H680      1.0  0.90241  0.50125  0.57140  1.0000
  H   H681      1.0  0.10095  0.29624  0.63809  1.0000
  H   H682      1.0  0.95381  0.10685  0.60598  1.0000
  C   C387      1.0  0.24494  0.23312  0.44748  1.0000
  C   C388      1.0  0.79009  0.28654  0.66533  1.0000
  C   C389      1.0  0.18044  0.12685  0.62190  1.0000
  H   H683      1.0  0.04779  0.18817  0.66826  1.0000
  Fe  Fe61      1.0  0.86292  0.21871  0.49047  1.0000
  C   C390      1.0  0.10711  0.32394  0.60698  1.0000
  C   C391      1.0  0.22051  0.43881  0.65191  1.0000
  H   H684      1.0  0.14077  0.41159  0.48371  1.0000
  Fe  Fe62      1.0  0.01346  0.48489  0.54765  1.0000
  H   H685      1.0  0.79494  0.05618  0.64611  1.0000
  S   S121      1.0  0.90782  0.24827  0.55479  1.0000
  H   H686      1.0  0.00755  0.14503  0.53656  1.0000
  H   H687      1.0  0.06937  0.32767  0.57877  1.0000
  H   H688      1.0  0.83204  0.34657  0.60028  1.0000
  C   C392      1.0  0.95235  0.28519  0.46920  1.0000
  H   H689      1.0  0.15523  0.35977  0.66078  1.0000
  C   C393      1.0  0.15652  0.10376  0.66352  1.0000
  H   H690      1.0  0.13588  0.07229  0.52704  1.0000
  C   C394      1.0  0.12866  0.29159  0.54098  1.0000
  C   C395      1.0  0.96061  0.06051  0.49964  1.0000
  H   H691      1.0  0.80766  0.41060  0.65637  1.0000
  H   H692      1.0  0.95953  0.31995  0.58241  1.0000
  C   C396      1.0  0.19571  0.46289  0.60409  1.0000
  H   H693      1.0  0.15685  0.29000  0.51542  1.0000
  H   H694      1.0  0.94813  0.33954  0.66752  1.0000
  C   C397      1.0  0.19981  0.07692  0.44694  1.0000
  S   S122      1.0  0.82404  0.49892  0.47662  1.0000
  Fe  Fe63      1.0  0.90817  0.49851  0.47358  1.0000
  H   H695      1.0  0.80959  0.30647  0.50245  1.0000
  C   C398      1.0  0.81991  0.50287  0.54137  1.0000
  S   S123      1.0  0.05234  0.48576  0.47884  1.0000
  H   H696      1.0  0.93352  0.07859  0.46639  1.0000
  C   C399      1.0  0.86521  0.50471  0.58010  1.0000
  H   H697      1.0  0.98915  0.20554  0.62723  1.0000
  H   H698      1.0  0.21261  0.07571  0.49053  1.0000
  C   C400      1.0  0.19542  0.30282  0.61998  1.0000
  S   S124      1.0  0.25468  0.18199  0.46163  1.0000
  H   H699      1.0  0.09021  0.38559  0.51667  1.0000
  Fe  Fe64      1.0  0.82267  0.13792  0.47099  1.0000
  C   C401      1.0  0.94747  0.01483  0.50758  1.0000
  C   C402      1.0  0.11979  0.05693  0.60727  1.0000
  C   C403      1.0  0.12472  0.38130  0.50127  1.0000
  H   H700      1.0  0.85661  0.34646  0.51272  1.0000
  H   H701      1.0  0.18240  0.27706  0.65035  1.0000
  N   N28       1.0  0.14949  0.31943  0.57825  1.0000
  C   C404      1.0  0.14498  0.47355  0.59931  1.0000
  H   H702      1.0  0.23456  0.04523  0.66877  1.0000
  C   C405      1.0  0.14233  0.08072  0.56537  1.0000
  N   N29       1.0  0.98492  0.14204  0.66575  1.0000
  H   H703      1.0  0.80998  0.24522  0.58470  1.0000
  C   C406      1.0  0.11866  0.46055  0.64235  1.0000
  H   H704      1.0  0.89604  0.41565  0.64529  1.0000
  H   H705      1.0  0.10020  0.23057  0.53729  1.0000
  H   H706      1.0  0.04699  0.16826  0.58709  1.0000
  C   C407      1.0  0.97367  0.13683  0.60838  1.0000
  C   C408      1.0  0.88710  0.15221  0.65333  1.0000
  S   S125      1.0  0.05366  0.47194  0.63473  1.0000
  S   S126      1.0  0.22193  0.16881  0.63140  1.0000
  H   H707      1.0  0.89596  0.18444  0.63836  1.0000
  C   C409      1.0  0.77431  0.04987  0.46532  1.0000
  H   H708      1.0  0.21194  0.01539  0.54397  1.0000
  C   C410      1.0  0.97241  0.31937  0.43673  1.0000
  C   C411      1.0  0.19412  0.24540  0.43311  1.0000
  H   H709      1.0  0.78985  0.35512  0.50428  1.0000
  H   H710      1.0  0.77272  0.20051  0.64860  1.0000
  H   H711      1.0  0.16187  0.22318  0.43166  1.0000
  C   C412      1.0  0.77173  0.50655  0.55360  1.0000
  C   C413      1.0  0.88661  0.00877  0.42603  1.0000
  H   H712      1.0  0.23357  0.08681  0.42680  1.0000
  H   H713      1.0  0.17144  0.10058  0.43075  1.0000
  C   C414      1.0  0.15097  0.69076  0.85075  1.0000
  H   H714      1.0  0.95271  0.96442  0.90544  1.0000
  H   H715      1.0  0.12170  0.74018  0.89964  1.0000
  H   H716      1.0  0.79983  0.54057  0.80385  1.0000
  S   S127      1.0  0.04543  0.60313  0.90361  1.0000
  Fe  Fe65      1.0  0.00273  0.91246  0.73674  1.0000
  H   H717      1.0  0.18772  0.89487  0.71639  1.0000
  C   C415      1.0  0.83122  0.84354  0.74275  1.0000
  H   H718      1.0  0.09260  0.88164  0.70974  1.0000
  H   H719      1.0  0.87095  0.85381  0.82066  1.0000
  H   H720      1.0  0.20890  0.85671  0.88879  1.0000
  C   C416      1.0  0.87695  0.83701  0.79113  1.0000
  C   C417      1.0  0.14990  0.67310  0.80126  1.0000
  C   C418      1.0  0.84350  0.59507  0.86481  1.0000
  H   H721      1.0  0.96503  0.84440  0.87861  1.0000
  H   H722      1.0  0.11413  0.84457  0.88222  1.0000
  H   H723      1.0  0.09693  0.57786  0.72368  1.0000
  H   H724      1.0  0.20391  0.99835  0.73479  1.0000
  C   C419      1.0  0.09717  0.86166  0.79568  1.0000
  C   C420      1.0  0.80977  0.52935  0.84824  1.0000
  H   H725      1.0  0.11067  0.68686  0.85899  1.0000
  C   C421      1.0  0.89911  0.55138  0.84021  1.0000
  H   H726      1.0  0.18725  0.54493  0.71601  1.0000
  C   C422      1.0  0.13009  0.85468  0.84600  1.0000
  C   C423      1.0  0.84399  0.78026  0.71710  1.0000
  S   S128      1.0  0.04663  0.97090  0.74512  1.0000
  H   H727      1.0  0.18903  0.67346  0.79177  1.0000
  C   C424      1.0  0.07341  0.60182  0.69561  1.0000
  C   C425      1.0  0.08522  0.75948  0.78766  1.0000
  C   C426      1.0  0.05733  0.55589  0.89661  1.0000
  H   H728      1.0  0.17408  0.67066  0.88580  1.0000
  H   H729      1.0  0.09184  0.63132  0.70072  1.0000
  H   H730      1.0  0.07258  0.76959  0.82010  1.0000
  H   H731      1.0  0.13491  0.64126  0.81028  1.0000
  C   C427      1.0  0.25161  0.78188  0.69350  1.0000
  H   H732      1.0  0.03524  0.59903  0.70842  1.0000
  H   H733      1.0  0.88517  0.56460  0.79653  1.0000
  C   C428      1.0  0.98027  0.76359  0.91459  1.0000
  H   H734      1.0  0.92000  0.62074  0.90102  1.0000
  C   C429      1.0  0.16272  0.74743  0.89435  1.0000
  H   H735      1.0  0.95119  0.51342  0.82321  1.0000
  H   H736      1.0  0.07024  0.78073  0.74922  1.0000
  N   N30       1.0  0.83466  0.82423  0.69748  1.0000
  S   S129      1.0  0.79261  0.79522  0.87247  1.0000
  H   H737      1.0  0.79564  0.83308  0.75965  1.0000
  C   C430      1.0  0.25732  0.77796  0.84311  1.0000
  C   C431      1.0  0.99730  0.72203  0.91490  1.0000
  C   C432      1.0  0.91803  0.50965  0.84459  1.0000
  H   H738      1.0  0.91484  0.84832  0.77980  1.0000
  H   H739      1.0  0.15531  0.75431  0.75914  1.0000
  H   H740      1.0  0.80212  0.63668  0.67948  1.0000
  H   H741      1.0  0.16815  0.78050  0.88819  1.0000
  H   H742      1.0  0.90487  0.63356  0.82814  1.0000
  H   H743      1.0  0.88359  0.77526  0.74195  1.0000
  C   C433      1.0  0.08970  0.51487  0.84825  1.0000
  C   C434      1.0  0.17180  0.88377  0.75261  1.0000
  H   H744      1.0  0.25106  0.79214  0.87490  1.0000
  H   H745      1.0  0.10370  0.51190  0.81321  1.0000
  H   H746      1.0  0.00494  0.78589  0.89069  1.0000
  S   S130      1.0  0.92579  0.93380  0.73609  1.0000
  S   S131      1.0  0.02992  0.85493  0.79154  1.0000
  H   H747      1.0  0.12339  0.68861  0.76494  1.0000
  H   H748      1.0  0.24280  0.97376  0.79475  1.0000
  H   H749      1.0  0.82152  0.59730  0.89613  1.0000
  H   H750      1.0  0.87879  0.80500  0.81211  1.0000
  H   H751      1.0  0.16955  0.60985  0.68000  1.0000
  Fe  Fe66      1.0  0.96787  0.99332  0.73784  1.0000
  C   C435      1.0  0.14498  0.76066  0.79555  1.0000
  H   H752      1.0  0.07474  0.57741  0.81710  1.0000
  H   H753      1.0  0.82363  0.72722  0.77556  1.0000
  H   H754      1.0  0.91812  0.83716  0.70158  1.0000
  H   H755      1.0  0.06660  0.72951  0.78458  1.0000
  H   H756      1.0  0.93443  0.57029  0.85171  1.0000
  H   H757      1.0  0.87307  0.65633  0.86639  1.0000
  H   H758      1.0  0.25017  0.71467  0.88039  1.0000
  H   H759      1.0  0.23538  0.72658  0.80951  1.0000
  C   C436      1.0  0.07315  0.55175  0.85026  1.0000
  C   C437      1.0  0.18377  0.86249  0.84972  1.0000
  H   H760      1.0  0.94029  0.76679  0.88995  1.0000
  H   H761      1.0  0.24567  0.79843  0.80319  1.0000
  C   C438      1.0  0.25339  0.82364  0.68446  1.0000
  S   S132      1.0  0.81170  0.52532  0.70456  1.0000
  C   C439      1.0  0.23640  0.00392  0.76770  1.0000
  C   C440      1.0  0.20465  0.87762  0.80315  1.0000
  H   H762      1.0  0.15863  0.79253  0.79423  1.0000
  C   C441      1.0  0.80436  0.75372  0.74825  1.0000
  C   C442      1.0  0.88847  0.62776  0.86549  1.0000
  H   H763      1.0  0.82924  0.95557  0.68620  1.0000
  C   C443      1.0  0.11796  0.87619  0.74888  1.0000
  H   H764      1.0  0.99698  0.72026  0.87276  1.0000
  N   N31       1.0  0.17192  0.73375  0.84640  1.0000
  N   N32       1.0  0.85745  0.55240  0.87184  1.0000
  H   H765      1.0  0.82772  0.87640  0.72738  1.0000
  C   C444      1.0  0.22909  0.73606  0.84531  1.0000
  C   C445      1.0  0.98391  0.84746  0.91982  1.0000
  H   H766      1.0  0.81704  0.60498  0.82539  1.0000
  H   H767      1.0  0.23712  0.95751  0.69692  1.0000
  H   H768      1.0  0.78960  0.76851  0.77483  1.0000
  H   H769      1.0  0.84452  0.76677  0.68265  1.0000
  H   H770      1.0  0.12649  0.53287  0.67748  1.0000
  H   H771      1.0  0.77104  0.74316  0.72023  1.0000
  H   H772      1.0  0.97304  0.87665  0.92409  1.0000
  H   H773      1.0  0.02649  0.84948  0.92304  1.0000
  H   H774      1.0  0.26728  0.51299  0.91044  1.0000
  C   C446      1.0  0.84794  0.99687  0.05281  1.0000
  H   H775      1.0  0.97153  0.89142  0.15523  1.0000
  H   H776      1.0  0.20759  0.95066  0.15158  1.0000
  H   H777      1.0  0.81905  0.97216  0.06483  1.0000
  S   S133      1.0  0.03431  0.67768  0.11605  1.0000
  C   C447      1.0  0.93959  0.86766  0.15251  1.0000
  C   C448      1.0  0.79255  0.74829  0.97219  1.0000
  H   H778      1.0  0.78093  0.71223  0.04820  1.0000
  H   H779      1.0  0.20676  0.95687  0.05646  1.0000
  C   C449      1.0  0.96414  0.81345  0.96299  1.0000
  H   H780      1.0  0.92012  0.94256  0.95966  1.0000
  H   H781      1.0  0.81190  0.84980  0.94365  1.0000
  Fe  Fe67      1.0  0.07196  0.63339  0.08833  1.0000
  H   H782      1.0  0.18020  0.68061  0.10752  1.0000
  C   C450      1.0  0.05535  0.52272  0.93968  1.0000
  C   C451      1.0  0.86622  0.99082  0.00270  1.0000
  C   C452      1.0  0.93130  0.74918  0.04833  1.0000
  S   S134      1.0  0.79546  0.76530  0.12086  1.0000
  C   C453      1.0  0.97436  0.98025  0.06614  1.0000
  H   H783      1.0  0.01686  0.97865  0.06935  1.0000
  H   H784      1.0  0.97029  0.69734  0.93110  1.0000
  C   C454      1.0  0.80719  0.81298  0.02260  1.0000
  H   H785      1.0  0.81241  0.83804  0.04188  1.0000
  Fe  Fe68      1.0  0.10085  0.54760  0.10348  1.0000
  H   H786      1.0  0.95537  0.95322  0.05307  1.0000
  S   S135      1.0  0.03073  0.58092  0.05709  1.0000
  H   H787      1.0  0.91190  0.77745  0.04168  1.0000
  H   H788      1.0  0.88682  0.90963  0.09648  1.0000
  H   H789      1.0  0.24704  0.90936  0.17146  1.0000
  C   C455      1.0  0.19707  0.72966  0.94895  1.0000
  H   H790      1.0  0.85389  0.86635  0.13036  1.0000
  H   H791      1.0  0.08745  0.82012  0.99355  1.0000
  C   C456      1.0  0.23958  0.77327  0.07602  1.0000
  H   H792      1.0  0.02842  0.82533  0.14125  1.0000
  H   H793      1.0  0.18263  0.73845  0.98134  1.0000
  H   H794      1.0  0.95644  0.71108  0.00611  1.0000
  H   H795      1.0  0.19597  0.69652  0.95827  1.0000
  S   S136      1.0  0.82636  0.65623  0.13180  1.0000
  H   H796      1.0  0.88257  0.90562  0.16495  1.0000
  H   H797      1.0  0.03466  0.77456  0.04433  1.0000
  H   H798      1.0  0.87582  0.95921  0.01150  1.0000
  H   H799      1.0  0.83258  0.56671  0.09655  1.0000
  H   H800      1.0  0.19285  0.90576  0.08723  1.0000
  C   C457      1.0  0.92396  0.54762  0.96200  1.0000
  Fe  Fe69      1.0  0.77675  0.69933  0.14736  1.0000
  H   H801      1.0  0.89546  0.53684  0.07350  1.0000
  C   C458      1.0  0.24150  0.93877  0.14260  1.0000
  S   S137      1.0  0.11182  0.65580  0.01810  1.0000
  S   S138      1.0  0.22456  0.82370  0.05881  1.0000
  H   H802      1.0  0.04330  0.52578  0.97569  1.0000
  H   H803      1.0  0.25543  0.92028  0.07081  1.0000
  C   C459      1.0  0.89763  0.52731  0.11790  1.0000
  H   H804      1.0  0.88806  0.58367  0.13729  1.0000
  H   H805      1.0  0.84722  0.54446  0.16806  1.0000
  H   H806      1.0  0.04318  0.73409  0.01839  1.0000
  H   H807      1.0  0.90418  0.72446  0.06456  1.0000
  H   H808      1.0  0.80510  0.51681  0.04710  1.0000
  C   C460      1.0  0.86382  0.55611  0.13136  1.0000
  H   H809      1.0  0.96874  0.97845  0.10784  1.0000
  H   H810      1.0  0.07937  0.79247  0.94083  1.0000
  C   C461      1.0  0.80031  0.78707  0.94229  1.0000
  C   C462      1.0  0.03424  0.76623  0.00554  1.0000
  C   C463      1.0  0.94293  0.74205  0.99564  1.0000
  N   N33       1.0  0.98157  0.77187  0.96926  1.0000
  C   C464      1.0  0.94664  0.96809  0.94501  1.0000
  C   C465      1.0  0.79804  0.77409  0.05225  1.0000
  H   H811      1.0  0.90195  0.79474  0.15492  1.0000
  H   H812      1.0  0.24245  0.98073  0.97461  1.0000
  H   H813      1.0  0.93877  0.53393  0.13653  1.0000
  H   H814      1.0  0.91787  0.57222  0.98050  1.0000
  C   C466      1.0  0.20232  0.74346  0.09266  1.0000
  C   C467      1.0  0.22387  0.93036  0.08575  1.0000
  H   H815      1.0  0.16657  0.75158  0.10045  1.0000
  H   H816      1.0  0.11684  0.77352  0.00411  1.0000
  H   H817      1.0  0.98247  0.78347  0.15549  1.0000
  H   H818      1.0  0.09930  0.87221  0.16439  1.0000
  H   H819      1.0  0.84194  0.53630  0.95295  1.0000
  H   H820      1.0  0.90483  0.74127  0.96740  1.0000
  H   H821      1.0  0.94083  0.52250  0.99435  1.0000
  Fe  Fe70      1.0  0.17601  0.61772  0.06804  1.0000
  H   H822      1.0  0.83157  0.99276  0.96948  1.0000
  S   S139      1.0  0.25779  0.64424  0.07398  1.0000
  H   H823      1.0  0.96666  0.74867  0.07996  1.0000
  H   H824      1.0  0.02661  0.59469  0.17133  1.0000
  Fe  Fe71      1.0  0.07670  0.60064  0.99102  1.0000
  S   S140      1.0  0.13827  0.59860  0.14033  1.0000
  C   C468      1.0  0.80739  0.81956  0.96726  1.0000
  C   C469      1.0  0.20991  0.70321  0.09615  1.0000
  H   H825      1.0  0.94373  0.85534  0.11787  1.0000
  S   S141      1.0  0.14444  0.56383  0.03505  1.0000
  C   C470      1.0  0.25452  0.69277  0.08262  1.0000
  H   H826      1.0  0.97510  0.82305  0.00198  1.0000
  C   C471      1.0  0.88755  0.88816  0.13584  1.0000
  C   C472      1.0  0.79019  0.74199  0.02668  1.0000
  C   C473      1.0  0.08140  0.78994  0.98420  1.0000
  C   C474      1.0  0.87228  0.53265  0.93076  1.0000
  H   H827      1.0  0.98545  0.96663  0.97164  1.0000
  H   H828      1.0  0.78572  0.72327  0.95278  1.0000
  H   H829      1.0  0.23800  0.74182  0.95134  1.0000
  H   H830      1.0  0.92085  0.81355  0.95200  1.0000
  H   H831      1.0  0.95427  0.55763  0.93749  1.0000
  S   S142      1.0  0.26128  0.91411  0.94462  1.0000
  H   H832      1.0  0.88001  0.99637  0.08795  1.0000
  H   H833      1.0  0.03744  0.71702  0.93757  1.0000
  C   C475      1.0  0.00064  0.65280  0.16690  1.0000
  H   H834      1.0  0.96818  0.70629  0.17166  1.0000
  C   C476      1.0  0.01454  0.80214  0.17386  1.0000
  H   H835      1.0  0.26735  0.55612  0.12088  1.0000
  N   N34       1.0  0.12636  0.51345  0.31789  1.0000
  H   H836      1.0  0.25157  0.81781  0.40971  1.0000
  H   H837      1.0  0.09743  0.51892  0.38699  1.0000
  C   C477      1.0  0.93653  0.65368  0.22097  1.0000
  C   C478      1.0  0.97038  0.59088  0.22201  1.0000
  H   H838      1.0  0.82859  0.61637  0.33966  1.0000
  H   H839      1.0  0.20285  0.53687  0.30062  1.0000
  H   H840      1.0  0.82652  0.68969  0.34584  1.0000
  C   C479      1.0  0.01689  0.64738  0.41928  1.0000
  C   C480      1.0  0.12062  0.91142  0.21952  1.0000
  H   H841      1.0  0.17745  0.83299  0.20061  1.0000
  H   H842      1.0  0.90009  0.50981  0.23578  1.0000
  C   C481      1.0  0.03858  0.66477  0.33020  1.0000
  C   C482      1.0  0.79254  0.62149  0.40699  1.0000
  H   H843      1.0  0.87886  0.71985  0.37585  1.0000
  C   C483      1.0  0.98834  0.99569  0.38060  1.0000
  C   C484      1.0  0.13397  0.84204  0.37520  1.0000
  C   C485      1.0  0.14224  0.75636  0.42069  1.0000
  H   H844      1.0  0.00808  0.80070  0.25621  1.0000
  H   H845      1.0  0.10128  0.94582  0.40392  1.0000
  C   C486      1.0  0.00962  0.68781  0.41542  1.0000
  H   H846      1.0  0.94104  0.82678  0.28782  1.0000
  C   C487      1.0  0.83392  0.85149  0.32005  1.0000
  H   H847      1.0  0.18142  0.97359  0.39618  1.0000
  H   H848      1.0  0.08761  0.54722  0.24118  1.0000
  H   H849      1.0  0.96928  0.96536  0.38229  1.0000
  H   H850      1.0  0.15213  0.94504  0.27992  1.0000
  H   H851      1.0  0.96582  0.91370  0.22919  1.0000
  H   H852      1.0  0.15909  0.56601  0.41000  1.0000
  H   H853      1.0  0.89514  0.85893  0.24298  1.0000
  H   H854      1.0  0.03010  0.99263  0.38237  1.0000
  H   H855      1.0  0.13119  0.87479  0.36968  1.0000
  H   H856      1.0  0.11785  0.69484  0.41640  1.0000
  C   C488      1.0  0.96917  0.67418  0.18589  1.0000
  H   H857      1.0  0.96964  0.55870  0.23452  1.0000
  H   H858      1.0  0.89016  0.68762  0.33456  1.0000
  H   H859      1.0  0.03533  0.72693  0.28965  1.0000
  H   H860      1.0  0.06462  0.55443  0.29768  1.0000
  C   C489      1.0  0.90492  0.80150  0.19518  1.0000
  H   H861      1.0  0.05039  0.65599  0.29740  1.0000
  C   C490      1.0  0.03202  0.63604  0.37682  1.0000
  C   C491      1.0  0.85530  0.84317  0.37530  1.0000
  S   S143      1.0  0.77381  0.66463  0.23164  1.0000
  C   C492      1.0  0.10039  0.55054  0.28362  1.0000
  H   H862      1.0  0.88183  0.97129  0.36627  1.0000
  H   H863      1.0  0.22359  0.98345  0.21576  1.0000
  H   H864      1.0  0.91259  0.76540  0.27885  1.0000
  C   C493      1.0  0.13180  0.59117  0.28106  1.0000
  S   S144      1.0  0.04735  0.58697  0.38264  1.0000
  C   C494      1.0  0.17185  0.85734  0.21817  1.0000
  N   N35       1.0  0.94510  0.83523  0.20347  1.0000
  C   C495      1.0  0.99947  0.82138  0.21603  1.0000
  C   C496      1.0  0.01566  0.71640  0.36840  1.0000
  H   H865      1.0  0.02836  0.84699  0.21990  1.0000
  C   C497      1.0  0.00224  0.61125  0.18591  1.0000
  C   C498      1.0  0.91249  0.76171  0.23773  1.0000
  H   H866      1.0  0.94837  0.74781  0.23744  1.0000
  H   H867      1.0  0.26010  0.60186  0.27434  1.0000
  C   C499      1.0  0.13404  0.51249  0.37715  1.0000
  S   S145      1.0  0.00876  0.76696  0.36382  1.0000
  H   H868      1.0  0.14102  0.59980  0.32035  1.0000
  H   H869      1.0  0.82923  0.00219  0.35521  1.0000
  C   C500      1.0  0.79741  0.91035  0.32898  1.0000
  H   H870      1.0  0.12721  0.76690  0.37675  1.0000
  C   C501      1.0  0.17670  0.54149  0.40014  1.0000
  C   C502      1.0  0.80691  0.88613  0.29639  1.0000
  H   H871      1.0  0.09361  0.82850  0.36988  1.0000
  S   S146      1.0  0.06503  0.93873  0.19332  1.0000
  C   C503      1.0  0.20992  0.86774  0.25964  1.0000
  Fe  Fe72      1.0  0.07692  0.00201  0.20412  1.0000
  H   H872      1.0  0.10714  0.61481  0.25362  1.0000
  C   C504      1.0  0.80786  0.59717  0.37047  1.0000
  H   H873      1.0  0.17934  0.71008  0.39930  1.0000
  C   C505      1.0  0.02977  0.70485  0.32569  1.0000
  H   H874      1.0  0.83846  0.83110  0.29589  1.0000
  H   H875      1.0  0.86543  0.81032  0.19497  1.0000
  C   C506      1.0  0.93588  0.85058  0.25010  1.0000
  C   C507      1.0  0.88120  0.65586  0.41584  1.0000
  C   C508      1.0  0.26489  0.99361  0.22607  1.0000
  C   C509      1.0  0.20273  0.89952  0.28170  1.0000
  H   H876      1.0  0.04586  0.78134  0.19407  1.0000
  H   H877      1.0  0.87949  0.74007  0.22805  1.0000
  H   H878      1.0  0.90054  0.63253  0.40493  1.0000
  C   C510      1.0  0.22915  0.78860  0.40892  1.0000
  H   H879      1.0  0.20431  0.55513  0.37345  1.0000
  C   C511      1.0  0.93602  0.61194  0.23777  1.0000
  H   H880      1.0  0.81181  0.92138  0.40879  1.0000
  C   C512      1.0  0.15795  0.92117  0.26191  1.0000
  H   H881      1.0  0.87749  0.81712  0.39292  1.0000
  H   H882      1.0  0.15272  0.83722  0.34319  1.0000
  H   H883      1.0  0.77461  0.93598  0.31188  1.0000
  H   H884      1.0  0.77035  0.52413  0.29955  1.0000
  C   C513      1.0  0.97055  0.88718  0.26333  1.0000
  H   H885      1.0  0.95858  0.89560  0.29749  1.0000
  C   C514      1.0  0.86796  0.69021  0.36542  1.0000
  S   S147      1.0  0.78686  0.90011  0.22621  1.0000
  S   S148      1.0  0.26650  0.84126  0.28202  1.0000
  H   H886      1.0  0.83225  0.57219  0.39368  1.0000
  C   C515      1.0  0.87193  0.00103  0.36878  1.0000
  H   H887      1.0  0.21280  0.78949  0.36560  1.0000
  C   C516      1.0  0.81784  0.90166  0.38424  1.0000
  C   C517      1.0  0.12754  0.87941  0.19781  1.0000
  H   H888      1.0  0.01206  0.88042  0.27671  1.0000
  H   H889      1.0  0.23088  0.90689  0.31478  1.0000
  C   C518      1.0  0.84770  0.86857  0.40728  1.0000
  H   H890      1.0  0.16702  0.59277  0.26374  1.0000
  Fe  Fe73      1.0  0.81681  0.61892  0.21258  1.0000
  H   H891      1.0  0.90994  0.66998  0.23312  1.0000
  S   S149      1.0  0.88390  0.58620  0.26594  1.0000
  C   C519      1.0  0.17631  0.50982  0.30023  1.0000
  H   H892      1.0  0.76821  0.64569  0.38036  1.0000
  H   H893      1.0  0.77210  0.58391  0.34844  1.0000
  H   H894      1.0  0.26762  0.98859  0.39288  1.0000
  H   H895      1.0  0.87967  0.87781  0.66591  1.0000
  H   H896      1.0  0.92058  0.85308  0.60625  1.0000
  S   S150      1.0  0.05616  0.75391  0.52172  1.0000
  C   C520      1.0  0.20479  0.76985  0.50044  1.0000
  H   H897      1.0  0.25507  0.72615  0.44757  1.0000
  S   S151      1.0  0.99221  0.92606  0.64689  1.0000
  C   C521      1.0  0.88601  0.83547  0.61978  1.0000
  C   C522      1.0  0.14041  0.58353  0.53093  1.0000
  H   H898      1.0  0.78943  0.86134  0.62706  1.0000
  S   S152      1.0  0.84705  0.94423  0.58498  1.0000
  H   H899      1.0  0.87244  0.58100  0.47474  1.0000
  N   N36       1.0  0.18612  0.78426  0.44053  1.0000
  H   H900      1.0  0.10064  0.97179  0.45542  1.0000
  H   H901      1.0  0.18532  0.53376  0.65149  1.0000
  H   H902      1.0  0.97905  0.00063  0.53951  1.0000
  C   C523      1.0  0.76903  0.51281  0.60419  1.0000
  H   H903      1.0  0.22148  0.74020  0.51088  1.0000
  Fe  Fe74      1.0  0.03074  0.98616  0.65456  1.0000
  H   H904      1.0  0.91216  0.00784  0.52636  1.0000
  H   H905      1.0  0.85254  0.84483  0.58689  1.0000
  H   H906      1.0  0.15042  0.99222  0.52481  1.0000
  C   C524      1.0  0.77713  0.65592  0.50072  1.0000
  C   C525      1.0  0.17022  0.78313  0.62935  1.0000
  C   C526      1.0  0.78652  0.83092  0.65381  1.0000
  H   H907      1.0  0.79326  0.63584  0.53961  1.0000
  Fe  Fe75      1.0  0.91844  0.95282  0.64634  1.0000
  C   C527      1.0  0.99363  0.93559  0.50127  1.0000
  C   C528      1.0  0.82197  0.66168  0.65654  1.0000
  H   H908      1.0  0.80093  0.69399  0.43030  1.0000
  S   S153      1.0  0.93106  0.75956  0.47729  1.0000
  H   H909      1.0  0.19468  0.92524  0.54366  1.0000
  H   H910      1.0  0.24009  0.65937  0.43155  1.0000
  H   H911      1.0  0.88598  0.63581  0.55508  1.0000
  C   C529      1.0  0.12188  0.67869  0.61565  1.0000
  H   H912      1.0  0.14873  0.65392  0.55997  1.0000
  H   H913      1.0  0.20013  0.52526  0.43830  1.0000
  C   C530      1.0  0.89980  0.69042  0.62233  1.0000
  H   H914      1.0  0.09262  0.54804  0.58433  1.0000
  H   H915      1.0  0.82401  0.58723  0.50919  1.0000
  C   C531      1.0  0.06416  0.59669  0.63697  1.0000
  Fe  Fe76      1.0  0.98410  0.74192  0.55709  1.0000
  S   S154      1.0  0.87500  0.85953  0.47599  1.0000
  C   C532      1.0  0.11493  0.64790  0.58048  1.0000
  C   C533      1.0  0.09921  0.58033  0.56632  1.0000
  N   N37       1.0  0.83705  0.63788  0.44425  1.0000
  S   S155      1.0  0.12840  0.85222  0.56600  1.0000
  H   H916      1.0  0.17877  0.57424  0.55504  1.0000
  C   C534      1.0  0.20988  0.76151  0.66617  1.0000
  H   H917      1.0  0.25393  0.95145  0.56968  1.0000
  H   H918      1.0  0.10890  0.75610  0.44056  1.0000
  S   S156      1.0  0.24941  0.65480  0.54448  1.0000
  H   H919      1.0  0.13732  0.76783  0.60907  1.0000
  C   C535      1.0  0.79672  0.69704  0.63131  1.0000
  H   H920      1.0  0.91248  0.66888  0.44360  1.0000
  C   C536      1.0  0.87343  0.65839  0.65224  1.0000
  H   H921      1.0  0.89202  0.80344  0.62436  1.0000
  C   C537      1.0  0.17371  0.82498  0.61771  1.0000
  H   H922      1.0  0.03199  0.61586  0.61298  1.0000
  C   C538      1.0  0.15431  0.71257  0.42754  1.0000
  H   H923      1.0  0.80367  0.75617  0.58090  1.0000
  S   S157      1.0  0.96367  0.68604  0.61514  1.0000
  H   H924      1.0  0.20384  0.93911  0.45714  1.0000
  H   H925      1.0  0.93578  0.62692  0.52134  1.0000
  C   C539      1.0  0.82298  0.72890  0.60104  1.0000
  C   C540      1.0  0.86264  0.51226  0.62992  1.0000
  H   H926      1.0  0.08437  0.68316  0.62585  1.0000
  H   H927      1.0  0.89786  0.51603  0.65855  1.0000
  C   C541      1.0  0.79015  0.94521  0.60922  1.0000
  H   H928      1.0  0.19450  0.60309  0.62634  1.0000
  H   H929      1.0  0.98785  0.90413  0.52374  1.0000
  C   C542      1.0  0.79258  0.94945  0.66168  1.0000
  Fe  Fe77      1.0  0.94135  0.82073  0.49429  1.0000
  H   H930      1.0  0.06213  0.58902  0.53833  1.0000
  H   H931      1.0  0.91466  0.94216  0.50759  1.0000
  H   H932      1.0  0.21772  0.87748  0.63770  1.0000
  H   H933      1.0  0.99976  0.69692  0.44887  1.0000
  H   H934      1.0  0.12774  0.56294  0.50310  1.0000
  H   H935      1.0  0.90877  0.58725  0.56732  1.0000
  H   H936      1.0  0.22844  0.82518  0.53036  1.0000
  C   C543      1.0  0.93989  0.95291  0.47683  1.0000
  N   N38       1.0  0.93985  0.99787  0.45779  1.0000
  C   C544      1.0  0.12248  0.95073  0.44369  1.0000
  H   H937      1.0  0.78100  0.90008  0.49453  1.0000
  C   C545      1.0  0.21100  0.95153  0.56034  1.0000
  C   C546      1.0  0.81820  0.67010  0.46464  1.0000
  C   C547      1.0  0.16459  0.82480  0.43209  1.0000
  H   H938      1.0  0.14418  0.61387  0.50473  1.0000
  H   H939      1.0  0.19636  0.84776  0.44077  1.0000
  H   H940      1.0  0.04693  0.56542  0.63884  1.0000
  H   H941      1.0  0.08025  0.65573  0.54793  1.0000
  C   C548      1.0  0.25942  0.63260  0.45356  1.0000
  C   C549      1.0  0.89920  0.61470  0.53545  1.0000
  H   H942      1.0  0.78300  0.80941  0.62721  1.0000
  S   S158      1.0  0.98944  0.80216  0.57678  1.0000
  H   H943      1.0  0.19743  0.94735  0.59906  1.0000
  N   N39       1.0  0.11059  0.60450  0.60915  1.0000
  H   H944      1.0  0.89426  0.75061  0.57379  1.0000
  H   H945      1.0  0.15206  0.67169  0.65242  1.0000
  H   H946      1.0  0.01514  0.93463  0.46939  1.0000
  C   C550      1.0  0.16094  0.59337  0.64721  1.0000
  C   C551      1.0  0.21511  0.84519  0.64573  1.0000
  H   H947      1.0  0.13566  0.70752  0.59190  1.0000
  C   C552      1.0  0.87440  0.72562  0.59676  1.0000
  Fe  Fe78      1.0  0.05773  0.81586  0.53552  1.0000
  C   C553      1.0  0.81460  0.51622  0.64205  1.0000
  C   C554      1.0  0.19222  0.99146  0.52350  1.0000
  S   S159      1.0  0.97157  0.54053  0.50566  1.0000
  H   H948      1.0  0.13823  0.82391  0.46088  1.0000
  H   H949      1.0  0.01845  0.95208  0.52984  1.0000
  C   C555      1.0  0.24588  0.79814  0.52713  1.0000
  H   H950      1.0  0.85112  0.68581  0.48759  1.0000
  H   H951      1.0  0.17150  0.76518  0.52189  1.0000
  S   S160      1.0  0.00990  0.84007  0.45434  1.0000
  C   C556      1.0  0.85650  0.60363  0.49003  1.0000
  H   H952      1.0  0.17063  0.69819  0.46956  1.0000
  H   H953      1.0  0.85611  0.99275  0.44891  1.0000
  H   H954      1.0  0.12095  0.92115  0.47230  1.0000
  H   H955      1.0  0.01225  0.62526  0.45545  1.0000
  C   C557      1.0  0.25865  0.00517  0.46708  1.0000
  H   H956      1.0  0.92179  0.93759  0.44409  1.0000
  N   N40       1.0  0.20106  0.99967  0.46626  1.0000
  Fe  Fe79      1.0  0.00325  0.77727  0.44352  1.0000
  C   C558      1.0  0.88074  0.84475  0.67343  1.0000
  H   H957      1.0  0.89247  0.63086  0.67156  1.0000
  C   C559      1.0  0.17940  0.96537  0.43985  1.0000
  Fe  Fe80      1.0  0.00578  0.53824  0.43467  1.0000
  H   H958      1.0  0.26215  0.78247  0.56897  1.0000
  C   C560      1.0  0.16497  0.54856  0.67412  1.0000
  H   H959      1.0  0.76857  0.85363  0.47473  1.0000
  H   H960      1.0  0.20813  0.72921  0.67384  1.0000
