data_image0
_chemical_formula_structural       FeS2FeS2FeSFeS3H2FeS2FeSC2S2H2SH2NH4FeS2FeS2Fe2S3CSFeS3FeSFeS2FeS2FeS2Fe2S5H3C7H4CHC2HC6H4C6H4C6H4C2HCH4CHC7H5C7H4C6H9CHCSC4HCH2CH2CHNH3CH2C2HCH2FeHSH2C2NCS2HCHSNFeNH2FeH2CH3CHCH5CFeH2NCH3CFeHCH7CH3CHSHCNCHCH3C3H3NCH2CHFeHCH7CS2H4CH3NC4HC3H20CH4CHC4H2SHCHC3H2FeHCHC2HNC8H21C4FeHCHC2HSHSFeHCH2C2HCH8CH2C2SH4CHSH3C2HC4HCH2SH4CH6SCHCHSH4C5SHSCSH2CH2CH2CH2FeCH3C3H4CHFeC2NHCHCHC2HCH9NC2H4C2H3CH5CHCH3C3H4FeH5CHCH3C2HSCH7FeH6CH3FeH2SCH3FeSH2SHFeHFeSCSFeS2FeHSHCH2CHNCH3SHCH5S2C2NHFeS2FeS2FeSFeS3HFeS2FeSFeHSFeS2FeS2FeSFeHS2FeS2FeS2FeSFeS3C6H4C6H4C6H4C6H4C6H4CHCH4CH4CH2C6H4CS2HC7H4CSC4H2C6H4C4H7CH9CHCHNH5CH3CH2SCH2CSH2CH4NH3CNC8H21CH4SH2CHFeHC2SC2HNHNC8H21CHCSCH3CH8CH4C2HCHSCH2C2S2C2HCH2CHC2HCH3C2NC8H20CNC8H20CH2CH3FeH2CHCHCSHCH6C2H2CH3NCH5CHFeH5SCH3CH4C2HSHFeHCH4CH2SHC2H2CH2CFeHCHC2HCFeNSFeHSCHFeCS2FeSFe2S2FeSFeS3HFeS2FeS2FeSFeS3FeC2FeS2FeH2CSHCNCNCFeHCH4SH2CHC6H4C3H2C2SH6SHCH3C6H5C3H5C3H2C6H2CHCH3NCHCH8CH2CNCH2CH3CSHNC2H2C2SH15C3H3CH2CH2SH3CH6NCHCH6CH2NHC3H2CH2CH4CH3CHCH2C2H3C3H2C2H2CHCH5CH2CHC2HNC2H2CH3CHC2H4CH5C2HC2HC2HCH3C2HC2HCH3NCH4CH2CSHCSH8NH3C3H2CHC5H4C2H4C2HCH7CH2C2HCHCHCH3CH7SH9CH2C2H2FeSHFeS2Fe2S3CH3FeS2FeS2FeSFeS3FeS2FeS2FeSFeS3FeS2FeS2Fe2S3FeS2FeS2FeSFeS3FeHSFeS2FeCFeCS2C3H2SHSH7CHNH2NHSHFeS2FeSFeS3FeS2FeS2FeSFeS3C4H2FeH3CH2C7H4CHSH3CH4CH2CH4C4HCHC3H6CH3C6H4C6H4C5H2C6H4C7H3C6H4C6H4C6H4C6H5CH2CH4CH7CHC6H4C6H4C2HCH3CH4CHCH6C3H5CHCH5CH2CHCH2C3HC2H4SCH4SH2CH2CH5CHCH2CHCH3CHNH7CH5C2H4CHCHNC8H20CH2NC8H22CH2CSH7CH3SH2CH3C5HC2H14CHNC7H4NH10SC5H11NC2HCH3CH6FeCHC3H4NC8H11CH8CH2CH10CH2NCH6CHCH5NCHC2HNHNC2H3SHCHCH3C3HNH8NC8H5CH3CH4C2H10CHCH3FeCH3CHC2H2SH2CFeS2FeH2SCFeS2FeSHFeSFeS3HFeS2Fe2S3HCFeC2HSC3H2CHCH5C3H2C2H3C7H6C2H2C2HC2H3CH3CHC2SH4CHC2H2CH3CFeHC2H2FeH4CHCSCFeCFeH2FeNH3CHCHCH5FeH2SH3FeH4C3HC3HSNC3SC2SCH2C2H2CH7SH2CHCSH2SCH3SH2CH2CHC3H2CSH3S2HC3HNH2C2S2C3FeC2H3CH2C2H3SH5CHNH7CHCH5NCH2CH5FeHCH6CH2C4H2CFeH3NHCHCHCHC2HC2NC5HCH3C3H6CH3CH6C2H5C2HFeCH2SCSH2C2S2CH2CHCHSH2SH2C2SCH2C2H6SHC2H3CH2CH3SHSC3HCH4CNCH2C2HCH2NC2HCSH2FeCH2SHC2HNH4SCHCH4SHCH8CH5C2H2CNH2CH2C3HSH2FeS2FeSFe2S3CHS2CFeS2FeS2FeSFeS3FeS2FeS2FeSFeS3H4CSH2NSFeHSCSHSHFeS2FeS2FeSFeS3FeS2FeS2FeSFeS3CH4CHCH2CHC6HCH2C4HCH3NHFeC6H4C2H3SHCHC6H7CH5CH6CH2C6H4C6H4C6HFeH2CH2C3H2C6H6C3SH4C6H4CHCHCH2NHC2HC3HCH2C6H5C2H2NH3CH3NC2H6CH5SH5CHCH6C2NCHCH2CHCH4C2H2CH2CH2C3H6C2HC3HC2H2CH2C2H4CH3CHCHCHC4HC2H4CH10CHC3HSH2NC7H3CH3SHCH8C2HCHCH2CH7CHCH6CH5CHNC2H4NC5H21CHC3HN2H2C2HCFeH4CHC2HCH2CH6CHCH2NH3CH7SHC2H3NH5CH6NH2NC3HCHCHCH4CH9CHCH2CH6CH4CHC2H6SHCH2CHSHC2FeCHFeCHCH2CNHSC2HC2FeSC2FeH8CSHCH2CH3CHC2H3SCH3CH2CH3SCNFeSHFeS2FeSFeS3FeS2FeS2FeSFeS3FeSCFeS2FeSFeS3FeS2FeSFeHFeS2FeS2FeS2FeSFeS4HSFeSCHSHCSFeNFeSHCSHC2HCH4FeC6H4C6H4C2H4FeH2C6H4C2H2C6H4C6H4C6H4C6H4C6H4C6H4C2HCH2CH4CH4CH5SNHCHCH3SNC8H23C4H4CH4CHCHCH4CHCSH4SHCHFeCH2C2HCH3CHC2H2C3H7CH3C2H2CH2C3H2SNC8H20NC6H8CH2CHSCHC5HC2HNSNC8H20NC5H11NC8H21C2H2NH6FeHSH2CHCHSH4C2H2CHSHCH2NH9CHCNH2CH2CH4CSHC2H2CH4CH3C2HCNH2FeH3SHCH5CH9CH2C3H4CHSHFeSCFeHSHFeS2FeSCFeSFeS3C2H2CH3C2H2FeS2CH2FeSFe2S2FeS2FeHFeS3CH3CH2CHCHCH2CH2CH5CHCH2CH4C2H2C2FeSH2C6H4C3H5CH2CH3CSCSCHC6HCHNC3HSCH3NHCH3NC4HCH7CH3CHCHNH7CHC2H4CH2SH3C3H4CH4C3FeC4H4C3H3CH5CNC8H23C2HC2H3C2H4CH4SCH2CH2SCHC2H3SH4NH2CSHNSHSH2CHFeCH2CH2NHCHCHSH5C2HC2H3C3H2CSC3SH2C2HC3H2CH2CH3SH3CH3SHCNCFeSH2S2HCFeSHSHFeS2FeS2FeSFeS3FeSFeHS2FeS2FeS2FeSHCS2FeS2FeS2FeSFeS3FeSHS2HFeSFeSHSC2S3HSH3CFeC2H2C2SH2CHC6H4C6H6C4H3CH2C2H2C6H4C6H4C6H4C6H4C2H3C2HC6H6C2H8CHC2H5SCHCNHSFeCH2FeN2HCH5CHCHC3SCH2CHSH4C2FeNC6H16CHCNHCH3CHCHCNHSH2SH3SH3CH3CH2FeH5CH5C2H4CHSH2C3SH2CHC3H2NH3CH6NHCHCHC2HFeH2C2HC5FeCH2C2SH2CH2CHCSH6C2HCHCH3CH2C2NH3NC8H20CH2CH3CHSHFeCHFeH4C2H2NC8H20SHC2Fe2H3CHC2H5C2H7C2HCFeC2H2C3H7C2H2CHFeH2CHCH7CH2C2H2CH2SCSH5CH6CSHCH6CH3CH2C3NH2FeCHFeSFeSHSFeSFeS2FeSFeS2FeSFeSHFeSFeS3CH2SFeS2FeS2FeHFeS3FeSCFeS2FeSFeS3H3NHSC2HCH2CFeS2FeS2FeSFeS3H2C4H6C6H4C6H2CHC2H2CSC3HC6H4C6H4CH5CH4CH7C6H4C2HC7HCHCH3C4H3C6H5CH2CH5C6H4C4H2FeCH2CHC2H3CH2CH5C2H3C2H3CHCHCNC6HCH3CH7CH5NC7H18CH10SCH4C2H2CHCNCH6CH14SHCHNH5NC8H17CH3C2H6CN2C4HC2H7CHCH3NH3C2H2SH2CH2C2H4CH6C5H4C3SH5C3SH5C3SNHCH2NCH2CH6C2H3CHC3HSCHCSCH2CH5CH3CH2CH2C2H2CHNCH3C2H2SHCH3SHCHCHNH2C2H2CH2NCHCHC2H7CH2CHCH8CH2CHC2H7SCNCHCHCH2CHFeCHSHSHS2CFeSFeS2FeSFeCS2FeCSFeS2CFeHS2FeS2FeS2FeSCHS2FeS2FeS2FeHFeS3H3SFeHSFeSHSCFeS2FeS2HFeS3FeS2FeS2FeSFeS3H2SH2S2CH7CH3CHNC3HCH2C6H4CHNH2CH2CHC6H4C6H4C6H4FeH4CH4C6H2C6H5CH4C6H4C3H2C6H6NH2CHCH4CH2CH2NC8H20CH3SH4C2H4CH4CHSHNC4H7CH2SH6CHFeH2SFeH2CHCH3CNH3C3H2C2H4CHCH3NH4CH4FeHCH2NC8H28SH2CH5CHCH2CNCH2C2H4CHNC2H2C5H6CHCSC7H2C4H2CHCFeH3CH2CHNC8H20CH4CFeHCH3CHCHC3H3CHCH3CHSHCH3CHFeCHCHC2H7C2SH6FeS2FeS2FeSFeS3FeS2FeS2FeSFeS3FeS2FeSFeSFeS2FeS2FeS2FeSFeS3H2SFeSH3FeS2FeS2FeHFeS3H2CH2SHSHFeSFeSC2HNSCSCH2C6H6C6H4FeC6H4C6H4C6HCH2C6H5C2H2C6H4C6H4C6H4C6H4C6H4C6H4C6H5C2H4CH2NH3SH6C3H2C2H5CH4CH3C2HCH2CSH3CNHCHC2H5SNH2FeH5SH2FeNCH3CH2CHCH2CH2CS2H3C2H3NH2CHC2H2SNC8H21C2HCHCH2CHCH3C2SH2C2H3CHC2HCH3C2H10CH4NC6H19C2H8C2NC8H20CHSNCH2NC8H12C2H2CH2NCH2CH2C2NH10CH2CH2CHCHCHC4HCH3C2H2NCHNH8CHCH2C2H3C2H2SH3SH11C2HCH3NCH10C2HC3H4CHC2HCH2SCH2CHCH9NFeCHCH4CH4C2H3C2HCH2CH3CHCH2CH2CH5CHS2FeSFeS2FeSFeS4HSCH2C2H3CHFeSFeS2FeHFeS3HFeSFeS2H2CH4C7SHC6H5C2HC2H10CH2C5H3C6H4C6H4C2H2CH3CHC6H6C5SHCNHCHC2HNHFeH3C2H4SHFeHCH2CH5CH4SH6CHCHCHSCHCH4C3HCH4CH7C2FeH2CNH2C3SNHCHC2H4CH5CSC2H2CSH5CFeC2HC2HFeH3SC2H2CNC2HC2H3NCHCH3CHCH3CHCFeCH3FeCNCHCHFeHSH3SH2CH4CHCH3CH11CSC2HCH8CHS2HSHC2H4C4H2CH2CHNC2HCH2CH3CHCH3CH5FeCH4CHSH2SCH5S2HCH4C2H6CHCH4CHNCH6CHCHCH3FeS2FeS2FeSFeS5FeHFeSFeS2FeS2FeSFeS3FeS2FeS2FeSFeS3FeS2H3FeSHSHSFeSHFeSCFeSFeS3HCH3FeCH6SNSH3SH6CH2CHC3NH2CHSHC3H7FeH7CH4CHC6H4C6H4C3HS2H3C7H4C2HC4H3C6HNHC4H3C6H4C6H4C6H4C6H4CH2CH2CSH3NC6H13FeH4CH2C4H4C2HNHSHFeHCH2CH2CH3CH3CFeSH3C2H2CH2CH2SH2NC8H20C3H8NC8H21CH21C3H6CH2C2H3C2HSHCH4C2HCHSHC2NC4HCHCH6CH8NCH8NC2FeC2NHFeH4CSCHCHC3H2CH2SCHNHCSHCHSC2H3CHNH3CH4FeHCH3CH4C4H8CH2SC2H2CNH2SFeH2CHSCHC2H2NC8H2CH2C2HNH8C2HC2HC4HCHSH2FeHC4HCH2C3HCHCHCHC3HCH8C2HCS2FeS2FeSHFeHFeS3FeS2HSHFe2S3H2FeS2FeS2FeHFeHS2HSHCSHFeSFeSCSHCH3SH3CFeHSFeS2Fe2CS2FeS2FeS2FeHFeS3HCH4CH2CH2CHCHC7HCH2CHCH2C6H4CH4C2SH3CH2SHCH2C6H4C6H4CH4S2C2H4CHCFeH2C6H7C2H2SC2HC2HC2NH2C8H3NH2CHC2Fe2CH5CH3SHC3H2CHCH2C3HCH3CHCNCHC3NHCH11C3HSCHS2H3CHC2H3CHC2SNC8H20CH2NCHCH2C3SCHC2H7CH2CH2CH3CSCH2CS2H3CH4CHCHNC8H8CH3CH2CH4NC2HC5H14CH4CHCHCNH2C2HCH2NC2H2C2FeNC2HSNH2C2H2CH17C2H9CH6CH2CH3FeHCH3CH3CH3CFeHCFeHSH3CS2FeS2FeS2FeSFeS3FeS2FeS2FeCS2FeS2FeS2FeCFeS5CSCHSC3H2C7H2C5H2CHC4H2C6H4C6H3C7H3CH2C2H2C3H6CH2CH3C2HCHFeCH4FeCHSCH2CSCN2H3CHCH2FeC2HC2HC3SCHSCH7SH3S2HSH5NH3C2HC4HSH3NCH6CHC2H3CH3SHCH3FeCH2CH4CHCHCH2C2H3CHNC8H20SH5C2HCH2SHNHFeHSH2CHCH3CH2CH3CH2C2H5CH2CHCH2C3SH4CNH10CHCFeH7CH2FeHCHC2NH2C4HC2H3CHCHCSH2CH4CHC2HSHCH2C2H2CH2CH3CHFeC2HC2HCNCH2CHFeS2HS2HC2H6CH2CHSHCH10FeCHFeNC2HC2HCH2CH3NH2C4H7CHC4H2CH3CHCFeHCH2C2SH2FeCHSNCHCSH3CH3CH3SH2CHCHCH2CH2CH3NH5CH6NHCH3CH4CHCHCH2CHFeS2FeHFeSH8CHCSHSFeH2CH4CHCNC2H2CHCH2CHFeCSH4S2FeS2FeS2FeSFeS3FeS2FeS2FeSFeS3FeS3FeSFeSFeS2FeS2FeSFeS3FeS2FeS2FeHFeS3C6H5CHC6H4C6H4C6H4C6H4C6H4C6H4C2HSC3HCHCHCH2CH2SHCHC2H2C3HC6H7CHCFeH2C7H4C6H3C2HCHC3H3FeSH3CH2SCSCHCH2CH3C4SCH6SH8C2H3CH2CH3CHC3H2C2NH3C2H2SHCH4NC8H20NC4H13CNH2C2HCH4NCHC3HNCH7FeH4FeH2SC2NC8H24CH2CHCNH3CH3SC4HC2HCH2CH3SCHC2HCHCH4NHCHCH6CH2CH3SH2CH5CHCH8CH5CH4CHCH2CH2CHC2HCHSCHSHNCNH2CH6CH6NC2HC3HCH16NC2NHCH2FeH5C2SH3CH11C2H10CHCHNH3CH2FeS2FeS2FeSFeS3CSHCHFeSHS2FeH4CSHCHFeC2FeS2FeSFeSFeS3C3HCNH2CSCH4C5H3C2HC3H4CH2CHNSHC6H4C4H4C8H5CSFeH3CHC2H4SH2CH4CH2C2HCHCHC2H6SCHCHCHFeH2SHFeCHCH5CNH2CH3C2H4CH3FeHC2H2CHNHCHCSCH2C2H5CH2CH2CSCHCHNH4FeNC8H21SH2CHCH3C3H4C3H7CSCHCHCH4C2HC2NHCH2CH6C3HCH2CH6CHSCH6SCH6SHSHCH2SCSC2FeSHSH3C2FeS2FeS2FeSFeS3FeSFeS2FeSFeS2FeHFeS3FeS2FeS2FeSFeS3CSFeCSCH2FeSCSHSHFeS2FeSFeSH2CHCHC2H5C2HCH2C3H6C7H4C6H4CHC4HCH2C6H4C6H4C6H4C6H8FeH3C6H4C4H4CH3CSH4CH5CHC2HCHCH2SH2FeH4CH4NCH3NC4HC3H9CH3CH7SH2CHCH3NH4NC8H11C2H7C2H2CH6SCH2CSH5CH5CNC8H6CH4NH7NC8H24CH2CH5CH4CH3FeHSHCN2CH3CHFeHSCH3CSCHSCFeH4CHCSH5CH2FeHNH7CH5NCH3NC7H3C3NCH3C3SH6C4FeCH8C2H2FeHCFeHC2H2SH2FeS2FeS2FeSFeS3FeS2FeS2FeHFeCS2FeS2FeS2FeSFeS3FeCSH2CFeS2HSFeSCFeSFeS3FeS2FeSHFeSFeS3H2C6H5C6H3C8H2C4H2C7H5C2HC6H2CHC4H4C6H6C4H4CH4C4HC2HC3H2CHCH4CH2C2H3CH2NC3NHC2H7CHCH8CH3CHSHCHC2H3FeH3CH4C3HNHC2SC2HC2HCH4CH6SCH5C2H2SH3CHSNC8H20NC8H20C2H3CFeH3CH3CHCNCH3CH2C3HNC5HCH4SH9C3H4CH2SC3H6NC8H20NSC3HCH4SHCH2CHNHCH13CH13C2H2CHC2HCHCH2CH3C3HNH5CHSNHC2H6CNH2CH5CHCHCHCHSH2SH7FeHCHC2H3CH2NH3CHCHNCH2CH2CH2CHC5H2C2H6CH2CH2CH4C2H3C2H8C2HCH5CH3NHC2H
_chemical_formula_sum              "Fe512 S1024 H6144 C3584 N256"
_cell_length_a       79.1492
_cell_length_b       80.2044
_cell_length_c       112.225
_cell_angle_alpha    74.3247
_cell_angle_beta     74.2776
_cell_angle_gamma    74.367

_space_group_name_H-M_alt    "P 1"
_space_group_IT_number       1

loop_
  _space_group_symop_operation_xyz
  'x, y, z'

loop_
  _atom_site_type_symbol
  _atom_site_label
  _atom_site_symmetry_multiplicity
  _atom_site_fract_x
  _atom_site_fract_y
  _atom_site_fract_z
  _atom_site_occupancy
  Fe  Fe1       1.0  0.43852  0.09297  0.02070  1.0000
  S   S1        1.0  0.41693  0.11765  0.02104  1.0000
  S   S2        1.0  0.46736  0.09192  0.01107  1.0000
  Fe  Fe2       1.0  0.41350  0.06853  0.03617  1.0000
  S   S3        1.0  0.38981  0.09108  0.03834  1.0000
  S   S4        1.0  0.41183  0.04001  0.04460  1.0000
  Fe  Fe3       1.0  0.40027  0.10127  0.01770  1.0000
  S   S5        1.0  0.38088  0.11157  0.00467  1.0000
  Fe  Fe4       1.0  0.40865  0.10521  0.04161  1.0000
  S   S6        1.0  0.40117  0.11913  0.05794  1.0000
  S   S7        1.0  0.42278  0.07785  0.01538  1.0000
  S   S8        1.0  0.43149  0.08147  0.04144  1.0000
  H   H1        1.0  0.39251  0.21463  0.13791  1.0000
  H   H2        1.0  0.44395  0.12661  0.05733  1.0000
  Fe  Fe5       1.0  0.04417  0.44476  0.02727  1.0000
  S   S9        1.0  0.07092  0.44380  0.01357  1.0000
  S   S10       1.0  0.03268  0.42050  0.03643  1.0000
  Fe  Fe6       1.0  0.07664  0.45988  0.02511  1.0000
  S   S11       1.0  0.10455  0.45552  0.02870  1.0000
  C   C1        1.0  0.34030  0.31714  0.15921  1.0000
  C   C2        1.0  0.49067  0.13255  0.01943  1.0000
  S   S12       1.0  0.05109  0.45834  0.03980  1.0000
  S   S13       1.0  0.03010  0.46955  0.01597  1.0000
  H   H3        1.0  0.38687  0.30633  0.12519  1.0000
  H   H4        1.0  0.27057  0.40926  0.09428  1.0000
  S   S14       1.0  0.21046  0.44304  0.07632  1.0000
  H   H5        1.0  0.48966  0.29130  0.13250  1.0000
  H   H6        1.0  0.44379  0.16627  0.14252  1.0000
  N   N1        1.0  0.47952  0.26749  0.14238  1.0000
  H   H7        1.0  0.00551  0.46107  0.04519  1.0000
  H   H8        1.0  0.49976  0.37769  0.09511  1.0000
  H   H9        1.0  0.12489  0.48488  0.01265  1.0000
  H   H10       1.0  0.34801  0.28557  0.09347  1.0000
  Fe  Fe7       1.0  0.42895  0.19539  0.07262  1.0000
  S   S15       1.0  0.44004  0.17757  0.08909  1.0000
  S   S16       1.0  0.43294  0.18530  0.05482  1.0000
  Fe  Fe8       1.0  0.41790  0.22752  0.08484  1.0000
  S   S17       1.0  0.42825  0.21229  0.10220  1.0000
  S   S18       1.0  0.40428  0.25630  0.08393  1.0000
  Fe  Fe9       1.0  0.45188  0.20009  0.08884  1.0000
  Fe  Fe10      1.0  0.41549  0.19119  0.10107  1.0000
  S   S19       1.0  0.40219  0.17573  0.11940  1.0000
  S   S20       1.0  0.44279  0.21717  0.07134  1.0000
  S   S21       1.0  0.40308  0.20726  0.08463  1.0000
  C   C3        1.0  0.48067  0.29249  0.15236  1.0000
  S   S22       1.0  0.11611  0.46646  0.07968  1.0000
  Fe  Fe11      1.0  0.15560  0.45059  0.11063  1.0000
  S   S23       1.0  0.15064  0.43668  0.13109  1.0000
  S   S24       1.0  0.16062  0.43822  0.09398  1.0000
  S   S25       1.0  0.33710  0.22637  0.14748  1.0000
  Fe  Fe12      1.0  0.30166  0.43685  0.12372  1.0000
  S   S26       1.0  0.32078  0.41272  0.13185  1.0000
  Fe  Fe13      1.0  0.26261  0.45570  0.13083  1.0000
  S   S27       1.0  0.23619  0.45871  0.14469  1.0000
  S   S28       1.0  0.27633  0.43582  0.11864  1.0000
  Fe  Fe14      1.0  0.43414  0.32426  0.10662  1.0000
  S   S29       1.0  0.43796  0.31638  0.12652  1.0000
  S   S30       1.0  0.44857  0.30263  0.09586  1.0000
  Fe  Fe15      1.0  0.41429  0.36134  0.10996  1.0000
  S   S31       1.0  0.41710  0.35616  0.13012  1.0000
  S   S32       1.0  0.39900  0.38747  0.10044  1.0000
  Fe  Fe16      1.0  0.44543  0.34241  0.12300  1.0000
  Fe  Fe17      1.0  0.40965  0.33044  0.13182  1.0000
  S   S33       1.0  0.39014  0.31972  0.14897  1.0000
  S   S34       1.0  0.44350  0.34970  0.10257  1.0000
  S   S35       1.0  0.40482  0.33639  0.11217  1.0000
  S   S36       1.0  0.19583  0.35826  0.14108  1.0000
  S   S37       1.0  0.30869  0.45937  0.10760  1.0000
  H   H11       1.0  0.24394  0.44795  0.06003  1.0000
  H   H12       1.0  0.00482  0.44804  0.06088  1.0000
  H   H13       1.0  0.24790  0.42169  0.14301  1.0000
  C   C4        1.0  0.24370  0.45734  0.09223  1.0000
  C   C5        1.0  0.34236  0.40627  0.12275  1.0000
  C   C6        1.0  0.35508  0.39362  0.12882  1.0000
  C   C7        1.0  0.37233  0.38759  0.12199  1.0000
  C   C8        1.0  0.37717  0.39456  0.10902  1.0000
  C   C9        1.0  0.36458  0.40760  0.10294  1.0000
  C   C10       1.0  0.34713  0.41341  0.10979  1.0000
  H   H14       1.0  0.35161  0.38858  0.13889  1.0000
  H   H15       1.0  0.38195  0.37770  0.12679  1.0000
  H   H16       1.0  0.36827  0.41303  0.09290  1.0000
  H   H17       1.0  0.33739  0.42321  0.10501  1.0000
  C   C11       1.0  0.39476  0.29663  0.15459  1.0000
  H   H18       1.0  0.24038  0.39453  0.15830  1.0000
  C   C12       1.0  0.40926  0.28556  0.14825  1.0000
  C   C13       1.0  0.17955  0.44399  0.15914  1.0000
  H   H19       1.0  0.41795  0.29117  0.13981  1.0000
  C   C14       1.0  0.16248  0.41458  0.13401  1.0000
  C   C15       1.0  0.16749  0.40707  0.14568  1.0000
  C   C16       1.0  0.17782  0.38978  0.14791  1.0000
  C   C17       1.0  0.18250  0.37969  0.13866  1.0000
  C   C18       1.0  0.17687  0.38693  0.12719  1.0000
  C   C19       1.0  0.16712  0.40446  0.12478  1.0000
  H   H20       1.0  0.16341  0.41454  0.15303  1.0000
  H   H21       1.0  0.18193  0.38415  0.15685  1.0000
  H   H22       1.0  0.18035  0.37907  0.12007  1.0000
  H   H23       1.0  0.16293  0.40997  0.11589  1.0000
  C   C20       1.0  0.38322  0.18926  0.12693  1.0000
  C   C21       1.0  0.37601  0.18376  0.13984  1.0000
  C   C22       1.0  0.36178  0.19512  0.14620  1.0000
  C   C23       1.0  0.35436  0.21174  0.13956  1.0000
  C   C24       1.0  0.36112  0.21695  0.12655  1.0000
  C   C25       1.0  0.37578  0.20589  0.12030  1.0000
  H   H24       1.0  0.38170  0.17089  0.14499  1.0000
  H   H25       1.0  0.35642  0.19093  0.15621  1.0000
  H   H26       1.0  0.35526  0.22967  0.12134  1.0000
  H   H27       1.0  0.38124  0.21020  0.11033  1.0000
  C   C26       1.0  0.41668  0.26906  0.08726  1.0000
  C   C27       1.0  0.43413  0.26179  0.08921  1.0000
  C   C28       1.0  0.44377  0.27220  0.09188  1.0000
  C   C29       1.0  0.43585  0.28976  0.09299  1.0000
  C   C30       1.0  0.41831  0.29696  0.09123  1.0000
  C   C31       1.0  0.40889  0.28672  0.08811  1.0000
  H   H28       1.0  0.44032  0.24826  0.08839  1.0000
  H   H29       1.0  0.45744  0.26666  0.09304  1.0000
  H   H30       1.0  0.41226  0.31060  0.09182  1.0000
  H   H31       1.0  0.39555  0.29250  0.08635  1.0000
  C   C32       1.0  0.49131  0.08779  0.06701  1.0000
  C   C33       1.0  0.01277  0.41905  0.03292  1.0000
  H   H32       1.0  0.26285  0.27901  0.15801  1.0000
  C   C34       1.0  0.21875  0.42468  0.17656  1.0000
  H   H33       1.0  0.33896  0.29646  0.12610  1.0000
  H   H34       1.0  0.44484  0.04157  0.98665  1.0000
  H   H35       1.0  0.34341  0.32003  0.16737  1.0000
  H   H36       1.0  0.38727  0.16277  0.98707  1.0000
  C   C35       1.0  0.46618  0.20905  0.03650  1.0000
  H   H37       1.0  0.16256  0.48922  0.15211  1.0000
  C   C36       1.0  0.44375  0.00481  0.99797  1.0000
  C   C37       1.0  0.10778  0.45936  0.04260  1.0000
  C   C38       1.0  0.12522  0.45526  0.04485  1.0000
  C   C39       1.0  0.12813  0.45761  0.05608  1.0000
  C   C40       1.0  0.11356  0.46394  0.06516  1.0000
  C   C41       1.0  0.09618  0.46814  0.06285  1.0000
  C   C42       1.0  0.09329  0.46603  0.05156  1.0000
  H   H38       1.0  0.13652  0.45010  0.03793  1.0000
  H   H39       1.0  0.14158  0.45429  0.05779  1.0000
  H   H40       1.0  0.35267  0.31449  0.15191  1.0000
  H   H41       1.0  0.48592  0.31563  0.11112  1.0000
  H   H42       1.0  0.24375  0.45973  0.10126  1.0000
  C   C43       1.0  0.44102  0.21159  0.13439  1.0000
  C   C44       1.0  0.40835  0.02703  0.03545  1.0000
  C   C45       1.0  0.40403  0.03439  0.02354  1.0000
  C   C46       1.0  0.40087  0.02355  0.01672  1.0000
  C   C47       1.0  0.40218  0.00531  0.02172  1.0000
  C   C48       1.0  0.40640  0.99810  0.03362  1.0000
  C   C49       1.0  0.40945  0.00889  0.04045  1.0000
  H   H43       1.0  0.40298  0.04842  0.01964  1.0000
  H   H44       1.0  0.39754  0.02927  0.00752  1.0000
  H   H45       1.0  0.44898  0.02632  0.03235  1.0000
  H   H46       1.0  0.41260  0.00313  0.04970  1.0000
  C   C50       1.0  0.40882  0.13845  0.05659  1.0000
  C   C51       1.0  0.41854  0.14664  0.04512  1.0000
  C   C52       1.0  0.42564  0.16118  0.04465  1.0000
  C   C53       1.0  0.42299  0.16768  0.05560  1.0000
  C   C54       1.0  0.41303  0.15968  0.06701  1.0000
  C   C55       1.0  0.40598  0.14513  0.06749  1.0000
  H   H47       1.0  0.42091  0.14155  0.03669  1.0000
  H   H48       1.0  0.43338  0.16729  0.03580  1.0000
  H   H49       1.0  0.41086  0.16463  0.07549  1.0000
  H   H50       1.0  0.39843  0.13889  0.07638  1.0000
  H   H51       1.0  0.36186  0.36018  0.15041  1.0000
  H   H52       1.0  0.48123  0.30674  0.14976  1.0000
  H   H53       1.0  0.46327  0.15356  0.05927  1.0000
  H   H54       1.0  0.47436  0.10898  0.04361  1.0000
  H   H55       1.0  0.36386  0.41425  0.15607  1.0000
  C   C56       1.0  0.36011  0.47925  0.13700  1.0000
  H   H56       1.0  0.31415  0.33350  0.16226  1.0000
  C   C57       1.0  0.35220  0.35498  0.15891  1.0000
  S   S38       1.0  0.39859  0.99173  0.01301  1.0000
  C   C58       1.0  0.47501  0.02035  0.99429  1.0000
  C   C59       1.0  0.36762  0.46748  0.12715  1.0000
  C   C60       1.0  0.25632  0.28032  0.16791  1.0000
  C   C61       1.0  0.36808  0.10468  0.98670  1.0000
  H   H57       1.0  0.16641  0.47646  0.13435  1.0000
  C   C62       1.0  0.45035  0.00705  0.00906  1.0000
  H   H58       1.0  0.21477  0.42081  0.10544  1.0000
  H   H59       1.0  0.32249  0.44554  0.14857  1.0000
  C   C63       1.0  0.48587  0.23230  0.10429  1.0000
  H   H60       1.0  0.34995  0.05433  0.06287  1.0000
  H   H61       1.0  0.36720  0.42788  0.12134  1.0000
  C   C64       1.0  0.28557  0.31815  0.17428  1.0000
  H   H62       1.0  0.46263  0.22581  0.12895  1.0000
  N   N2        1.0  0.49468  0.19695  0.04599  1.0000
  H   H63       1.0  0.33553  0.30455  0.16282  1.0000
  H   H64       1.0  0.37212  0.41117  0.14023  1.0000
  H   H65       1.0  0.44793  0.09780  0.98990  1.0000
  C   C65       1.0  0.00551  0.43144  0.98688  1.0000
  H   H66       1.0  0.36398  0.47609  0.11825  1.0000
  H   H67       1.0  0.41184  0.17848  0.16418  1.0000
  C   C66       1.0  0.49662  0.25608  0.14614  1.0000
  C   C67       1.0  0.36247  0.42020  0.14613  1.0000
  H   H68       1.0  0.46599  0.26250  0.16219  1.0000
  C   C68       1.0  0.48604  0.36074  0.11103  1.0000
  H   H69       1.0  0.08488  0.47301  0.06987  1.0000
  H   H70       1.0  0.43951  0.21468  0.12441  1.0000
  Fe  Fe18      1.0  0.20854  0.35157  0.15787  1.0000
  H   H71       1.0  0.49525  0.07407  0.07245  1.0000
  S   S39       1.0  0.26636  0.47931  0.11518  1.0000
  H   H72       1.0  0.29909  0.29527  0.15065  1.0000
  H   H73       1.0  0.46640  0.15126  0.01581  1.0000
  C   C69       1.0  0.21723  0.39816  0.09788  1.0000
  C   C70       1.0  0.25875  0.45863  0.08224  1.0000
  N   N3        1.0  0.43526  0.19453  0.14168  1.0000
  C   C71       1.0  0.47368  0.13763  0.01644  1.0000
  S   S40       1.0  0.22477  0.32425  0.16328  1.0000
  S   S41       1.0  0.27421  0.32846  0.15201  1.0000
  H   H74       1.0  0.21052  0.42151  0.14075  1.0000
  C   C72       1.0  0.24372  0.45071  0.06900  1.0000
  H   H75       1.0  0.22981  0.39849  0.09061  1.0000
  S   S42       1.0  0.23085  0.36497  0.15567  1.0000
  N   N4        1.0  0.33038  0.34942  0.14721  1.0000
  Fe  Fe19      1.0  0.03922  0.48319  0.02726  1.0000
  N   N5        1.0  0.36354  0.27717  0.12145  1.0000
  H   H76       1.0  0.26757  0.37514  0.11560  1.0000
  H   H77       1.0  0.25798  0.35630  0.12377  1.0000
  Fe  Fe20      1.0  0.28219  0.45962  0.10347  1.0000
  H   H78       1.0  0.42609  0.20536  0.15870  1.0000
  H   H79       1.0  0.46448  0.22537  0.09931  1.0000
  C   C73       1.0  0.32546  0.33185  0.15401  1.0000
  H   H80       1.0  0.17429  0.45331  0.13524  1.0000
  H   H81       1.0  0.20368  0.40424  0.11571  1.0000
  H   H82       1.0  0.25455  0.37385  0.13160  1.0000
  C   C74       1.0  0.46165  0.27375  0.12484  1.0000
  H   H83       1.0  0.48998  0.26854  0.12236  1.0000
  C   C75       1.0  0.30654  0.29061  0.17998  1.0000
  H   H84       1.0  0.46373  0.28640  0.11818  1.0000
  H   H85       1.0  0.44953  0.27652  0.13227  1.0000
  H   H86       1.0  0.45853  0.26536  0.11965  1.0000
  H   H87       1.0  0.40483  0.21926  0.14728  1.0000
  H   H88       1.0  0.47055  0.20291  0.12876  1.0000
  C   C76       1.0  0.37374  0.29183  0.11790  1.0000
  Fe  Fe21      1.0  0.14207  0.46300  0.08597  1.0000
  H   H89       1.0  0.44266  0.11850  0.99445  1.0000
  H   H90       1.0  0.14306  0.45656  0.16625  1.0000
  N   N6        1.0  0.16816  0.46095  0.15323  1.0000
  C   C77       1.0  0.47845  0.22157  0.09995  1.0000
  H   H91       1.0  0.49331  0.07554  0.98751  1.0000
  H   H92       1.0  0.37548  0.26175  0.13742  1.0000
  H   H93       1.0  0.45127  0.27299  0.15188  1.0000
  C   C78       1.0  0.39233  0.25267  0.12064  1.0000
  Fe  Fe22      1.0  0.18230  0.45407  0.08597  1.0000
  H   H94       1.0  0.27706  0.33039  0.17656  1.0000
  C   C79       1.0  0.41739  0.19491  0.13918  1.0000
  H   H95       1.0  0.49191  0.13772  0.99069  1.0000
  H   H96       1.0  0.42263  0.25856  0.14721  1.0000
  H   H97       1.0  0.34805  0.28392  0.13926  1.0000
  H   H98       1.0  0.44750  0.19114  0.15751  1.0000
  H   H99       1.0  0.29868  0.37485  0.15669  1.0000
  H   H100      1.0  0.20307  0.42607  0.12638  1.0000
  H   H101      1.0  0.39282  0.28297  0.13047  1.0000
  C   C80       1.0  0.40129  0.20840  0.14483  1.0000
  H   H102      1.0  0.49987  0.08890  0.01859  1.0000
  H   H103      1.0  0.14938  0.44527  0.15370  1.0000
  H   H104      1.0  0.24160  0.42349  0.10872  1.0000
  C   C81       1.0  0.34144  0.45371  0.13090  1.0000
  H   H105      1.0  0.46428  0.08808  0.07786  1.0000
  S   S43       1.0  0.36498  0.20858  0.17438  1.0000
  H   H106      1.0  0.44280  0.10542  0.06636  1.0000
  C   C82       1.0  0.00833  0.40244  0.03605  1.0000
  N   N7        1.0  0.46475  0.11534  0.06809  1.0000
  C   C83       1.0  0.45328  0.12533  0.07818  1.0000
  H   H107      1.0  0.24214  0.27939  0.16940  1.0000
  C   C84       1.0  0.22858  0.44955  0.07886  1.0000
  H   H108      1.0  0.35723  0.07384  0.04117  1.0000
  H   H109      1.0  0.49297  0.17686  0.03688  1.0000
  H   H110      1.0  0.19540  0.48027  0.13548  1.0000
  C   C85       1.0  0.47877  0.26417  0.12997  1.0000
  C   C86       1.0  0.43914  0.11606  0.08822  1.0000
  C   C87       1.0  0.14928  0.45797  0.15597  1.0000
  H   H111      1.0  0.44556  0.13834  0.07391  1.0000
  H   H112      1.0  0.35782  0.00581  0.03701  1.0000
  H   H113      1.0  0.04661  0.48781  0.04955  1.0000
  N   N8        1.0  0.23194  0.39915  0.11589  1.0000
  C   C88       1.0  0.34585  0.28285  0.13014  1.0000
  H   H114      1.0  0.32984  0.26488  0.14393  1.0000
  H   H115      1.0  0.47495  0.22125  0.04787  1.0000
  C   C89       1.0  0.47370  0.09731  0.07462  1.0000
  H   H116      1.0  0.39097  0.24665  0.11321  1.0000
  Fe  Fe23      1.0  0.37353  0.23272  0.17508  1.0000
  H   H117      1.0  0.49010  0.08668  0.05769  1.0000
  C   C90       1.0  0.19423  0.46757  0.13396  1.0000
  H   H118      1.0  0.50097  0.43312  0.10684  1.0000
  H   H119      1.0  0.48163  0.00478  0.01655  1.0000
  H   H120      1.0  0.38603  0.43715  0.11922  1.0000
  H   H121      1.0  0.44079  0.17752  0.12043  1.0000
  H   H122      1.0  0.28696  0.37483  0.14522  1.0000
  H   H123      1.0  0.45759  0.19059  0.11727  1.0000
  H   H124      1.0  0.47761  0.24442  0.10691  1.0000
  C   C91       1.0  0.31490  0.36092  0.14134  1.0000
  S   S44       1.0  0.23754  0.33934  0.18316  1.0000
  S   S45       1.0  0.40186  0.23664  0.16744  1.0000
  H   H125      1.0  0.31869  0.37333  0.13502  1.0000
  H   H126      1.0  0.31132  0.35409  0.13525  1.0000
  H   H127      1.0  0.22763  0.37232  0.12286  1.0000
  H   H128      1.0  0.49755  0.05956  0.00142  1.0000
  C   C92       1.0  0.48483  0.18722  0.05822  1.0000
  H   H129      1.0  0.19363  0.44497  0.15767  1.0000
  H   H130      1.0  0.21521  0.39357  0.13472  1.0000
  H   H131      1.0  0.42858  0.11460  0.08401  1.0000
  N   N9        1.0  0.35126  0.05107  0.03735  1.0000
  C   C93       1.0  0.36234  0.05926  0.04232  1.0000
  C   C94       1.0  0.35490  0.05743  0.02313  1.0000
  C   C95       1.0  0.35726  0.03113  0.04086  1.0000
  C   C96       1.0  0.33183  0.05692  0.04351  1.0000
  H   H132      1.0  0.40756  0.08220  0.99503  1.0000
  C   C97       1.0  0.34952  0.07760  0.01823  1.0000
  C   C98       1.0  0.35391  0.02012  0.03270  1.0000
  C   C99       1.0  0.31769  0.05165  0.03894  1.0000
  H   H133      1.0  0.19773  0.46862  0.12354  1.0000
  H   H134      1.0  0.40515  0.13585  0.99653  1.0000
  H   H135      1.0  0.34811  0.05129  0.01854  1.0000
  H   H136      1.0  0.36945  0.05326  0.01900  1.0000
  H   H137      1.0  0.37198  0.02730  0.04036  1.0000
  H   H138      1.0  0.35105  0.02591  0.05090  1.0000
  H   H139      1.0  0.32954  0.05138  0.05389  1.0000
  H   H140      1.0  0.32805  0.07149  0.04292  1.0000
  H   H141      1.0  0.37645  0.05752  0.03678  1.0000
  H   H142      1.0  0.46371  0.14420  0.04610  1.0000
  H   H143      1.0  0.16054  0.43211  0.17549  1.0000
  H   H144      1.0  0.33508  0.08294  0.02173  1.0000
  H   H145      1.0  0.35787  0.08490  0.02055  1.0000
  H   H146      1.0  0.35190  0.08041  0.00773  1.0000
  H   H147      1.0  0.36251  0.02212  0.02302  1.0000
  H   H148      1.0  0.33971  0.02277  0.03209  1.0000
  H   H149      1.0  0.24413  0.48604  0.15809  1.0000
  H   H150      1.0  0.31534  0.03836  0.04435  1.0000
  H   H151      1.0  0.32098  0.05193  0.02869  1.0000
  H   H152      1.0  0.30482  0.06149  0.04046  1.0000
  C   C100      1.0  0.23530  0.40719  0.16094  1.0000
  H   H153      1.0  0.17091  0.44743  0.17894  1.0000
  H   H154      1.0  0.48698  0.12731  0.06631  1.0000
  H   H155      1.0  0.44520  0.10302  0.09354  1.0000
  H   H156      1.0  0.40073  0.26267  0.11621  1.0000
  C   C101      1.0  0.44905  0.03929  0.00617  1.0000
  H   H157      1.0  0.25681  0.29375  0.16850  1.0000
  C   C102      1.0  0.47867  0.12586  0.06021  1.0000
  C   C103      1.0  0.41308  0.14426  0.98861  1.0000
  C   C104      1.0  0.33312  0.35878  0.15637  1.0000
  C   C105      1.0  0.33227  0.27069  0.13360  1.0000
  H   H158      1.0  0.00453  0.44678  0.02486  1.0000
  H   H159      1.0  0.48838  0.11899  0.05298  1.0000
  S   S46       1.0  0.19618  0.35430  0.17798  1.0000
  H   H160      1.0  0.38518  0.29002  0.10976  1.0000
  C   C106      1.0  0.25858  0.45552  0.07061  1.0000
  H   H161      1.0  0.01070  0.41619  0.00569  1.0000
  C   C107      1.0  0.50029  0.36919  0.10437  1.0000
  C   C108      1.0  0.36331  0.05215  0.05642  1.0000
  C   C109      1.0  0.25558  0.37095  0.12232  1.0000
  H   H162      1.0  0.20429  0.45642  0.13788  1.0000
  H   H163      1.0  0.19753  0.47127  0.15589  1.0000
  Fe  Fe24      1.0  0.29197  0.47693  0.12096  1.0000
  H   H164      1.0  0.36590  0.24958  0.13116  1.0000
  C   C110      1.0  0.22292  0.44002  0.16794  1.0000
  H   H165      1.0  0.37490  0.46211  0.10252  1.0000
  C   C111      1.0  0.49982  0.11488  0.02046  1.0000
  C   C112      1.0  0.38310  0.28916  0.16525  1.0000
  H   H166      1.0  0.34857  0.42052  0.14567  1.0000
  N   N10       1.0  0.08722  0.41043  0.06563  1.0000
  C   C113      1.0  0.08401  0.41860  0.05240  1.0000
  C   C114      1.0  0.07037  0.41704  0.07474  1.0000
  C   C115      1.0  0.09052  0.39054  0.06738  1.0000
  C   C116      1.0  0.10345  0.41593  0.06671  1.0000
  C   C117      1.0  0.09863  0.41182  0.04149  1.0000
  C   C118      1.0  0.06589  0.43708  0.07441  1.0000
  C   C119      1.0  0.08757  0.37954  0.08109  1.0000
  C   C120      1.0  0.10780  0.41158  0.07995  1.0000
  H   H167      1.0  0.07103  0.41657  0.05150  1.0000
  H   H168      1.0  0.08281  0.43318  0.05021  1.0000
  H   H169      1.0  0.07077  0.41040  0.08472  1.0000
  H   H170      1.0  0.05854  0.41371  0.07302  1.0000
  H   H171      1.0  0.08155  0.38697  0.06275  1.0000
  H   H172      1.0  0.10450  0.38519  0.06261  1.0000
  H   H173      1.0  0.11580  0.40980  0.06052  1.0000
  H   H174      1.0  0.10269  0.43033  0.06287  1.0000
  H   H175      1.0  0.11180  0.41468  0.04092  1.0000
  H   H176      1.0  0.10004  0.39751  0.04203  1.0000
  H   H177      1.0  0.09466  0.41895  0.03237  1.0000
  H   H178      1.0  0.07667  0.44119  0.07679  1.0000
  H   H179      1.0  0.06307  0.44521  0.06521  1.0000
  H   H180      1.0  0.05351  0.44023  0.08169  1.0000
  H   H181      1.0  0.09489  0.38254  0.08707  1.0000
  H   H182      1.0  0.09256  0.36525  0.08087  1.0000
  H   H183      1.0  0.07305  0.38123  0.08562  1.0000
  H   H184      1.0  0.11727  0.39857  0.08159  1.0000
  H   H185      1.0  0.09591  0.41184  0.08784  1.0000
  H   H186      1.0  0.11429  0.42195  0.08055  1.0000
  H   H187      1.0  0.33452  0.46074  0.15011  1.0000
  C   C121      1.0  0.17497  0.46450  0.13905  1.0000
  C   C122      1.0  0.22849  0.45308  0.09047  1.0000
  C   C123      1.0  0.22444  0.40830  0.17298  1.0000
  C   C124      1.0  0.38202  0.09973  0.99323  1.0000
  Fe  Fe25      1.0  0.05728  0.46980  0.00318  1.0000
  H   H188      1.0  0.33650  0.25959  0.12865  1.0000
  C   C125      1.0  0.23312  0.43903  0.15575  1.0000
  H   H189      1.0  0.47712  0.32000  0.09735  1.0000
  C   C126      1.0  0.34787  0.28892  0.10249  1.0000
  C   C127      1.0  0.37128  0.44068  0.11964  1.0000
  H   H190      1.0  0.41764  0.10993  0.98807  1.0000
  S   S47       1.0  0.32335  0.22996  0.18350  1.0000
  H   H191      1.0  0.46872  0.29110  0.16018  1.0000
  S   S48       1.0  0.06518  0.48582  0.01350  1.0000
  Fe  Fe26      1.0  0.34351  0.22807  0.16532  1.0000
  H   H192      1.0  0.45482  0.24449  0.14539  1.0000
  C   C128      1.0  0.21655  0.40623  0.10906  1.0000
  H   H193      1.0  0.31915  0.27849  0.13145  1.0000
  H   H194      1.0  0.33809  0.44220  0.12895  1.0000
  C   C129      1.0  0.34678  0.34746  0.13662  1.0000
  C   C130      1.0  0.36098  0.27406  0.10943  1.0000
  H   H195      1.0  0.03065  0.41698  0.99339  1.0000
  C   C131      1.0  0.42584  0.17753  0.16474  1.0000
  H   H196      1.0  0.35192  0.30184  0.09998  1.0000
  H   H197      1.0  0.34311  0.32498  0.13044  1.0000
  H   H198      1.0  0.07984  0.46938  0.04988  1.0000
  H   H199      1.0  0.35661  0.26141  0.11110  1.0000
  H   H200      1.0  0.21696  0.45205  0.09819  1.0000
  H   H201      1.0  0.21811  0.45266  0.17071  1.0000
  H   H202      1.0  0.33744  0.46512  0.12327  1.0000
  H   H203      1.0  0.35414  0.45441  0.10570  1.0000
  C   C132      1.0  0.47577  0.10757  0.01471  1.0000
  H   H204      1.0  0.22429  0.43078  0.12641  1.0000
  H   H205      1.0  0.27015  0.45649  0.06286  1.0000
  C   C133      1.0  0.21520  0.42134  0.13051  1.0000
  C   C134      1.0  0.41187  0.26708  0.15243  1.0000
  S   S49       1.0  0.28715  0.45449  0.13739  1.0000
  H   H206      1.0  0.24976  0.41607  0.08891  1.0000
  H   H207      1.0  0.21499  0.38441  0.10127  1.0000
  H   H208      1.0  0.37522  0.44133  0.09961  1.0000
  H   H209      1.0  0.49649  0.25569  0.15616  1.0000
  C   C135      1.0  0.46613  0.12508  0.01420  1.0000
  H   H210      1.0  0.25693  0.40603  0.11556  1.0000
  S   S50       1.0  0.27782  0.46458  0.08375  1.0000
  H   H211      1.0  0.20606  0.40600  0.09313  1.0000
  H   H212      1.0  0.46582  0.21615  0.02657  1.0000
  H   H213      1.0  0.36085  0.44504  0.15045  1.0000
  C   C136      1.0  0.23975  0.42255  0.15235  1.0000
  C   C137      1.0  0.37371  0.26020  0.12829  1.0000
  H   H214      1.0  0.45306  0.12904  0.01184  1.0000
  C   C138      1.0  0.23845  0.37939  0.11694  1.0000
  C   C139      1.0  0.25689  0.40666  0.09613  1.0000
  C   C140      1.0  0.18501  0.47803  0.16137  1.0000
  C   C141      1.0  0.45931  0.01429  0.03064  1.0000
  H   H215      1.0  0.38164  0.43689  0.14123  1.0000
  C   C142      1.0  0.26652  0.26544  0.17704  1.0000
  H   H216      1.0  0.46161  0.17694  0.14030  1.0000
  H   H217      1.0  0.35892  0.33980  0.14024  1.0000
  S   S51       1.0  0.21723  0.38979  0.18369  1.0000
  H   H218      1.0  0.48756  0.16487  0.07411  1.0000
  H   H219      1.0  0.41402  0.18156  0.14280  1.0000
  H   H220      1.0  0.43396  0.01658  0.99441  1.0000
  H   H221      1.0  0.33387  0.29015  0.10808  1.0000
  C   C143      1.0  0.47088  0.01700  0.01703  1.0000
  H   H222      1.0  0.45293  0.00273  0.03304  1.0000
  H   H223      1.0  0.42535  0.17808  0.17462  1.0000
  H   H224      1.0  0.33572  0.34660  0.12075  1.0000
  H   H225      1.0  0.48327  0.00677  0.99470  1.0000
  H   H226      1.0  0.43831  0.00933  0.01674  1.0000
  H   H227      1.0  0.37126  0.29535  0.13730  1.0000
  S   S52       1.0  0.13553  0.47412  0.10345  1.0000
  C   C144      1.0  0.36852  0.45047  0.10619  1.0000
  H   H228      1.0  0.38256  0.46485  0.12544  1.0000
  C   C145      1.0  0.38559  0.27073  0.16936  1.0000
  H   H229      1.0  0.32055  0.32649  0.14770  1.0000
  S   S53       1.0  0.35328  0.25204  0.16474  1.0000
  H   H230      1.0  0.35176  0.36184  0.16640  1.0000
  H   H231      1.0  0.25906  0.39302  0.09480  1.0000
  H   H232      1.0  0.36517  0.30484  0.11454  1.0000
  H   H233      1.0  0.39987  0.24207  0.12705  1.0000
  C   C146      1.0  0.22489  0.40220  0.12924  1.0000
  C   C147      1.0  0.43399  0.19295  0.15559  1.0000
  C   C148      1.0  0.34578  0.33846  0.12638  1.0000
  C   C149      1.0  0.38144  0.29410  0.12844  1.0000
  C   C150      1.0  0.13583  0.47261  0.14910  1.0000
  S   S54       1.0  0.48040  0.19183  0.09133  1.0000
  H   H234      1.0  0.01707  0.39092  0.04047  1.0000
  S   S55       1.0  0.46920  0.33888  0.13159  1.0000
  C   C151      1.0  0.43934  0.04755  0.99501  1.0000
  S   S56       1.0  0.17845  0.46474  0.10318  1.0000
  H   H235      1.0  0.32378  0.35600  0.16574  1.0000
  H   H236      1.0  0.31617  0.27420  0.16616  1.0000
  C   C152      1.0  0.46041  0.21238  0.13405  1.0000
  H   H237      1.0  0.43841  0.03916  0.01496  1.0000
  H   H238      1.0  0.34984  0.36066  0.13168  1.0000
  C   C153      1.0  0.48156  0.21290  0.04073  1.0000
  H   H239      1.0  0.49754  0.16524  0.98977  1.0000
  H   H240      1.0  0.37402  0.27227  0.10246  1.0000
  C   C154      1.0  0.16744  0.47660  0.15854  1.0000
  H   H241      1.0  0.39281  0.20145  0.15322  1.0000
  H   H242      1.0  0.49009  0.29854  0.10220  1.0000
  Fe  Fe27      1.0  0.24624  0.33793  0.16262  1.0000
  C   C155      1.0  0.28684  0.31408  0.16267  1.0000
  H   H243      1.0  0.32968  0.37344  0.15296  1.0000
  H   H244      1.0  0.47370  0.18266  0.05660  1.0000
  H   H245      1.0  0.37198  0.29759  0.17030  1.0000
  C   C156      1.0  0.29818  0.29843  0.15962  1.0000
  C   C157      1.0  0.36688  0.43879  0.14219  1.0000
  C   C158      1.0  0.45267  0.17874  0.12332  1.0000
  H   H246      1.0  0.43214  0.22306  0.13832  1.0000
  H   H247      1.0  0.41799  0.19788  0.12884  1.0000
  H   H248      1.0  0.35901  0.33704  0.11962  1.0000
  H   H249      1.0  0.46345  0.16707  0.12132  1.0000
  C   C159      1.0  0.46380  0.26271  0.15275  1.0000
  H   H250      1.0  0.45651  0.04900  0.00660  1.0000
  Fe  Fe28      1.0  0.15888  0.48698  0.09417  1.0000
  C   C160      1.0  0.39991  0.25966  0.16292  1.0000
  C   C161      1.0  0.47907  0.28688  0.14066  1.0000
  N   N11       1.0  0.46106  0.02114  0.00639  1.0000
  H   H251      1.0  0.21017  0.48700  0.09695  1.0000
  C   C162      1.0  0.44862  0.17869  0.13757  1.0000
  H   H252      1.0  0.44859  0.24212  0.16215  1.0000
  C   C163      1.0  0.30784  0.28655  0.16836  1.0000
  H   H253      1.0  0.18050  0.43315  0.15438  1.0000
  C   C164      1.0  0.24685  0.40902  0.10959  1.0000
  C   C165      1.0  0.48917  0.20594  0.09645  1.0000
  H   H254      1.0  0.46628  0.29508  0.13814  1.0000
  C   C166      1.0  0.48662  0.34986  0.12303  1.0000
  H   H255      1.0  0.46697  0.19489  0.03706  1.0000
  H   H256      1.0  0.24159  0.37562  0.10766  1.0000
  H   H257      1.0  0.47456  0.36274  0.10694  1.0000
  H   H258      1.0  0.23588  0.39855  0.13448  1.0000
  H   H259      1.0  0.48297  0.15052  0.04728  1.0000
  H   H260      1.0  0.47778  0.02776  0.01624  1.0000
  H   H261      1.0  0.29161  0.35509  0.15679  1.0000
  H   H262      1.0  0.28092  0.26640  0.17401  1.0000
  H   H263      1.0  0.36328  0.47256  0.14638  1.0000
  N   N12       1.0  0.36136  0.45032  0.13022  1.0000
  C   C167      1.0  0.45963  0.24462  0.15376  1.0000
  C   C168      1.0  0.40128  0.16314  0.98685  1.0000
  H   H264      1.0  0.35771  0.34081  0.16226  1.0000
  H   H265      1.0  0.45302  0.21403  0.04247  1.0000
  H   H266      1.0  0.35670  0.11519  0.98901  1.0000
  H   H267      1.0  0.44021  0.06171  0.99150  1.0000
  C   C169      1.0  0.29720  0.36659  0.15071  1.0000
  C   C170      1.0  0.32863  0.45717  0.14354  1.0000
  H   H268      1.0  0.45837  0.99378  0.01268  1.0000
  H   H269      1.0  0.46319  0.09073  0.05135  1.0000
  H   H270      1.0  0.47724  0.09823  0.08336  1.0000
  C   C171      1.0  0.01712  0.42454  0.99700  1.0000
  H   H271      1.0  0.42492  0.04696  0.99816  1.0000
  H   H272      1.0  0.31729  0.46839  0.14145  1.0000
  H   H273      1.0  0.01968  0.39403  0.98877  1.0000
  H   H274      1.0  0.13850  0.47227  0.13892  1.0000
  H   H275      1.0  0.18323  0.42569  0.17695  1.0000
  C   C172      1.0  0.45260  0.11363  0.06043  1.0000
  H   H276      1.0  0.43217  0.12450  0.09524  1.0000
  C   C173      1.0  0.46143  0.10538  0.04875  1.0000
  H   H277      1.0  0.26661  0.48858  0.15585  1.0000
  H   H278      1.0  0.42459  0.14464  0.99231  1.0000
  H   H279      1.0  0.26598  0.25280  0.17499  1.0000
  C   C174      1.0  0.39673  0.08614  0.99012  1.0000
  C   C175      1.0  0.17298  0.43718  0.17346  1.0000
  C   C176      1.0  0.49258  0.10250  0.01787  1.0000
  H   H280      1.0  0.49304  0.28512  0.15580  1.0000
  H   H281      1.0  0.49381  0.22563  0.05726  1.0000
  H   H282      1.0  0.46186  0.12841  0.08337  1.0000
  H   H283      1.0  0.18494  0.47324  0.17164  1.0000
  Fe  Fe29      1.0  0.22018  0.36556  0.17616  1.0000
  H   H284      1.0  0.45263  0.11068  0.04177  1.0000
  H   H285      1.0  0.01918  0.43603  0.99976  1.0000
  H   H286      1.0  0.43411  0.16442  0.16323  1.0000
  H   H287      1.0  0.15744  0.47640  0.16772  1.0000
  H   H288      1.0  0.48107  0.24976  0.13023  1.0000
  C   C177      1.0  0.29565  0.30654  0.18285  1.0000
  H   H289      1.0  0.37165  0.05944  0.05881  1.0000
  C   C178      1.0  0.48898  0.31282  0.10152  1.0000
  H   H290      1.0  0.46812  0.01155  0.03746  1.0000
  H   H291      1.0  0.40068  0.16908  0.99488  1.0000
  H   H292      1.0  0.47812  0.19619  0.06490  1.0000
  C   C179      1.0  0.47141  0.14455  0.05291  1.0000
  C   C180      1.0  0.48793  0.03303  0.99088  1.0000
  H   H293      1.0  0.37006  0.03795  0.05841  1.0000
  S   S57       1.0  0.16431  0.47758  0.07618  1.0000
  C   C181      1.0  0.44452  0.11238  0.98632  1.0000
  H   H294      1.0  0.46290  0.21020  0.14366  1.0000
  H   H295      1.0  0.48062  0.04704  0.99005  1.0000
  H   H296      1.0  0.06080  0.44207  0.98710  1.0000
  H   H297      1.0  0.48864  0.22179  0.03261  1.0000
  H   H298      1.0  0.47139  0.23360  0.15502  1.0000
  H   H299      1.0  0.49890  0.20229  0.01859  1.0000
  H   H300      1.0  0.13569  0.48601  0.15011  1.0000
  Fe  Fe30      1.0  0.33538  0.25193  0.18397  1.0000
  H   H301      1.0  0.50040  0.41137  0.11633  1.0000
  H   H302      1.0  0.12208  0.47008  0.15327  1.0000
  H   H303      1.0  0.49786  0.24205  0.14578  1.0000
  H   H304      1.0  0.45493  0.00091  0.99016  1.0000
  H   H305      1.0  0.50145  0.20543  0.06809  1.0000
  H   H306      1.0  0.25940  0.48661  0.14274  1.0000
  C   C182      1.0  0.49633  0.17080  0.06532  1.0000
  H   H307      1.0  0.20920  0.48227  0.06941  1.0000
  H   H308      1.0  0.43650  0.99376  0.00150  1.0000
  H   H309      1.0  0.37634  0.26509  0.17752  1.0000
  Fe  Fe31      1.0  0.21447  0.32792  0.18333  1.0000
  H   H310      1.0  0.34548  0.48463  0.13786  1.0000
  H   H311      1.0  0.49684  0.02948  0.99768  1.0000
  S   S58       1.0  0.50093  0.14844  0.02108  1.0000
  C   C183      1.0  0.50154  0.34734  0.12829  1.0000
  H   H312      1.0  0.46904  0.02292  0.98598  1.0000
  H   H313      1.0  0.50201  0.33894  0.13758  1.0000
  H   H314      1.0  0.26903  0.29009  0.18541  1.0000
  Fe  Fe32      1.0  0.31728  0.08166  0.36978  1.0000
  S   S59       1.0  0.32049  0.06486  0.35579  1.0000
  H   H315      1.0  0.01597  0.43695  0.34616  1.0000
  H   H316      1.0  0.14308  0.00143  0.37635  1.0000
  S   S60       1.0  0.27666  0.07402  0.36014  1.0000
  H   H317      1.0  0.28113  0.02671  0.33574  1.0000
  Fe  Fe33      1.0  0.29755  0.05413  0.36938  1.0000
  H   H318      1.0  0.19404  0.99519  0.36612  1.0000
  Fe  Fe34      1.0  0.29937  0.08647  0.34781  1.0000
  S   S61       1.0  0.29839  0.09418  0.32720  1.0000
  C   C184      1.0  0.13813  0.32749  0.27955  1.0000
  S   S62       1.0  0.29777  0.10437  0.36053  1.0000
  Fe  Fe35      1.0  0.04041  0.35861  0.33856  1.0000
  S   S63       1.0  0.05751  0.35080  0.35301  1.0000
  S   S64       1.0  0.05014  0.35690  0.31799  1.0000
  Fe  Fe36      1.0  0.03970  0.37445  0.36069  1.0000
  H   H319      1.0  0.09794  0.33723  0.27834  1.0000
  S   S65       1.0  0.27436  0.99210  0.33865  1.0000
  H   H320      1.0  0.28233  0.13806  0.23669  1.0000
  C   C185      1.0  0.12225  0.13906  0.37783  1.0000
  H   H321      1.0  0.09058  0.17570  0.31163  1.0000
  H   H322      1.0  0.08271  0.18341  0.32594  1.0000
  C   C186      1.0  0.15227  0.03660  0.33749  1.0000
  H   H323      1.0  0.38284  0.00211  0.36375  1.0000
  N   N13       1.0  0.25975  0.26549  0.19099  1.0000
  C   C187      1.0  0.24221  0.04683  0.37134  1.0000
  H   H324      1.0  0.08067  0.36060  0.28934  1.0000
  H   H325      1.0  0.11631  0.36780  0.24556  1.0000
  H   H326      1.0  0.28518  0.22376  0.20256  1.0000
  S   S66       1.0  0.33905  0.19082  0.20937  1.0000
  H   H327      1.0  0.11692  0.15431  0.30194  1.0000
  C   C188      1.0  0.23557  0.03038  0.35833  1.0000
  H   H328      1.0  0.28994  0.04001  0.35014  1.0000
  H   H329      1.0  0.17392  0.99086  0.32858  1.0000
  H   H330      1.0  0.23169  0.27180  0.19002  1.0000
  H   H331      1.0  0.36319  0.16444  0.36977  1.0000
  H   H332      1.0  0.08850  0.37117  0.25891  1.0000
  S   S67       1.0  0.29688  0.02520  0.37553  1.0000
  S   S68       1.0  0.20722  0.30401  0.19819  1.0000
  C   C189      1.0  0.29255  0.01593  0.36447  1.0000
  C   C190      1.0  0.16141  0.01897  0.37013  1.0000
  N   N14       1.0  0.11498  0.35619  0.27299  1.0000
  H   H333      1.0  0.04427  0.29885  0.33322  1.0000
  Fe  Fe37      1.0  0.25419  0.16657  0.28045  1.0000
  S   S69       1.0  0.25501  0.17236  0.29866  1.0000
  S   S70       1.0  0.24818  0.14073  0.28053  1.0000
  Fe  Fe38      1.0  0.26456  0.20099  0.26485  1.0000
  S   S71       1.0  0.26657  0.20956  0.28175  1.0000
  S   S72       1.0  0.26749  0.21972  0.24585  1.0000
  Fe  Fe39      1.0  0.28029  0.18127  0.28774  1.0000
  S   S73       1.0  0.30366  0.17226  0.29722  1.0000
  Fe  Fe40      1.0  0.24114  0.19987  0.29110  1.0000
  S   S74       1.0  0.21831  0.21584  0.30295  1.0000
  S   S75       1.0  0.28066  0.17338  0.26998  1.0000
  S   S76       1.0  0.23807  0.19346  0.27363  1.0000
  H   H334      1.0  0.24999  0.04889  0.34342  1.0000
  Fe  Fe41      1.0  0.03796  0.21223  0.32282  1.0000
  S   S77       1.0  0.05670  0.21884  0.33163  1.0000
  S   S78       1.0  0.04430  0.21027  0.30247  1.0000
  Fe  Fe42      1.0  0.04774  0.19838  0.34847  1.0000
  S   S79       1.0  0.07132  0.18230  0.35701  1.0000
  Fe  Fe43      1.0  0.03289  0.23763  0.34000  1.0000
  H   H335      1.0  0.13219  0.14078  0.31153  1.0000
  S   S80       1.0  0.03076  0.18992  0.33894  1.0000
  Fe  Fe44      1.0  0.17078  0.11137  0.33107  1.0000
  S   S81       1.0  0.15377  0.11585  0.34984  1.0000
  S   S82       1.0  0.17334  0.13748  0.31774  1.0000
  Fe  Fe45      1.0  0.17242  0.07179  0.33876  1.0000
  S   S83       1.0  0.15465  0.07354  0.35786  1.0000
  S   S84       1.0  0.18525  0.04488  0.33414  1.0000
  Fe  Fe46      1.0  0.13834  0.09781  0.34751  1.0000
  S   S85       1.0  0.10808  0.10414  0.35163  1.0000
  Fe  Fe47      1.0  0.17176  0.09149  0.35830  1.0000
  H   H336      1.0  0.19526  0.00097  0.29858  1.0000
  S   S86       1.0  0.15446  0.09439  0.32825  1.0000
  S   S87       1.0  0.19063  0.08855  0.33975  1.0000
  Fe  Fe48      1.0  0.11845  0.28611  0.28691  1.0000
  S   S88       1.0  0.10594  0.30217  0.27061  1.0000
  S   S89       1.0  0.11636  0.29515  0.30467  1.0000
  Fe  Fe49      1.0  0.13969  0.25718  0.27272  1.0000
  S   S90       1.0  0.12972  0.27122  0.25497  1.0000
  S   S91       1.0  0.15678  0.22978  0.27414  1.0000
  Fe  Fe50      1.0  0.13370  0.29584  0.25875  1.0000
  S   S92       1.0  0.14534  0.31881  0.24586  1.0000
  Fe  Fe51      1.0  0.10306  0.27615  0.26845  1.0000
  S   S93       1.0  0.07929  0.27150  0.26357  1.0000
  S   S94       1.0  0.14639  0.28124  0.27522  1.0000
  S   S95       1.0  0.11291  0.26053  0.28597  1.0000
  C   C191      1.0  0.05418  0.22733  0.29187  1.0000
  C   C192      1.0  0.06023  0.23902  0.29622  1.0000
  C   C193      1.0  0.06833  0.25238  0.28754  1.0000
  C   C194      1.0  0.06995  0.25438  0.27453  1.0000
  C   C195      1.0  0.06364  0.24287  0.27021  1.0000
  C   C196      1.0  0.05602  0.22923  0.27885  1.0000
  H   H337      1.0  0.05855  0.23791  0.30624  1.0000
  H   H338      1.0  0.07277  0.26154  0.29087  1.0000
  H   H339      1.0  0.06480  0.24443  0.26016  1.0000
  H   H340      1.0  0.05133  0.22027  0.27543  1.0000
  C   C197      1.0  0.08089  0.16169  0.35283  1.0000
  C   C198      1.0  0.07048  0.14916  0.35499  1.0000
  C   C199      1.0  0.07887  0.13163  0.35390  1.0000
  C   C200      1.0  0.09763  0.12671  0.35041  1.0000
  C   C201      1.0  0.10784  0.13966  0.34724  1.0000
  C   C202      1.0  0.09955  0.15700  0.34874  1.0000
  H   H341      1.0  0.05605  0.15270  0.35819  1.0000
  H   H342      1.0  0.07085  0.12172  0.35625  1.0000
  H   H343      1.0  0.12218  0.13624  0.34403  1.0000
  H   H344      1.0  0.10765  0.16666  0.34703  1.0000
  C   C203      1.0  0.19901  0.21859  0.29730  1.0000
  C   C204      1.0  0.19736  0.20549  0.29193  1.0000
  C   C205      1.0  0.18391  0.20875  0.28519  1.0000
  C   C206      1.0  0.17182  0.22509  0.28407  1.0000
  C   C207      1.0  0.17245  0.23768  0.29039  1.0000
  C   C208      1.0  0.18616  0.23448  0.29696  1.0000
  H   H345      1.0  0.20674  0.19294  0.29281  1.0000
  H   H346      1.0  0.18320  0.19879  0.28059  1.0000
  H   H347      1.0  0.16274  0.25005  0.28995  1.0000
  H   H348      1.0  0.18726  0.24455  0.30130  1.0000
  C   C209      1.0  0.22674  0.13928  0.28983  1.0000
  C   C210      1.0  0.22269  0.12282  0.29638  1.0000
  C   C211      1.0  0.20602  0.12200  0.30478  1.0000
  C   C212      1.0  0.19328  0.13765  0.30628  1.0000
  C   C213      1.0  0.19702  0.15399  0.29919  1.0000
  C   C214      1.0  0.21380  0.15478  0.29109  1.0000
  H   H349      1.0  0.23269  0.11078  0.29535  1.0000
  H   H350      1.0  0.20313  0.10934  0.31023  1.0000
  H   H351      1.0  0.18720  0.16611  0.30034  1.0000
  H   H352      1.0  0.21677  0.16737  0.28583  1.0000
  C   C215      1.0  0.18939  0.30848  0.21101  1.0000
  C   C216      1.0  0.18074  0.29488  0.21862  1.0000
  C   C217      1.0  0.16690  0.29800  0.22919  1.0000
  C   C218      1.0  0.16186  0.31468  0.23228  1.0000
  C   C219      1.0  0.17049  0.32826  0.22465  1.0000
  C   C220      1.0  0.18418  0.32520  0.21401  1.0000
  H   H353      1.0  0.18461  0.28198  0.21624  1.0000
  H   H354      1.0  0.16014  0.28753  0.23492  1.0000
  H   H355      1.0  0.16661  0.34120  0.22697  1.0000
  H   H356      1.0  0.19081  0.33574  0.20820  1.0000
  C   C221      1.0  0.12435  0.34399  0.28322  1.0000
  H   H357      1.0  0.24930  0.02198  0.35763  1.0000
  C   C222      1.0  0.25884  0.28378  0.19280  1.0000
  H   H358      1.0  0.25261  0.18260  0.24879  1.0000
  H   H359      1.0  0.26307  0.22763  0.20004  1.0000
  H   H360      1.0  0.25250  0.00061  0.37461  1.0000
  H   H361      1.0  0.33395  0.99405  0.34520  1.0000
  C   C223      1.0  0.34858  0.02229  0.36416  1.0000
  H   H362      1.0  0.12695  0.02889  0.34091  1.0000
  H   H363      1.0  0.09745  0.21584  0.29414  1.0000
  H   H364      1.0  0.22851  0.13695  0.26131  1.0000
  H   H365      1.0  0.24019  0.21229  0.23629  1.0000
  C   C224      1.0  0.14914  0.00824  0.33509  1.0000
  H   H366      1.0  0.20517  0.05008  0.38171  1.0000
  H   H367      1.0  0.21847  0.17710  0.23177  1.0000
  C   C225      1.0  0.31859  0.19888  0.21896  1.0000
  C   C226      1.0  0.30924  0.18701  0.22819  1.0000
  C   C227      1.0  0.29328  0.19341  0.23627  1.0000
  C   C228      1.0  0.28668  0.21165  0.23518  1.0000
  C   C229      1.0  0.29580  0.22352  0.22579  1.0000
  C   C230      1.0  0.31180  0.21714  0.21773  1.0000
  H   H368      1.0  0.31446  0.17289  0.22915  1.0000
  H   H369      1.0  0.28619  0.18425  0.24342  1.0000
  H   H370      1.0  0.29084  0.23765  0.22499  1.0000
  H   H371      1.0  0.31914  0.22640  0.21080  1.0000
  C   C231      1.0  0.12931  0.36168  0.26168  1.0000
  S   S96       1.0  0.01477  0.23271  0.32975  1.0000
  S   S97       1.0  0.35651  0.23475  0.19441  1.0000
  H   H372      1.0  0.22613  0.05737  0.34718  1.0000
  C   C232      1.0  0.28418  0.01866  0.34464  1.0000
  C   C233      1.0  0.06774  0.33870  0.31509  1.0000
  C   C234      1.0  0.06885  0.33065  0.30518  1.0000
  C   C235      1.0  0.08352  0.31697  0.30211  1.0000
  C   C236      1.0  0.09736  0.31159  0.30874  1.0000
  C   C237      1.0  0.09620  0.31952  0.31871  1.0000
  C   C238      1.0  0.08134  0.33293  0.32197  1.0000
  H   H373      1.0  0.05831  0.33502  0.29988  1.0000
  H   H374      1.0  0.08408  0.31066  0.29461  1.0000
  H   H375      1.0  0.10686  0.31540  0.32388  1.0000
  H   H376      1.0  0.08068  0.33920  0.32953  1.0000
  C   C239      1.0  0.04073  0.29466  0.36467  1.0000
  S   S98       1.0  0.01982  0.34288  0.35011  1.0000
  C   C240      1.0  0.03542  0.26834  0.36056  1.0000
  C   C241      1.0  0.03784  0.27610  0.34760  1.0000
  C   C242      1.0  0.04217  0.29281  0.34324  1.0000
  C   C243      1.0  0.04411  0.30179  0.35168  1.0000
  H   H377      1.0  0.11694  0.15220  0.38044  1.0000
  H   H378      1.0  0.28647  0.25537  0.19475  1.0000
  C   C244      1.0  0.30042  0.11580  0.31907  1.0000
  C   C245      1.0  0.30775  0.12624  0.32367  1.0000
  C   C246      1.0  0.30921  0.14349  0.31682  1.0000
  C   C247      1.0  0.30296  0.15040  0.30555  1.0000
  C   C248      1.0  0.29556  0.13995  0.30104  1.0000
  C   C249      1.0  0.29449  0.12266  0.30770  1.0000
  H   H379      1.0  0.31247  0.12095  0.33241  1.0000
  H   H380      1.0  0.31487  0.15155  0.32037  1.0000
  H   H381      1.0  0.29081  0.14509  0.29232  1.0000
  H   H382      1.0  0.28891  0.11461  0.30406  1.0000
  C   C250      1.0  0.35891  0.03204  0.36899  1.0000
  C   C251      1.0  0.22958  0.09639  0.36982  1.0000
  C   C252      1.0  0.21350  0.09381  0.36815  1.0000
  C   C253      1.0  0.28281  0.00083  0.34810  1.0000
  H   H383      1.0  0.22995  0.27179  0.21222  1.0000
  H   H384      1.0  0.21070  0.42555  0.18593  1.0000
  H   H385      1.0  0.24135  0.09593  0.36225  1.0000
  H   H386      1.0  0.21301  0.09126  0.35929  1.0000
  H   H387      1.0  0.36474  0.11391  0.37233  1.0000
  H   H388      1.0  0.03203  0.25542  0.36399  1.0000
  H   H389      1.0  0.14619  0.04935  0.33997  1.0000
  C   C254      1.0  0.14140  0.02501  0.33800  1.0000
  H   H390      1.0  0.14646  0.19745  0.29312  1.0000
  H   H391      1.0  0.07108  0.45776  0.38545  1.0000
  H   H392      1.0  0.11217  0.15375  0.31889  1.0000
  H   H393      1.0  0.25208  0.18056  0.21635  1.0000
  H   H394      1.0  0.09707  0.38233  0.27112  1.0000
  H   H395      1.0  0.15252  0.20821  0.31034  1.0000
  H   H396      1.0  0.38416  0.17019  0.36869  1.0000
  H   H397      1.0  0.00299  0.40899  0.36025  1.0000
  H   H398      1.0  0.23455  0.04058  0.33838  1.0000
  C   C255      1.0  0.13298  0.16855  0.30757  1.0000
  H   H399      1.0  0.08008  0.19866  0.31155  1.0000
  C   C256      1.0  0.28911  0.02621  0.35280  1.0000
  H   H400      1.0  0.22013  0.01213  0.38049  1.0000
  N   N15       1.0  0.22938  0.03635  0.37073  1.0000
  H   H401      1.0  0.24156  0.24893  0.19211  1.0000
  H   H402      1.0  0.15615  0.18476  0.31313  1.0000
  H   H403      1.0  0.37577  0.00579  0.34945  1.0000
  H   H404      1.0  0.12427  0.11050  0.37163  1.0000
  H   H405      1.0  0.14994  0.03048  0.36912  1.0000
  C   C257      1.0  0.04747  0.40009  0.37959  1.0000
  H   H406      1.0  0.11606  0.08210  0.38274  1.0000
  H   H407      1.0  0.00223  0.45466  0.36802  1.0000
  H   H408      1.0  0.35003  0.02820  0.35386  1.0000
  C   C258      1.0  0.19825  0.09424  0.37806  1.0000
  H   H409      1.0  0.14199  0.31838  0.28824  1.0000
  H   H410      1.0  0.19309  0.01116  0.32792  1.0000
  S   S99       1.0  0.04718  0.39776  0.36442  1.0000
  C   C259      1.0  0.17096  0.03153  0.33393  1.0000
  H   H411      1.0  0.09702  0.09913  0.37996  1.0000
  H   H412      1.0  0.16469  0.01760  0.37938  1.0000
  C   C260      1.0  0.16782  0.00345  0.33120  1.0000
  S   S100      1.0  0.34386  0.08339  0.37305  1.0000
  H   H413      1.0  0.26919  0.99325  0.30607  1.0000
  H   H414      1.0  0.08684  0.35093  0.25622  1.0000
  C   C261      1.0  0.07804  0.44820  0.37928  1.0000
  H   H415      1.0  0.13613  0.19729  0.32183  1.0000
  H   H416      1.0  0.24936  0.99653  0.29151  1.0000
  H   H417      1.0  0.24133  0.05942  0.36406  1.0000
  H   H418      1.0  0.28197  0.23087  0.18678  1.0000
  N   N16       1.0  0.35465  0.00244  0.36637  1.0000
  H   H419      1.0  0.27670  0.28012  0.20571  1.0000
  H   H420      1.0  0.22749  0.02137  0.35768  1.0000
  H   H421      1.0  0.12838  0.18623  0.28450  1.0000
  C   C262      1.0  0.23665  0.04525  0.34623  1.0000
  N   N17       1.0  0.09300  0.25527  0.33648  1.0000
  C   C263      1.0  0.08764  0.26421  0.34761  1.0000
  C   C264      1.0  0.08632  0.23824  0.34093  1.0000
  C   C265      1.0  0.08394  0.26740  0.32612  1.0000
  C   C266      1.0  0.11315  0.25235  0.33214  1.0000
  C   C267      1.0  0.09028  0.28342  0.34469  1.0000
  C   C268      1.0  0.09434  0.22454  0.35163  1.0000
  C   C269      1.0  0.08108  0.25908  0.31615  1.0000
  C   C270      1.0  0.12204  0.24180  0.32161  1.0000
  H   H422      1.0  0.07323  0.26457  0.35222  1.0000
  H   H423      1.0  0.09526  0.25663  0.35508  1.0000
  H   H424      1.0  0.08877  0.23129  0.33314  1.0000
  H   H425      1.0  0.07141  0.24114  0.34428  1.0000
  H   H426      1.0  0.07036  0.27433  0.33017  1.0000
  H   H427      1.0  0.09120  0.27811  0.32097  1.0000
  H   H428      1.0  0.11733  0.26529  0.32835  1.0000
  H   H429      1.0  0.12002  0.24620  0.34021  1.0000
  H   H430      1.0  0.08189  0.29257  0.33815  1.0000
  H   H431      1.0  0.08585  0.28835  0.35364  1.0000
  H   H432      1.0  0.10452  0.28435  0.34085  1.0000
  H   H433      1.0  0.08916  0.21229  0.35351  1.0000
  H   H434      1.0  0.10918  0.22075  0.34896  1.0000
  H   H435      1.0  0.09008  0.22922  0.36064  1.0000
  H   H436      1.0  0.07687  0.26994  0.30830  1.0000
  H   H437      1.0  0.07000  0.25185  0.32016  1.0000
  H   H438      1.0  0.09321  0.25017  0.31205  1.0000
  H   H439      1.0  0.12236  0.25077  0.31212  1.0000
  H   H440      1.0  0.11568  0.23082  0.32228  1.0000
  H   H441      1.0  0.13609  0.23537  0.32246  1.0000
  H   H442      1.0  0.33397  0.02641  0.36800  1.0000
  C   C271      1.0  0.10380  0.34625  0.26967  1.0000
  H   H443      1.0  0.04830  0.31429  0.34807  1.0000
  H   H444      1.0  0.13807  0.34996  0.25801  1.0000
  H   H445      1.0  0.11779  0.21801  0.28220  1.0000
  H   H446      1.0  0.25097  0.13894  0.24286  1.0000
  S   S101      1.0  0.03509  0.26598  0.33639  1.0000
  H   H447      1.0  0.13796  0.16618  0.31638  1.0000
  H   H448      1.0  0.25405  0.27823  0.21387  1.0000
  C   C272      1.0  0.20851  0.99804  0.30118  1.0000
  H   H449      1.0  0.32847  0.99855  0.36686  1.0000
  Fe  Fe52      1.0  0.03591  0.33626  0.36502  1.0000
  H   H450      1.0  0.25902  0.29941  0.20585  1.0000
  C   C273      1.0  0.23170  0.16761  0.23142  1.0000
  C   C274      1.0  0.24700  0.18348  0.24049  1.0000
  S   S102      1.0  0.02502  0.21784  0.35769  1.0000
  C   C275      1.0  0.12287  0.37437  0.25003  1.0000
  C   C276      1.0  0.29178  0.99801  0.36772  1.0000
  H   H451      1.0  0.08068  0.38136  0.29227  1.0000
  N   N18       1.0  0.24004  0.16704  0.24216  1.0000
  H   H452      1.0  0.22650  0.20288  0.23083  1.0000
  N   N19       1.0  0.20511  0.27085  0.25362  1.0000
  C   C277      1.0  0.22149  0.25618  0.25494  1.0000
  C   C278      1.0  0.20874  0.28284  0.24071  1.0000
  C   C279      1.0  0.18889  0.26352  0.25488  1.0000
  C   C280      1.0  0.20128  0.28085  0.26401  1.0000
  C   C281      1.0  0.21951  0.24157  0.26709  1.0000
  C   C282      1.0  0.22432  0.29237  0.23799  1.0000
  C   C283      1.0  0.19101  0.25096  0.24606  1.0000
  C   C284      1.0  0.18729  0.29859  0.26263  1.0000
  H   H453      1.0  0.22606  0.24970  0.24666  1.0000
  H   H454      1.0  0.23306  0.26155  0.25495  1.0000
  H   H455      1.0  0.19662  0.29320  0.23900  1.0000
  H   H456      1.0  0.21193  0.27531  0.23312  1.0000
  H   H457      1.0  0.18447  0.25634  0.26477  1.0000
  H   H458      1.0  0.17718  0.27438  0.25300  1.0000
  H   H459      1.0  0.19639  0.27253  0.27339  1.0000
  H   H460      1.0  0.21388  0.28383  0.26471  1.0000
  H   H461      1.0  0.21629  0.24684  0.27580  1.0000
  H   H462      1.0  0.20942  0.23399  0.26762  1.0000
  H   H463      1.0  0.23259  0.23203  0.26710  1.0000
  H   H464      1.0  0.23750  0.28294  0.23760  1.0000
  H   H465      1.0  0.22486  0.30144  0.22850  1.0000
  H   H466      1.0  0.22244  0.30065  0.24489  1.0000
  H   H467      1.0  0.19341  0.25773  0.23594  1.0000
  H   H468      1.0  0.17822  0.24643  0.24812  1.0000
  H   H469      1.0  0.20164  0.23889  0.24768  1.0000
  H   H470      1.0  0.17925  0.30033  0.27217  1.0000
  H   H471      1.0  0.17759  0.29954  0.25687  1.0000
  H   H472      1.0  0.19405  0.30997  0.25878  1.0000
  H   H473      1.0  0.42078  0.11289  0.37431  1.0000
  C   C285      1.0  0.08775  0.35733  0.26360  1.0000
  H   H474      1.0  0.09539  0.36199  0.29870  1.0000
  C   C286      1.0  0.35358  0.99416  0.38025  1.0000
  S   S103      1.0  0.29571  0.06921  0.38401  1.0000
  C   C287      1.0  0.13583  0.19936  0.30178  1.0000
  H   H475      1.0  0.10407  0.20651  0.31456  1.0000
  H   H476      1.0  0.22817  0.15468  0.23249  1.0000
  H   H477      1.0  0.23779  0.99698  0.30723  1.0000
  C   C288      1.0  0.12265  0.15380  0.31003  1.0000
  H   H478      1.0  0.10449  0.46045  0.38039  1.0000
  H   H479      1.0  0.26921  0.25137  0.20829  1.0000
  H   H480      1.0  0.17272  0.02244  0.36225  1.0000
  H   H481      1.0  0.00219  0.21401  0.30579  1.0000
  H   H482      1.0  0.14518  0.16586  0.29998  1.0000
  H   H483      1.0  0.39155  0.10504  0.38441  1.0000
  H   H484      1.0  0.00275  0.31267  0.35133  1.0000
  H   H485      1.0  0.18335  0.04977  0.37080  1.0000
  C   C289      1.0  0.37389  0.99804  0.35940  1.0000
  H   H486      1.0  0.25853  0.18479  0.23235  1.0000
  H   H487      1.0  0.01144  0.29991  0.33327  1.0000
  H   H488      1.0  0.12120  0.14127  0.36779  1.0000
  H   H489      1.0  0.12896  0.21359  0.29980  1.0000
  C   C290      1.0  0.37713  0.15904  0.37123  1.0000
  C   C291      1.0  0.03672  0.27773  0.36913  1.0000
  H   H490      1.0  0.21448  0.00987  0.29660  1.0000
  C   C292      1.0  0.14554  0.19709  0.31252  1.0000
  H   H491      1.0  0.24904  0.06031  0.38325  1.0000
  S   S104      1.0  0.02442  0.38349  0.34499  1.0000
  C   C293      1.0  0.10742  0.19194  0.31509  1.0000
  H   H492      1.0  0.37093  0.03524  0.36172  1.0000
  H   H493      1.0  0.33575  0.01568  0.34516  1.0000
  C   C294      1.0  0.34226  0.00145  0.34750  1.0000
  C   C295      1.0  0.14245  0.13449  0.37798  1.0000
  S   S105      1.0  0.31804  0.27578  0.19115  1.0000
  S   S106      1.0  0.04059  0.30752  0.37516  1.0000
  C   C296      1.0  0.19674  0.04108  0.36833  1.0000
  C   C297      1.0  0.08948  0.18700  0.31583  1.0000
  H   H494      1.0  0.11140  0.18568  0.32434  1.0000
  C   C298      1.0  0.11973  0.10821  0.38213  1.0000
  H   H495      1.0  0.07488  0.35703  0.27069  1.0000
  H   H496      1.0  0.11445  0.33878  0.29161  1.0000
  C   C299      1.0  0.27356  0.15152  0.23527  1.0000
  H   H497      1.0  0.23058  0.16732  0.26216  1.0000
  C   C300      1.0  0.17865  0.01506  0.33063  1.0000
  C   C301      1.0  0.21810  0.14886  0.25871  1.0000
  H   H498      1.0  0.22296  0.20267  0.24757  1.0000
  C   C302      1.0  0.22558  0.16597  0.25417  1.0000
  H   H499      1.0  0.13148  0.35128  0.28676  1.0000
  H   H500      1.0  0.25712  0.14742  0.25377  1.0000
  H   H501      1.0  0.10724  0.18199  0.29290  1.0000
  C   C303      1.0  0.23315  0.20118  0.23871  1.0000
  C   C304      1.0  0.10398  0.37227  0.27813  1.0000
  N   N20       1.0  0.33619  0.18989  0.25814  1.0000
  C   C305      1.0  0.33814  0.17021  0.26370  1.0000
  C   C306      1.0  0.34658  0.19677  0.26454  1.0000
  C   C307      1.0  0.34459  0.19214  0.24417  1.0000
  C   C308      1.0  0.31644  0.19846  0.26037  1.0000
  C   C309      1.0  0.33115  0.15966  0.25709  1.0000
  C   C310      1.0  0.34015  0.19445  0.27905  1.0000
  C   C311      1.0  0.34476  0.21118  0.23649  1.0000
  C   C312      1.0  0.31122  0.21868  0.25976  1.0000
  H   H502      1.0  0.35248  0.16369  0.26374  1.0000
  H   H503      1.0  0.33091  0.16772  0.27380  1.0000
  H   H504      1.0  0.34658  0.21100  0.26070  1.0000
  H   H505      1.0  0.36105  0.19010  0.26261  1.0000
  H   H506      1.0  0.35874  0.18447  0.24271  1.0000
  H   H507      1.0  0.33752  0.18668  0.23930  1.0000
  H   H508      1.0  0.31011  0.19586  0.25355  1.0000
  H   H509      1.0  0.30940  0.19226  0.26991  1.0000
  H   H510      1.0  0.33013  0.14644  0.26334  1.0000
  H   H511      1.0  0.31765  0.16624  0.25520  1.0000
  H   H512      1.0  0.34061  0.15730  0.24809  1.0000
  H   H513      1.0  0.34325  0.18035  0.28398  1.0000
  H   H514      1.0  0.34734  0.20166  0.28255  1.0000
  H   H515      1.0  0.32558  0.19991  0.28192  1.0000
  H   H516      1.0  0.33099  0.21889  0.23591  1.0000
  H   H517      1.0  0.35191  0.21057  0.22655  1.0000
  H   H518      1.0  0.35202  0.21825  0.23999  1.0000
  H   H519      1.0  0.30044  0.22473  0.25431  1.0000
  H   H520      1.0  0.32207  0.22600  0.25523  1.0000
  H   H521      1.0  0.30524  0.22136  0.26941  1.0000
  C   C313      1.0  0.35643  0.12637  0.37512  1.0000
  N   N21       1.0  0.23117  0.13502  0.33322  1.0000
  C   C314      1.0  0.24897  0.13861  0.33313  1.0000
  C   C315      1.0  0.22439  0.14727  0.32192  1.0000
  C   C316      1.0  0.23307  0.11618  0.33229  1.0000
  C   C317      1.0  0.21822  0.13810  0.34540  1.0000
  C   C318      1.0  0.25885  0.12626  0.34343  1.0000
  C   C319      1.0  0.21736  0.16695  0.32270  1.0000
  C   C320      1.0  0.24785  0.10984  0.32132  1.0000
  C   C321      1.0  0.19890  0.13582  0.34683  1.0000
  H   H522      1.0  0.25839  0.13803  0.32378  1.0000
  H   H523      1.0  0.24729  0.15232  0.33433  1.0000
  H   H524      1.0  0.21350  0.14282  0.32002  1.0000
  H   H525      1.0  0.23502  0.14677  0.31315  1.0000
  H   H526      1.0  0.23569  0.10676  0.34121  1.0000
  H   H527      1.0  0.22023  0.11419  0.33117  1.0000
  H   H528      1.0  0.22308  0.12868  0.35363  1.0000
  H   H529      1.0  0.21759  0.15124  0.34724  1.0000
  H   H530      1.0  0.27202  0.12980  0.34195  1.0000
  H   H531      1.0  0.25147  0.12787  0.35311  1.0000
  H   H532      1.0  0.26182  0.11214  0.34291  1.0000
  H   H533      1.0  0.20484  0.16896  0.33004  1.0000
  H   H534      1.0  0.22751  0.17272  0.32439  1.0000
  H   H535      1.0  0.21396  0.17467  0.31352  1.0000
  H   H536      1.0  0.26146  0.10853  0.32282  1.0000
  H   H537      1.0  0.24659  0.11866  0.31199  1.0000
  H   H538      1.0  0.24686  0.09649  0.32085  1.0000
  H   H539      1.0  0.19785  0.12177  0.35055  1.0000
  H   H540      1.0  0.19398  0.14058  0.33792  1.0000
  H   H541      1.0  0.18942  0.14392  0.35346  1.0000
  C   C322      1.0  0.10769  0.20964  0.28679  1.0000
  H   H542      1.0  0.10076  0.20978  0.27936  1.0000
  H   H543      1.0  0.11407  0.38699  0.25214  1.0000
  C   C323      1.0  0.11674  0.19036  0.29207  1.0000
  H   H544      1.0  0.25085  0.15909  0.21481  1.0000
  H   H545      1.0  0.41253  0.13533  0.37600  1.0000
  H   H546      1.0  0.27335  0.15576  0.22510  1.0000
  Fe  Fe53      1.0  0.27643  0.09024  0.37351  1.0000
  H   H547      1.0  0.11289  0.37923  0.28027  1.0000
  H   H548      1.0  0.13249  0.32003  0.27515  1.0000
  C   C324      1.0  0.47508  0.09021  0.38520  1.0000
  H   H549      1.0  0.20751  0.14992  0.26747  1.0000
  C   C325      1.0  0.24298  0.17157  0.21781  1.0000
  H   H550      1.0  0.21171  0.14688  0.25171  1.0000
  C   C326      1.0  0.08945  0.36861  0.29027  1.0000
  S   S107      1.0  0.01969  0.35907  0.37411  1.0000
  H   H551      1.0  0.13480  0.37786  0.24278  1.0000
  C   C327      1.0  0.25485  0.15072  0.24394  1.0000
  H   H552      1.0  0.24072  0.24837  0.21516  1.0000
  H   H553      1.0  0.28012  0.16021  0.23789  1.0000
  H   H554      1.0  0.13829  0.36788  0.26446  1.0000
  H   H555      1.0  0.21375  0.17709  0.25317  1.0000
  H   H556      1.0  0.15067  0.33094  0.27318  1.0000
  H   H557      1.0  0.25640  0.03966  0.36888  1.0000
  C   C328      1.0  0.24707  0.00748  0.38262  1.0000
  C   C329      1.0  0.21075  0.04793  0.37187  1.0000
  H   H558      1.0  0.00262  0.24339  0.29195  1.0000
  H   H559      1.0  0.21091  0.06142  0.36596  1.0000
  C   C330      1.0  0.26227  0.28520  0.20537  1.0000
  H   H560      1.0  0.11246  0.33757  0.26312  1.0000
  H   H561      1.0  0.23382  0.17854  0.21121  1.0000
  H   H562      1.0  0.29471  0.30972  0.19182  1.0000
  N   N22       1.0  0.12279  0.18744  0.30427  1.0000
  C   C331      1.0  0.34258  0.99511  0.36170  1.0000
  H   H563      1.0  0.34994  0.04451  0.37135  1.0000
  H   H564      1.0  0.21936  0.25573  0.21083  1.0000
  H   H565      1.0  0.39052  0.12226  0.37094  1.0000
  H   H566      1.0  0.36477  0.99604  0.38363  1.0000
  H   H567      1.0  0.09260  0.13347  0.37403  1.0000
  C   C332      1.0  0.23264  0.25914  0.20918  1.0000
  H   H568      1.0  0.19955  0.04176  0.35799  1.0000
  Fe  Fe54      1.0  0.00863  0.21112  0.34665  1.0000
  H   H569      1.0  0.36324  0.02450  0.37782  1.0000
  H   H570      1.0  0.19574  0.02745  0.37360  1.0000
  H   H571      1.0  0.14909  0.14451  0.37065  1.0000
  H   H572      1.0  0.03422  0.27210  0.37919  1.0000
  H   H573      1.0  0.38462  0.15056  0.36440  1.0000
  S   S108      1.0  0.13527  0.99327  0.33713  1.0000
  C   C333      1.0  0.27572  0.23253  0.19662  1.0000
  H   H574      1.0  0.24576  0.29280  0.19145  1.0000
  H   H575      1.0  0.03792  0.42841  0.37517  1.0000
  H   H576      1.0  0.08802  0.16140  0.38093  1.0000
  C   C334      1.0  0.24134  0.26124  0.19498  1.0000
  H   H577      1.0  0.34227  0.12579  0.37594  1.0000
  H   H578      1.0  0.49822  0.02803  0.38192  1.0000
  H   H579      1.0  0.14937  0.12145  0.37565  1.0000
  H   H580      1.0  0.49044  0.05889  0.37988  1.0000
  C   C335      1.0  0.22887  0.02026  0.38143  1.0000
  C   C336      1.0  0.27302  0.25178  0.19796  1.0000
  H   H581      1.0  0.46779  0.08483  0.38042  1.0000
  S   S109      1.0  0.17819  0.08966  0.37703  1.0000
  H   H582      1.0  0.13527  0.46057  0.38024  1.0000
  Fe  Fe55      1.0  0.34573  0.21257  0.19268  1.0000
  H   H583      1.0  0.35579  0.99886  0.34132  1.0000
  C   C337      1.0  0.39180  0.11939  0.38091  1.0000
  H   H584      1.0  0.35935  0.13784  0.36747  1.0000
  H   H585      1.0  0.15228  0.00538  0.35987  1.0000
  H   H586      1.0  0.20589  0.99623  0.31155  1.0000
  H   H587      1.0  0.09756  0.42370  0.37873  1.0000
  C   C338      1.0  0.23023  0.10000  0.38122  1.0000
  H   H588      1.0  0.01170  0.39533  0.38214  1.0000
  H   H589      1.0  0.37722  0.07601  0.38056  1.0000
  S   S110      1.0  0.24979  0.10396  0.38361  1.0000
  H   H590      1.0  0.01359  0.42077  0.36636  1.0000
  C   C339      1.0  0.15589  0.00236  0.36925  1.0000
  C   C340      1.0  0.04271  0.41715  0.38216  1.0000
  H   H591      1.0  0.18486  0.99691  0.35300  1.0000
  H   H592      1.0  0.08600  0.45486  0.37038  1.0000
  C   C341      1.0  0.41082  0.12156  0.38035  1.0000
  H   H593      1.0  0.48839  0.09156  0.37904  1.0000
  H   H594      1.0  0.25719  0.01408  0.38347  1.0000
  C   C342      1.0  0.23945  0.05193  0.38416  1.0000
  Fe  Fe56      1.0  0.00563  0.36676  0.35798  1.0000
  H   H595      1.0  0.06756  0.44407  0.37653  1.0000
  C   C343      1.0  0.11327  0.44747  0.38361  1.0000
  H   H596      1.0  0.12024  0.44208  0.37495  1.0000
  C   C344      1.0  0.10773  0.09459  0.38550  1.0000
  C   C345      1.0  0.09253  0.13225  0.38412  1.0000
  H   H597      1.0  0.00383  0.31968  0.31280  1.0000
  C   C346      1.0  0.37711  0.14968  0.38518  1.0000
  Fe  Fe57      1.0  0.06610  0.45150  0.54001  1.0000
  N   N23       1.0  0.49076  0.06162  0.39856  1.0000
  S   S111      1.0  0.07861  0.42859  0.55378  1.0000
  Fe  Fe58      1.0  0.06522  0.46416  0.51205  1.0000
  H   H598      1.0  0.47467  0.10500  0.49762  1.0000
  S   S112      1.0  0.07635  0.45913  0.49238  1.0000
  C   C347      1.0  0.44324  0.99966  0.44673  1.0000
  H   H599      1.0  0.08472  0.46279  0.55211  1.0000
  Fe  Fe59      1.0  0.03264  0.47474  0.53182  1.0000
  C   C348      1.0  0.36623  0.03040  0.41374  1.0000
  S   S113      1.0  0.08413  0.46522  0.52336  1.0000
  S   S114      1.0  0.04884  0.44813  0.52836  1.0000
  Fe  Fe60      1.0  0.45505  0.09951  0.52869  1.0000
  S   S115      1.0  0.42966  0.11969  0.52670  1.0000
  Fe  Fe61      1.0  0.01447  0.46624  0.42049  1.0000
  Fe  Fe62      1.0  0.43576  0.06920  0.53713  1.0000
  S   S116      1.0  0.40863  0.08683  0.53591  1.0000
  S   S117      1.0  0.44082  0.03964  0.54250  1.0000
  Fe  Fe63      1.0  0.42338  0.10110  0.51754  1.0000
  S   S118      1.0  0.41330  0.11302  0.49941  1.0000
  Fe  Fe64      1.0  0.41756  0.10360  0.54513  1.0000
  S   S119      1.0  0.39989  0.11741  0.56054  1.0000
  S   S120      1.0  0.44983  0.08206  0.51808  1.0000
  S   S121      1.0  0.44358  0.08477  0.54786  1.0000
  H   H600      1.0  0.45539  0.00261  0.47749  1.0000
  Fe  Fe65      1.0  0.41672  0.07041  0.44423  1.0000
  S   S122      1.0  0.44133  0.07166  0.42872  1.0000
  S   S123      1.0  0.42190  0.06039  0.46394  1.0000
  Fe  Fe66      1.0  0.39171  0.08009  0.42574  1.0000
  S   S124      1.0  0.41434  0.08285  0.40877  1.0000
  S   S125      1.0  0.36275  0.08344  0.42456  1.0000
  Fe  Fe67      1.0  0.42900  0.05793  0.41946  1.0000
  S   S126      1.0  0.44531  0.03523  0.41057  1.0000
  Fe  Fe68      1.0  0.42451  0.09643  0.41957  1.0000
  S   S127      1.0  0.43510  0.12075  0.40875  1.0000
  S   S128      1.0  0.40590  0.05409  0.43581  1.0000
  S   S129      1.0  0.40040  0.09632  0.43571  1.0000
  Fe  Fe69      1.0  0.02861  0.45272  0.44468  1.0000
  C   C349      1.0  0.40671  0.03447  0.39329  1.0000
  C   C350      1.0  0.44804  0.15750  0.48203  1.0000
  Fe  Fe70      1.0  0.04537  0.43502  0.42189  1.0000
  S   S130      1.0  0.04165  0.46092  0.40790  1.0000
  S   S131      1.0  0.05689  0.40874  0.41589  1.0000
  Fe  Fe71      1.0  0.05053  0.47166  0.42122  1.0000
  H   H601      1.0  0.46857  0.02759  0.46398  1.0000
  H   H602      1.0  0.43233  0.12214  0.57291  1.0000
  C   C351      1.0  0.05165  0.40547  0.40242  1.0000
  S   S132      1.0  0.05700  0.44514  0.43414  1.0000
  H   H603      1.0  0.39391  0.99473  0.52471  1.0000
  C   C352      1.0  0.36717  0.99302  0.52469  1.0000
  N   N24       1.0  0.08961  0.46851  0.56856  1.0000
  C   C353      1.0  0.10487  0.40258  0.40562  1.0000
  N   N25       1.0  0.37564  0.01044  0.53770  1.0000
  C   C354      1.0  0.47339  0.12221  0.47922  1.0000
  Fe  Fe72      1.0  0.06501  0.49024  0.52740  1.0000
  H   H604      1.0  0.12864  0.47467  0.48994  1.0000
  C   C355      1.0  0.47556  0.04734  0.49804  1.0000
  H   H605      1.0  0.46298  0.07533  0.40290  1.0000
  H   H606      1.0  0.39924  0.01602  0.42004  1.0000
  H   H607      1.0  0.42139  0.18133  0.57033  1.0000
  H   H608      1.0  0.36533  0.99812  0.42624  1.0000
  S   S133      1.0  0.01938  0.44989  0.46581  1.0000
  H   H609      1.0  0.46207  0.00430  0.49090  1.0000
  H   H610      1.0  0.45030  0.00510  0.53653  1.0000
  C   C356      1.0  0.49529  0.02840  0.47500  1.0000
  H   H611      1.0  0.49744  0.06154  0.51149  1.0000
  C   C357      1.0  0.45213  0.12592  0.41363  1.0000
  C   C358      1.0  0.46210  0.11369  0.42210  1.0000
  C   C359      1.0  0.47589  0.11843  0.42542  1.0000
  C   C360      1.0  0.47936  0.13552  0.42050  1.0000
  C   C361      1.0  0.46925  0.14765  0.41218  1.0000
  C   C362      1.0  0.45587  0.14281  0.40865  1.0000
  H   H612      1.0  0.45924  0.10065  0.42604  1.0000
  H   H613      1.0  0.48362  0.10899  0.43189  1.0000
  H   H614      1.0  0.09550  0.40691  0.41406  1.0000
  H   H615      1.0  0.44826  0.15231  0.40213  1.0000
  C   C363      1.0  0.43272  0.02874  0.40253  1.0000
  C   C364      1.0  0.41724  0.04018  0.39902  1.0000
  C   C365      1.0  0.42605  0.01911  0.51346  1.0000
  H   H616      1.0  0.41330  0.05338  0.40072  1.0000
  H   H617      1.0  0.47876  0.99896  0.47688  1.0000
  C   C366      1.0  0.35759  0.08198  0.41054  1.0000
  C   C367      1.0  0.33955  0.08489  0.40980  1.0000
  S   S134      1.0  0.49578  0.14260  0.42469  1.0000
  H   H618      1.0  0.32898  0.08763  0.41790  1.0000
  H   H619      1.0  0.03399  0.48735  0.47881  1.0000
  H   H620      1.0  0.35373  0.99272  0.53098  1.0000
  H   H621      1.0  0.11504  0.43875  0.41254  1.0000
  H   H622      1.0  0.38504  0.07590  0.40053  1.0000
  H   H623      1.0  0.09191  0.44035  0.57070  1.0000
  S   S135      1.0  0.02270  0.47975  0.43237  1.0000
  H   H624      1.0  0.45507  0.16734  0.47495  1.0000
  C   C368      1.0  0.47608  0.99300  0.44114  1.0000
  H   H625      1.0  0.46715  0.10367  0.38627  1.0000
  H   H626      1.0  0.05757  0.37245  0.38675  1.0000
  H   H627      1.0  0.47850  0.09375  0.54946  1.0000
  C   C369      1.0  0.41528  0.09845  0.48960  1.0000
  C   C370      1.0  0.42153  0.08027  0.49348  1.0000
  C   C371      1.0  0.42295  0.06883  0.48558  1.0000
  C   C372      1.0  0.41881  0.07546  0.47361  1.0000
  C   C373      1.0  0.41277  0.09371  0.46960  1.0000
  C   C374      1.0  0.41080  0.10516  0.47767  1.0000
  H   H628      1.0  0.42507  0.07501  0.50262  1.0000
  H   H629      1.0  0.42741  0.05473  0.48866  1.0000
  H   H630      1.0  0.40947  0.09896  0.46038  1.0000
  H   H631      1.0  0.40585  0.11924  0.47465  1.0000
  H   H632      1.0  0.45841  0.99886  0.42221  1.0000
  C   C375      1.0  0.41960  0.03680  0.51447  1.0000
  C   C376      1.0  0.42440  0.04315  0.52327  1.0000
  C   C377      1.0  0.43538  0.03173  0.53127  1.0000
  H   H633      1.0  0.43115  0.13363  0.45884  1.0000
  H   H634      1.0  0.40719  0.07916  0.56661  1.0000
  H   H635      1.0  0.41051  0.04552  0.50866  1.0000
  H   H636      1.0  0.41929  0.05680  0.52402  1.0000
  H   H637      1.0  0.10931  0.44552  0.57522  1.0000
  C   C378      1.0  0.42607  0.99261  0.45373  1.0000
  C   C379      1.0  0.47635  0.16336  0.54903  1.0000
  C   C380      1.0  0.39795  0.08397  0.57461  1.0000
  H   H638      1.0  0.47183  0.16085  0.40837  1.0000
  H   H639      1.0  0.09605  0.43061  0.42315  1.0000
  C   C381      1.0  0.06118  0.45488  0.48521  1.0000
  C   C382      1.0  0.06458  0.45777  0.47197  1.0000
  C   C383      1.0  0.05196  0.45591  0.46598  1.0000
  C   C384      1.0  0.03595  0.45103  0.47317  1.0000
  C   C385      1.0  0.03282  0.44757  0.48640  1.0000
  C   C386      1.0  0.04541  0.44946  0.49243  1.0000
  H   H640      1.0  0.07680  0.46182  0.46631  1.0000
  H   H641      1.0  0.05458  0.45846  0.45580  1.0000
  C   C387      1.0  0.46549  0.00708  0.48040  1.0000
  H   H642      1.0  0.04283  0.44691  0.50265  1.0000
  C   C388      1.0  0.06555  0.42467  0.56923  1.0000
  H   H643      1.0  0.12268  0.41211  0.38830  1.0000
  H   H644      1.0  0.06473  0.47437  0.58253  1.0000
  H   H645      1.0  0.09255  0.48264  0.54880  1.0000
  N   N26       1.0  0.11145  0.12566  0.38624  1.0000
  C   C389      1.0  0.04447  0.41979  0.39363  1.0000
  H   H646      1.0  0.35595  0.00147  0.44186  1.0000
  C   C390      1.0  0.42681  0.00572  0.39493  1.0000
  H   H647      1.0  0.35564  0.11515  0.39461  1.0000
  H   H648      1.0  0.32985  0.01724  0.42404  1.0000
  H   H649      1.0  0.32102  0.12916  0.56334  1.0000
  H   H650      1.0  0.06830  0.15275  0.38654  1.0000
  H   H651      1.0  0.00484  0.43907  0.51230  1.0000
  H   H652      1.0  0.10522  0.47730  0.49126  1.0000
  H   H653      1.0  0.35493  0.02254  0.55175  1.0000
  H   H654      1.0  0.00655  0.44013  0.41203  1.0000
  C   C391      1.0  0.35810  0.10081  0.55144  1.0000
  H   H655      1.0  0.36213  0.10005  0.56978  1.0000
  H   H656      1.0  0.43478  0.16494  0.48633  1.0000
  C   C392      1.0  0.34686  0.06902  0.57833  1.0000
  N   N27       1.0  0.10225  0.43490  0.39290  1.0000
  C   C393      1.0  0.46469  0.11066  0.49149  1.0000
  H   H657      1.0  0.49388  0.03866  0.53862  1.0000
  H   H658      1.0  0.08383  0.12271  0.38932  1.0000
  C   C394      1.0  0.48766  0.05166  0.38994  1.0000
  H   H659      1.0  0.36021  0.07239  0.57579  1.0000
  H   H660      1.0  0.01799  0.45855  0.51926  1.0000
  H   H661      1.0  0.47707  0.01390  0.42368  1.0000
  C   C395      1.0  0.03969  0.43377  0.58531  1.0000
  S   S136      1.0  0.48070  0.10941  0.52240  1.0000
  H   H662      1.0  0.35023  0.12687  0.41294  1.0000
  N   N28       1.0  0.35961  0.02541  0.42789  1.0000
  C   C396      1.0  0.37472  0.02490  0.43391  1.0000
  C   C397      1.0  0.34405  0.03967  0.43218  1.0000
  H   H663      1.0  0.47330  0.05070  0.39215  1.0000
  H   H664      1.0  0.36337  0.02848  0.52254  1.0000
  C   C398      1.0  0.39263  0.01196  0.43009  1.0000
  C   C399      1.0  0.33697  0.03730  0.44664  1.0000
  S   S137      1.0  0.41947  0.01141  0.50261  1.0000
  H   H665      1.0  0.48629  0.04905  0.43158  1.0000
  H   H666      1.0  0.37770  0.03836  0.43178  1.0000
  H   H667      1.0  0.37089  0.02097  0.44441  1.0000
  H   H668      1.0  0.11321  0.48808  0.50024  1.0000
  H   H669      1.0  0.34786  0.05277  0.42873  1.0000
  H   H670      1.0  0.32006  0.11240  0.55621  1.0000
  H   H671      1.0  0.13201  0.10136  0.38597  1.0000
  H   H672      1.0  0.11555  0.44466  0.55301  1.0000
  H   H673      1.0  0.46397  0.05666  0.45420  1.0000
  H   H674      1.0  0.47782  0.99192  0.45088  1.0000
  H   H675      1.0  0.06164  0.37720  0.40672  1.0000
  H   H676      1.0  0.49855  0.02370  0.46599  1.0000
  H   H677      1.0  0.32386  0.04668  0.44857  1.0000
  H   H678      1.0  0.33482  0.02374  0.45121  1.0000
  H   H679      1.0  0.34615  0.04068  0.45113  1.0000
  C   C400      1.0  0.35512  0.00732  0.43177  1.0000
  C   C401      1.0  0.47519  0.05904  0.45725  1.0000
  C   C402      1.0  0.09415  0.46883  0.55452  1.0000
  H   H680      1.0  0.29035  0.12487  0.56701  1.0000
  H   H681      1.0  0.45160  0.13343  0.44670  1.0000
  H   H682      1.0  0.18736  0.09802  0.39715  1.0000
  C   C403      1.0  0.35267  0.03385  0.40533  1.0000
  H   H683      1.0  0.41439  0.11741  0.38975  1.0000
  H   H684      1.0  0.09749  0.39777  0.40055  1.0000
  C   C404      1.0  0.43712  0.00770  0.52142  1.0000
  H   H685      1.0  0.34640  0.01599  0.54133  1.0000
  H   H686      1.0  0.09681  0.48410  0.47147  1.0000
  S   S138      1.0  0.39631  0.00885  0.38672  1.0000
  H   H687      1.0  0.11493  0.46093  0.53871  1.0000
  H   H688      1.0  0.40174  0.01458  0.53731  1.0000
  H   H689      1.0  0.33336  0.01479  0.38921  1.0000
  C   C405      1.0  0.49904  0.03266  0.39019  1.0000
  H   H690      1.0  0.43954  0.01104  0.43894  1.0000
  H   H691      1.0  0.46514  0.02210  0.43788  1.0000
  H   H692      1.0  0.48045  0.06275  0.47395  1.0000
  H   H693      1.0  0.36018  0.04759  0.53797  1.0000
  H   H694      1.0  0.06222  0.46738  0.56971  1.0000
  H   H695      1.0  0.44695  0.11097  0.47406  1.0000
  N   N29       1.0  0.47539  0.03616  0.47857  1.0000
  C   C406      1.0  0.21484  0.10086  0.39093  1.0000
  H   H696      1.0  0.36618  0.12477  0.42203  1.0000
  C   C407      1.0  0.11329  0.45917  0.54910  1.0000
  H   H697      1.0  0.37066  0.10558  0.54644  1.0000
  H   H698      1.0  0.43196  0.13345  0.55045  1.0000
  H   H699      1.0  0.07922  0.43653  0.40847  1.0000
  H   H700      1.0  0.46830  0.17604  0.55142  1.0000
  H   H701      1.0  0.47857  0.13415  0.45102  1.0000
  H   H702      1.0  0.33238  0.04121  0.42805  1.0000
  C   C408      1.0  0.31913  0.11530  0.56554  1.0000
  H   H703      1.0  0.21522  0.10370  0.39974  1.0000
  H   H704      1.0  0.22270  0.02418  0.39071  1.0000
  N   N30       1.0  0.46151  0.13203  0.46993  1.0000
  H   H705      1.0  0.44885  0.17471  0.53833  1.0000
  C   C409      1.0  0.48912  0.04854  0.53060  1.0000
  C   C410      1.0  0.47195  0.14243  0.45820  1.0000
  C   C411      1.0  0.47647  0.07846  0.39843  1.0000
  H   H706      1.0  0.05156  0.48538  0.44127  1.0000
  H   H707      1.0  0.14476  0.13496  0.38719  1.0000
  C   C412      1.0  0.46447  0.02688  0.47436  1.0000
  H   H708      1.0  0.37732  0.01976  0.41038  1.0000
  H   H709      1.0  0.34892  0.05709  0.57447  1.0000
  C   C413      1.0  0.39283  0.10215  0.57433  1.0000
  H   H710      1.0  0.37183  0.05537  0.52223  1.0000
  H   H711      1.0  0.46734  0.10827  0.46253  1.0000
  H   H712      1.0  0.31935  0.08115  0.57871  1.0000
  H   H713      1.0  0.33215  0.08185  0.56326  1.0000
  C   C414      1.0  0.10026  0.44114  0.41496  1.0000
  H   H714      1.0  0.43463  0.14954  0.57212  1.0000
  H   H715      1.0  0.31959  0.13363  0.58311  1.0000
  H   H716      1.0  0.37191  0.04249  0.41124  1.0000
  C   C415      1.0  0.45802  0.15373  0.52815  1.0000
  H   H717      1.0  0.38870  0.15213  0.38781  1.0000
  C   C416      1.0  0.33506  0.08470  0.39852  1.0000
  H   H718      1.0  0.45009  0.00300  0.40230  1.0000
  H   H719      1.0  0.08500  0.40180  0.57583  1.0000
  C   C417      1.0  0.43782  0.01172  0.40004  1.0000
  C   C418      1.0  0.48843  0.10188  0.54621  1.0000
  H   H720      1.0  0.47179  0.02174  0.49825  1.0000
  H   H721      1.0  0.24233  0.04018  0.39179  1.0000
  H   H722      1.0  0.36618  0.00366  0.51607  1.0000
  C   C419      1.0  0.37112  0.07845  0.40003  1.0000
  C   C420      1.0  0.41114  0.01699  0.39169  1.0000
  C   C421      1.0  0.35149  0.10640  0.56431  1.0000
  H   H723      1.0  0.04364  0.44666  0.56557  1.0000
  H   H724      1.0  0.02846  0.48260  0.49594  1.0000
  C   C422      1.0  0.04908  0.43602  0.57264  1.0000
  C   C423      1.0  0.10036  0.47986  0.57078  1.0000
  H   H725      1.0  0.48809  0.05100  0.45309  1.0000
  H   H726      1.0  0.47274  0.04313  0.50854  1.0000
  C   C424      1.0  0.38999  0.01021  0.54434  1.0000
  H   H727      1.0  0.10978  0.13737  0.40202  1.0000
  C   C425      1.0  0.33238  0.08391  0.57264  1.0000
  H   H728      1.0  0.48073  0.16519  0.53859  1.0000
  H   H729      1.0  0.47823  0.08691  0.40418  1.0000
  H   H730      1.0  0.43596  0.13599  0.48318  1.0000
  H   H731      1.0  0.11504  0.39100  0.40907  1.0000
  H   H732      1.0  0.41481  0.00396  0.45566  1.0000
  C   C426      1.0  0.35744  0.01175  0.54660  1.0000
  H   H733      1.0  0.04090  0.43299  0.39543  1.0000
  H   H734      1.0  0.44518  0.17646  0.56759  1.0000
  C   C427      1.0  0.29956  0.11540  0.57289  1.0000
  H   H735      1.0  0.12117  0.46054  0.39551  1.0000
  C   C428      1.0  0.39790  0.99236  0.55235  1.0000
  C   C429      1.0  0.09659  0.48297  0.58432  1.0000
  H   H736      1.0  0.08040  0.42353  0.39265  1.0000
  N   N31       1.0  0.44821  0.15007  0.55245  1.0000
  C   C430      1.0  0.00404  0.45811  0.52291  1.0000
  C   C431      1.0  0.09100  0.44286  0.40403  1.0000
  H   H737      1.0  0.38502  0.01985  0.55067  1.0000
  H   H738      1.0  0.10779  0.09877  0.41232  1.0000
  C   C432      1.0  0.49042  0.05788  0.42233  1.0000
  H   H739      1.0  0.12641  0.11808  0.40105  1.0000
  H   H740      1.0  0.11495  0.47393  0.56849  1.0000
  H   H741      1.0  0.48535  0.11338  0.47463  1.0000
  C   C433      1.0  0.44173  0.01397  0.53037  1.0000
  H   H742      1.0  0.48319  0.15746  0.46716  1.0000
  C   C434      1.0  0.10055  0.11281  0.41026  1.0000
  C   C435      1.0  0.38083  0.10823  0.58476  1.0000
  H   H743      1.0  0.38445  0.04498  0.53416  1.0000
  H   H744      1.0  0.39076  0.12656  0.40380  1.0000
  H   H745      1.0  0.49661  0.00182  0.48801  1.0000
  H   H746      1.0  0.38051  0.10886  0.40504  1.0000
  C   C436      1.0  0.45552  0.11838  0.46593  1.0000
  H   H747      1.0  0.33764  0.99389  0.42752  1.0000
  H   H748      1.0  0.45531  0.15106  0.48981  1.0000
  H   H749      1.0  0.39475  0.04333  0.39060  1.0000
  H   H750      1.0  0.47817  0.04395  0.52881  1.0000
  H   H751      1.0  0.09713  0.11800  0.41905  1.0000
  C   C437      1.0  0.37265  0.04454  0.53080  1.0000
  C   C438      1.0  0.11560  0.48436  0.49100  1.0000
  H   H752      1.0  0.46282  0.15386  0.45339  1.0000
  C   C439      1.0  0.38083  0.99462  0.53164  1.0000
  C   C440      1.0  0.48735  0.14951  0.45981  1.0000
  H   H753      1.0  0.47605  0.13637  0.55116  1.0000
  C   C441      1.0  0.48829  0.05024  0.41177  1.0000
  C   C442      1.0  0.46667  0.14774  0.55487  1.0000
  H   H754      1.0  0.43365  0.18647  0.55448  1.0000
  C   C443      1.0  0.33636  0.00622  0.43073  1.0000
  H   H755      1.0  0.43046  0.99238  0.39341  1.0000
  H   H756      1.0  0.36528  0.15737  0.39082  1.0000
  H   H757      1.0  0.49355  0.02326  0.39872  1.0000
  C   C444      1.0  0.11244  0.12410  0.39973  1.0000
  C   C445      1.0  0.36283  0.13076  0.41257  1.0000
  H   H758      1.0  0.34059  0.04420  0.40762  1.0000
  C   C446      1.0  0.44607  0.16144  0.53961  1.0000
  C   C447      1.0  0.44453  0.12560  0.45544  1.0000
  H   H759      1.0  0.35928  0.03890  0.39539  1.0000
  C   C448      1.0  0.08241  0.15022  0.38756  1.0000
  H   H760      1.0  0.44999  0.03362  0.47621  1.0000
  H   H761      1.0  0.43188  0.16401  0.53864  1.0000
  H   H762      1.0  0.24510  0.99701  0.39136  1.0000
  N   N32       1.0  0.33355  0.10261  0.57193  1.0000
  C   C449      1.0  0.44494  0.14397  0.47584  1.0000
  H   H763      1.0  0.46109  0.09927  0.48969  1.0000
  H   H764      1.0  0.39099  0.99810  0.43206  1.0000
  H   H765      1.0  0.45239  0.14352  0.52649  1.0000
  H   H766      1.0  0.49257  0.15809  0.45068  1.0000
  C   C450      1.0  0.09462  0.44949  0.57551  1.0000
  H   H767      1.0  0.13363  0.00011  0.57609  1.0000
  H   H768      1.0  0.14864  0.99099  0.56336  1.0000
  C   C451      1.0  0.05609  0.38836  0.39996  1.0000
  S   S139      1.0  0.04844  0.47677  0.54501  1.0000
  H   H769      1.0  0.45540  0.12538  0.54596  1.0000
  C   C452      1.0  0.44500  0.13210  0.55303  1.0000
  S   S140      1.0  0.01762  0.43982  0.43391  1.0000
  H   H770      1.0  0.44213  0.11424  0.45272  1.0000
  H   H771      1.0  0.46633  0.14424  0.56523  1.0000
  H   H772      1.0  0.43682  0.15175  0.46870  1.0000
  H   H773      1.0  0.36149  0.08619  0.55261  1.0000
  H   H774      1.0  0.47198  0.14777  0.52931  1.0000
  H   H775      1.0  0.33933  0.99504  0.55917  1.0000
  H   H776      1.0  0.08524  0.45720  0.40082  1.0000
  H   H777      1.0  0.45283  0.11843  0.49697  1.0000
  N   N33       1.0  0.37654  0.13029  0.38882  1.0000
  H   H778      1.0  0.45371  0.03915  0.49499  1.0000
  H   H779      1.0  0.34380  0.12775  0.58151  1.0000
  H   H780      1.0  0.32720  0.00479  0.44022  1.0000
  C   C453      1.0  0.47657  0.01226  0.43389  1.0000
  C   C454      1.0  0.49211  0.11068  0.53348  1.0000
  C   C455      1.0  0.46864  0.03539  0.49260  1.0000
  H   H781      1.0  0.02059  0.44351  0.49193  1.0000
  H   H782      1.0  0.35137  0.12081  0.56230  1.0000
  C   C456      1.0  0.33585  0.00047  0.38931  1.0000
  H   H783      1.0  0.45853  0.16438  0.51944  1.0000
  C   C457      1.0  0.07228  0.41065  0.57844  1.0000
  C   C458      1.0  0.47187  0.05542  0.47183  1.0000
  C   C459      1.0  0.44497  0.11883  0.56590  1.0000
  C   C460      1.0  0.37859  0.12354  0.40241  1.0000
  C   C461      1.0  0.06963  0.47554  0.57218  1.0000
  H   H784      1.0  0.08746  0.11345  0.40827  1.0000
  H   H785      1.0  0.13740  0.44056  0.39190  1.0000
  H   H786      1.0  0.46834  0.06135  0.49572  1.0000
  H   H787      1.0  0.45780  0.06212  0.47524  1.0000
  C   C462      1.0  0.43379  0.17664  0.56354  1.0000
  C   C463      1.0  0.12752  0.45227  0.38833  1.0000
  H   H788      1.0  0.29664  0.12009  0.58180  1.0000
  H   H789      1.0  0.34833  0.10679  0.54522  1.0000
  H   H790      1.0  0.47888  0.13135  0.48228  1.0000
  H   H791      1.0  0.35759  0.99514  0.56578  1.0000
  C   C464      1.0  0.34862  0.08173  0.38788  1.0000
  C   C465      1.0  0.36665  0.07844  0.38874  1.0000
  H   H792      1.0  0.40685  0.99468  0.55758  1.0000
  C   C466      1.0  0.11443  0.41729  0.39682  1.0000
  H   H793      1.0  0.09547  0.45363  0.41853  1.0000
  H   H794      1.0  0.47572  0.07322  0.45327  1.0000
  H   H795      1.0  0.44613  0.00555  0.45371  1.0000
  H   H796      1.0  0.49878  0.13850  0.46203  1.0000
  H   H797      1.0  0.48902  0.01547  0.43459  1.0000
  H   H798      1.0  0.10171  0.09129  0.39570  1.0000
  H   H799      1.0  0.34909  0.02140  0.40536  1.0000
  C   C467      1.0  0.37475  0.02676  0.52710  1.0000
  H   H800      1.0  0.40212  0.01213  0.43571  1.0000
  H   H801      1.0  0.32112  0.08734  0.39793  1.0000
  C   C468      1.0  0.35865  0.12764  0.38808  1.0000
  C   C469      1.0  0.05375  0.38563  0.38867  1.0000
  H   H802      1.0  0.47479  0.04688  0.41464  1.0000
  C   C470      1.0  0.43375  0.15789  0.56253  1.0000
  H   H803      1.0  0.34748  0.13834  0.39138  1.0000
  C   C471      1.0  0.49765  0.10368  0.55477  1.0000
  H   H804      1.0  0.48164  0.99691  0.51345  1.0000
  C   C472      1.0  0.19904  0.09770  0.38944  1.0000
  H   H805      1.0  0.12385  0.46466  0.55051  1.0000
  H   H806      1.0  0.44209  0.99405  0.52073  1.0000
  H   H807      1.0  0.48881  0.16022  0.55271  1.0000
  C   C473      1.0  0.35386  0.99520  0.55692  1.0000
  H   H808      1.0  0.49479  0.09695  0.56461  1.0000
  H   H809      1.0  0.08195  0.15038  0.39748  1.0000
  H   H810      1.0  0.38698  0.02540  0.51939  1.0000
  H   H811      1.0  0.36052  0.14531  0.41134  1.0000
  H   H812      1.0  0.29601  0.10232  0.57493  1.0000
  H   H813      1.0  0.48193  0.07122  0.42281  1.0000
  H   H814      1.0  0.22578  0.05981  0.38705  1.0000
  S   S141      1.0  0.00264  0.48211  0.53672  1.0000
  H   H815      1.0  0.49020  0.04652  0.49456  1.0000
  H   H816      1.0  0.42020  0.15815  0.56119  1.0000
  H   H817      1.0  0.49823  0.03741  0.41215  1.0000
  H   H818      1.0  0.48294  0.06149  0.53339  1.0000
  H   H819      1.0  0.12437  0.41838  0.40169  1.0000
  H   H820      1.0  0.45677  0.11779  0.56979  1.0000
  H   H821      1.0  0.44551  0.10544  0.56466  1.0000
  H   H822      1.0  0.00352  0.47653  0.49041  1.0000
  H   H823      1.0  0.37689  0.12229  0.58459  1.0000
  C   C474      1.0  0.08985  0.43162  0.38601  1.0000
  H   H824      1.0  0.33662  0.99320  0.39915  1.0000
  H   H825      1.0  0.39472  0.05790  0.58528  1.0000
  C   C475      1.0  0.39083  0.07194  0.58518  1.0000
  C   C476      1.0  0.33117  0.10487  0.58522  1.0000
  H   H826      1.0  0.38077  0.99283  0.58561  1.0000
  H   H827      1.0  0.32420  0.99750  0.38725  1.0000
  Fe  Fe73      1.0  0.04457  0.39220  0.62328  1.0000
  S   S142      1.0  0.02824  0.38811  0.64314  1.0000
  H   H828      1.0  0.34791  0.16420  0.73049  1.0000
  Fe  Fe74      1.0  0.06717  0.35505  0.62731  1.0000
  S   S143      1.0  0.05261  0.34807  0.64741  1.0000
  S   S144      1.0  0.08852  0.33205  0.62152  1.0000
  Fe  Fe75      1.0  0.02768  0.36183  0.64020  1.0000
  Fe  Fe76      1.0  0.05456  0.37476  0.64864  1.0000
  S   S145      1.0  0.05888  0.37700  0.66704  1.0000
  S   S146      1.0  0.04199  0.36688  0.61981  1.0000
  S   S147      1.0  0.07130  0.38096  0.62900  1.0000
  C   C477      1.0  0.27678  0.39727  0.78050  1.0000
  H   H829      1.0  0.28150  0.04540  0.60378  1.0000
  H   H830      1.0  0.20138  0.28846  0.72023  1.0000
  H   H831      1.0  0.07054  0.44468  0.59025  1.0000
  Fe  Fe77      1.0  0.13774  0.32120  0.69159  1.0000
  S   S148      1.0  0.12148  0.31963  0.71152  1.0000
  S   S149      1.0  0.13747  0.34649  0.67684  1.0000
  Fe  Fe78      1.0  0.15080  0.28159  0.69509  1.0000
  S   S150      1.0  0.13588  0.27680  0.71527  1.0000
  S   S151      1.0  0.16371  0.25779  0.68655  1.0000
  Fe  Fe79      1.0  0.11322  0.29693  0.70797  1.0000
  S   S152      1.0  0.08503  0.29216  0.71309  1.0000
  Fe  Fe80      1.0  0.14592  0.29976  0.71677  1.0000
  S   S153      1.0  0.15631  0.29640  0.73451  1.0000
  S   S154      1.0  0.12758  0.30012  0.68776  1.0000
  S   S155      1.0  0.16286  0.30286  0.69697  1.0000
  Fe  Fe81      1.0  0.16817  0.10837  0.66909  1.0000
  S   S156      1.0  0.18451  0.08564  0.68077  1.0000
  S   S157      1.0  0.14075  0.12116  0.67871  1.0000
  Fe  Fe82      1.0  0.19778  0.10882  0.64561  1.0000
  S   S158      1.0  0.21635  0.08648  0.65539  1.0000
  S   S159      1.0  0.20631  0.12228  0.62530  1.0000
  Fe  Fe83      1.0  0.19256  0.07381  0.66351  1.0000
  S   S160      1.0  0.19887  0.04433  0.66410  1.0000
  Fe  Fe84      1.0  0.20664  0.10040  0.67154  1.0000
  S   S161      1.0  0.22777  0.10194  0.68095  1.0000
  S   S162      1.0  0.17436  0.09539  0.65253  1.0000
  S   S163      1.0  0.18988  0.12399  0.66109  1.0000
  Fe  Fe85      1.0  0.05636  0.24572  0.65083  1.0000
  S   S164      1.0  0.03985  0.24213  0.67067  1.0000
  S   S165      1.0  0.04659  0.27019  0.63728  1.0000
  Fe  Fe86      1.0  0.07900  0.20858  0.65512  1.0000
  S   S166      1.0  0.06389  0.20199  0.67518  1.0000
  S   S167      1.0  0.10159  0.18970  0.64526  1.0000
  Fe  Fe87      1.0  0.03908  0.21589  0.66754  1.0000
  Fe  Fe88      1.0  0.06632  0.22885  0.67614  1.0000
  S   S168      1.0  0.07541  0.22976  0.69333  1.0000
  S   S169      1.0  0.05402  0.22037  0.64739  1.0000
  S   S170      1.0  0.08300  0.23464  0.65646  1.0000
  Fe  Fe89      1.0  0.25580  0.21484  0.69002  1.0000
  S   S171      1.0  0.24280  0.20114  0.70914  1.0000
  S   S172      1.0  0.24659  0.24398  0.68315  1.0000
  Fe  Fe90      1.0  0.28101  0.18099  0.68383  1.0000
  S   S173      1.0  0.27002  0.16432  0.70247  1.0000
  S   S174      1.0  0.30288  0.17200  0.66786  1.0000
  Fe  Fe91      1.0  0.24300  0.18033  0.69906  1.0000
  S   S175      1.0  0.21739  0.17134  0.70107  1.0000
  Fe  Fe92      1.0  0.27096  0.18681  0.71068  1.0000
  S   S176      1.0  0.28134  0.18191  0.72855  1.0000
  S   S177      1.0  0.25404  0.19527  0.67977  1.0000
  S   S178      1.0  0.28390  0.20223  0.69225  1.0000
  Fe  Fe93      1.0  0.24517  0.34858  0.76746  1.0000
  H   H832      1.0  0.36053  0.03077  0.62922  1.0000
  S   S179      1.0  0.26965  0.35882  0.76637  1.0000
  Fe  Fe94      1.0  0.22178  0.33539  0.75547  1.0000
  S   S180      1.0  0.20697  0.32296  0.77440  1.0000
  S   S181      1.0  0.21606  0.33430  0.73693  1.0000
  Fe  Fe95      1.0  0.20613  0.34807  0.77999  1.0000
  C   C478      1.0  0.35093  0.14928  0.68481  1.0000
  Fe  Fe96      1.0  0.23387  0.31372  0.77960  1.0000
  C   C479      1.0  0.28485  0.00618  0.62527  1.0000
  S   S182      1.0  0.21941  0.36136  0.76072  1.0000
  S   S183      1.0  0.24898  0.32401  0.76017  1.0000
  C   C480      1.0  0.13042  0.35116  0.75218  1.0000
  C   C481      1.0  0.18211  0.24597  0.71972  1.0000
  C   C482      1.0  0.04560  0.14334  0.65894  1.0000
  H   H833      1.0  0.28683  0.39916  0.78461  1.0000
  H   H834      1.0  0.25123  0.99056  0.64227  1.0000
  S   S184      1.0  0.44278  0.27207  0.76980  1.0000
  H   H835      1.0  0.15425  0.32004  0.78319  1.0000
  S   S185      1.0  0.38948  0.35201  0.77303  1.0000
  H   H836      1.0  0.04296  0.24155  0.61657  1.0000
  H   H837      1.0  0.29662  0.05814  0.68046  1.0000
  H   H838      1.0  0.25292  0.17383  0.63639  1.0000
  H   H839      1.0  0.10762  0.21217  0.70785  1.0000
  H   H840      1.0  0.26823  0.14304  0.67058  1.0000
  H   H841      1.0  0.27220  0.06269  0.65997  1.0000
  H   H842      1.0  0.19498  0.24433  0.73954  1.0000
  C   C483      1.0  0.25468  0.48202  0.77071  1.0000
  H   H843      1.0  0.18500  0.99778  0.64996  1.0000
  N   N34       1.0  0.20674  0.26017  0.72181  1.0000
  H   H844      1.0  0.32755  0.20619  0.68123  1.0000
  H   H845      1.0  0.23785  0.12970  0.65062  1.0000
  N   N35       1.0  0.25674  0.14656  0.64700  1.0000
  H   H846      1.0  0.01341  0.23917  0.62940  1.0000
  S   S186      1.0  0.36120  0.20823  0.75782  1.0000
  H   H847      1.0  0.21620  0.02075  0.60947  1.0000
  Fe  Fe97      1.0  0.33868  0.25191  0.76970  1.0000
  S   S187      1.0  0.35235  0.25174  0.74948  1.0000
  S   S188      1.0  0.32833  0.27738  0.77653  1.0000
  Fe  Fe98      1.0  0.33844  0.22973  0.75149  1.0000
  S   S189      1.0  0.32625  0.23291  0.73464  1.0000
  Fe  Fe99      1.0  0.37370  0.23049  0.75742  1.0000
  S   S190      1.0  0.40302  0.23041  0.74949  1.0000
  S   S191      1.0  0.32280  0.23182  0.77122  1.0000
  S   S192      1.0  0.36113  0.23255  0.77742  1.0000
  Fe  Fe100     1.0  0.32103  0.08661  0.64442  1.0000
  S   S193      1.0  0.33103  0.10070  0.62445  1.0000
  S   S194      1.0  0.31905  0.09205  0.66344  1.0000
  Fe  Fe101     1.0  0.30942  0.05930  0.63610  1.0000
  S   S195      1.0  0.31805  0.07077  0.61544  1.0000
  S   S196      1.0  0.29796  0.03489  0.64444  1.0000
  Fe  Fe102     1.0  0.34254  0.07333  0.62057  1.0000
  S   S197      1.0  0.36831  0.06270  0.60786  1.0000
  Fe  Fe103     1.0  0.30585  0.09702  0.62083  1.0000
  S   S198      1.0  0.28971  0.11887  0.60861  1.0000
  S   S199      1.0  0.33492  0.05952  0.64089  1.0000
  S   S200      1.0  0.29488  0.08533  0.64102  1.0000
  C   C484      1.0  0.32962  0.02648  0.59630  1.0000
  C   C485      1.0  0.01237  0.20224  0.65013  1.0000
  C   C486      1.0  0.28718  0.04135  0.62219  1.0000
  C   C487      1.0  0.29041  0.02901  0.63323  1.0000
  H   H848      1.0  0.20481  0.25486  0.75429  1.0000
  H   H849      1.0  0.28791  0.05497  0.62102  1.0000
  Fe  Fe104     1.0  0.40444  0.32755  0.78444  1.0000
  H   H850      1.0  0.40920  0.31722  0.74411  1.0000
  H   H851      1.0  0.02207  0.34058  0.62519  1.0000
  H   H852      1.0  0.32188  0.18653  0.68059  1.0000
  C   C488      1.0  0.19139  0.26187  0.71567  1.0000
  H   H853      1.0  0.24905  0.24789  0.70942  1.0000
  H   H854      1.0  0.41343  0.27787  0.74414  1.0000
  C   C489      1.0  0.43124  0.25992  0.76509  1.0000
  C   C490      1.0  0.41306  0.25972  0.77031  1.0000
  C   C491      1.0  0.40423  0.25033  0.76585  1.0000
  C   C492      1.0  0.41363  0.24109  0.75622  1.0000
  C   C493      1.0  0.43185  0.24104  0.75127  1.0000
  C   C494      1.0  0.44062  0.25038  0.75569  1.0000
  C   C495      1.0  0.46667  0.22334  0.78168  1.0000
  H   H855      1.0  0.39014  0.25054  0.76966  1.0000
  H   H856      1.0  0.43916  0.23396  0.74383  1.0000
  H   H857      1.0  0.45467  0.25046  0.75164  1.0000
  H   H858      1.0  0.03406  0.31823  0.65806  1.0000
  C   C496      1.0  0.36477  0.38297  0.77550  1.0000
  H   H859      1.0  0.08301  0.13858  0.67153  1.0000
  S   S201      1.0  0.15507  0.01484  0.63752  1.0000
  H   H860      1.0  0.11198  0.24876  0.70596  1.0000
  H   H861      1.0  0.31015  0.14027  0.71965  1.0000
  H   H862      1.0  0.36790  0.38652  0.76525  1.0000
  C   C497      1.0  0.37352  0.09619  0.59527  1.0000
  H   H863      1.0  0.31866  0.19259  0.70296  1.0000
  H   H864      1.0  0.43848  0.20105  0.76783  1.0000
  H   H865      1.0  0.09767  0.12487  0.66142  1.0000
  H   H866      1.0  0.23820  0.05661  0.62822  1.0000
  C   C498      1.0  0.08340  0.13166  0.66414  1.0000
  H   H867      1.0  0.14461  0.38650  0.75077  1.0000
  H   H868      1.0  0.00483  0.28334  0.61827  1.0000
  C   C499      1.0  0.23812  0.47790  0.76827  1.0000
  H   H869      1.0  0.19528  0.45897  0.76935  1.0000
  H   H870      1.0  0.36663  0.01855  0.59503  1.0000
  H   H871      1.0  0.30000  0.30837  0.77462  1.0000
  H   H872      1.0  0.32761  0.03871  0.59978  1.0000
  C   C500      1.0  0.26595  0.37866  0.77151  1.0000
  C   C501      1.0  0.25086  0.39219  0.76978  1.0000
  C   C502      1.0  0.24908  0.40844  0.77300  1.0000
  C   C503      1.0  0.26196  0.41097  0.77844  1.0000
  H   H873      1.0  0.24010  0.99631  0.68280  1.0000
  C   C504      1.0  0.27887  0.38128  0.77686  1.0000
  H   H874      1.0  0.20178  0.45442  0.78405  1.0000
  C   C505      1.0  0.32917  0.35907  0.76595  1.0000
  C   C506      1.0  0.37303  0.36639  0.78178  1.0000
  C   C507      1.0  0.00471  0.19779  0.64178  1.0000
  H   H875      1.0  0.08036  0.13671  0.64495  1.0000
  H   H876      1.0  0.22569  0.06313  0.68090  1.0000
  H   H877      1.0  0.35941  0.30802  0.77890  1.0000
  H   H878      1.0  0.26711  0.31220  0.78075  1.0000
  H   H879      1.0  0.23095  0.16496  0.63115  1.0000
  H   H880      1.0  0.12684  0.34119  0.76090  1.0000
  C   C508      1.0  0.10158  0.20199  0.72786  1.0000
  H   H881      1.0  0.28354  0.14718  0.62325  1.0000
  H   H882      1.0  0.03413  0.30383  0.70349  1.0000
  H   H883      1.0  0.18850  0.07254  0.62784  1.0000
  C   C509      1.0  0.29332  0.19648  0.73035  1.0000
  C   C510      1.0  0.29605  0.21174  0.72111  1.0000
  C   C511      1.0  0.30633  0.22263  0.72253  1.0000
  C   C512      1.0  0.31377  0.21853  0.73327  1.0000
  C   C513      1.0  0.31086  0.20341  0.74260  1.0000
  C   C514      1.0  0.30072  0.19240  0.74111  1.0000
  H   H884      1.0  0.29030  0.21514  0.71284  1.0000
  H   H885      1.0  0.30846  0.23435  0.71529  1.0000
  H   H886      1.0  0.31650  0.20014  0.75093  1.0000
  H   H887      1.0  0.29866  0.18063  0.74832  1.0000
  C   C515      1.0  0.30689  0.14982  0.66669  1.0000
  C   C516      1.0  0.31559  0.14511  0.65504  1.0000
  C   C517      1.0  0.31910  0.12743  0.65388  1.0000
  C   C518      1.0  0.31428  0.11436  0.66447  1.0000
  C   C519      1.0  0.30564  0.11905  0.67613  1.0000
  C   C520      1.0  0.30178  0.13679  0.67722  1.0000
  H   H888      1.0  0.31962  0.15516  0.64689  1.0000
  H   H889      1.0  0.32589  0.12386  0.64488  1.0000
  H   H890      1.0  0.30185  0.10896  0.68433  1.0000
  H   H891      1.0  0.29502  0.14032  0.68621  1.0000
  C   C521      1.0  0.18590  0.03624  0.65726  1.0000
  C   C522      1.0  0.19067  0.01837  0.65645  1.0000
  C   C523      1.0  0.16681  0.02271  0.64543  1.0000
  C   C524      1.0  0.16195  0.04059  0.64629  1.0000
  C   C525      1.0  0.17142  0.04734  0.65221  1.0000
  H   H892      1.0  0.15079  0.04925  0.64236  1.0000
  H   H893      1.0  0.16750  0.06110  0.65286  1.0000
  C   C526      1.0  0.22420  0.12059  0.68745  1.0000
  C   C527      1.0  0.20773  0.13274  0.68844  1.0000
  C   C528      1.0  0.20559  0.14794  0.69311  1.0000
  C   C529      1.0  0.22005  0.15143  0.69631  1.0000
  C   C530      1.0  0.23640  0.13913  0.69552  1.0000
  C   C531      1.0  0.23837  0.12361  0.69130  1.0000
  H   H894      1.0  0.19662  0.13029  0.68576  1.0000
  H   H895      1.0  0.19276  0.15707  0.69421  1.0000
  H   H896      1.0  0.24752  0.14154  0.69820  1.0000
  H   H897      1.0  0.25107  0.11414  0.69075  1.0000
  C   C532      1.0  0.26678  0.11860  0.61243  1.0000
  C   C533      1.0  0.25485  0.13297  0.60685  1.0000
  C   C534      1.0  0.23630  0.13377  0.61062  1.0000
  C   C535      1.0  0.22964  0.12018  0.61995  1.0000
  C   C536      1.0  0.24165  0.10536  0.62502  1.0000
  C   C537      1.0  0.26021  0.10457  0.62129  1.0000
  C   C538      1.0  0.06103  0.28602  0.66439  1.0000
  H   H898      1.0  0.22709  0.14513  0.60652  1.0000
  H   H899      1.0  0.23672  0.09438  0.63166  1.0000
  H   H900      1.0  0.26938  0.09312  0.62528  1.0000
  C   C539      1.0  0.12950  0.13961  0.66922  1.0000
  C   C540      1.0  0.11415  0.15049  0.67496  1.0000
  C   C541      1.0  0.10546  0.16586  0.66767  1.0000
  C   C542      1.0  0.11196  0.17032  0.65459  1.0000
  C   C543      1.0  0.12709  0.15921  0.64881  1.0000
  C   C544      1.0  0.13598  0.14396  0.65613  1.0000
  H   H901      1.0  0.10915  0.14716  0.68510  1.0000
  H   H902      1.0  0.09388  0.17431  0.67222  1.0000
  H   H903      1.0  0.13214  0.16256  0.63868  1.0000
  H   H904      1.0  0.14784  0.13559  0.65165  1.0000
  C   C545      1.0  0.18700  0.25408  0.68411  1.0000
  C   C546      1.0  0.19571  0.26830  0.68014  1.0000
  C   C547      1.0  0.21428  0.26515  0.67924  1.0000
  C   C548      1.0  0.22397  0.24783  0.68256  1.0000
  C   C549      1.0  0.21524  0.23365  0.68628  1.0000
  C   C550      1.0  0.19681  0.23675  0.68691  1.0000
  H   H905      1.0  0.18814  0.28172  0.67783  1.0000
  H   H906      1.0  0.22104  0.27612  0.67626  1.0000
  H   H907      1.0  0.22258  0.22026  0.68890  1.0000
  H   H908      1.0  0.19011  0.22574  0.69001  1.0000
  C   C551      1.0  0.17247  0.30755  0.73508  1.0000
  C   C552      1.0  0.17905  0.32010  0.72474  1.0000
  C   C553      1.0  0.19244  0.32815  0.72542  1.0000
  C   C554      1.0  0.19922  0.32389  0.73647  1.0000
  C   C555      1.0  0.19262  0.31135  0.74681  1.0000
  C   C556      1.0  0.17931  0.30324  0.74611  1.0000
  H   H909      1.0  0.17394  0.32350  0.71617  1.0000
  H   H910      1.0  0.19753  0.33779  0.71734  1.0000
  H   H911      1.0  0.19792  0.30775  0.75529  1.0000
  H   H912      1.0  0.17435  0.29347  0.75414  1.0000
  C   C557      1.0  0.08053  0.27704  0.70612  1.0000
  C   C558      1.0  0.06808  0.26673  0.71332  1.0000
  C   C559      1.0  0.06560  0.25307  0.70883  1.0000
  C   C560      1.0  0.07517  0.24986  0.69693  1.0000
  C   C561      1.0  0.08686  0.26086  0.68932  1.0000
  C   C562      1.0  0.08956  0.27445  0.69392  1.0000
  H   H913      1.0  0.06098  0.26872  0.72271  1.0000
  H   H914      1.0  0.05678  0.24447  0.71485  1.0000
  H   H915      1.0  0.09457  0.25824  0.68021  1.0000
  H   H916      1.0  0.09913  0.28243  0.68827  1.0000
  H   H917      1.0  0.34772  0.40855  0.77758  1.0000
  C   C563      1.0  0.10664  0.21693  0.71649  1.0000
  H   H918      1.0  0.06777  0.17509  0.65918  1.0000
  H   H919      1.0  0.21814  0.14813  0.63670  1.0000
  C   C564      1.0  0.27145  0.15808  0.62363  1.0000
  H   H920      1.0  0.21712  0.26896  0.74208  1.0000
  H   H921      1.0  0.32877  0.13112  0.70815  1.0000
  H   H922      1.0  0.35016  0.03372  0.61040  1.0000
  H   H923      1.0  0.34233  0.19038  0.69907  1.0000
  C   C565      1.0  0.31736  0.15979  0.70222  1.0000
  H   H924      1.0  0.33581  0.14814  0.72149  1.0000
  H   H925      1.0  0.22564  0.07774  0.61085  1.0000
  H   H926      1.0  0.34524  0.18792  0.67777  1.0000
  H   H927      1.0  0.00326  0.25641  0.59805  1.0000
  H   H928      1.0  0.00970  0.30735  0.65490  1.0000
  H   H929      1.0  0.22995  0.06369  0.69579  1.0000
  H   H930      1.0  0.22535  0.02182  0.64093  1.0000
  C   C566      1.0  0.12946  0.23543  0.69161  1.0000
  H   H931      1.0  0.24389  0.25285  0.77797  1.0000
  C   C567      1.0  0.08083  0.36863  0.66948  1.0000
  C   C568      1.0  0.09518  0.37586  0.66140  1.0000
  C   C569      1.0  0.11255  0.36940  0.66387  1.0000
  C   C570      1.0  0.11559  0.35554  0.67428  1.0000
  C   C571      1.0  0.10121  0.34835  0.68230  1.0000
  C   C572      1.0  0.08385  0.35503  0.67999  1.0000
  H   H932      1.0  0.09282  0.38658  0.65338  1.0000
  H   H933      1.0  0.12364  0.37500  0.65765  1.0000
  H   H934      1.0  0.10338  0.33771  0.69036  1.0000
  H   H935      1.0  0.07275  0.34960  0.68637  1.0000
  C   C573      1.0  0.07783  0.31422  0.62511  1.0000
  C   C574      1.0  0.05996  0.31764  0.62416  1.0000
  C   C575      1.0  0.05071  0.30390  0.62771  1.0000
  C   C576      1.0  0.05919  0.28664  0.63243  1.0000
  C   C577      1.0  0.07721  0.28299  0.63328  1.0000
  C   C578      1.0  0.08662  0.29681  0.62950  1.0000
  H   H936      1.0  0.05336  0.33087  0.62042  1.0000
  H   H937      1.0  0.03687  0.30667  0.62690  1.0000
  H   H938      1.0  0.08389  0.26957  0.63675  1.0000
  H   H939      1.0  0.10052  0.29404  0.63012  1.0000
  C   C579      1.0  0.24334  0.14021  0.64294  1.0000
  C   C580      1.0  0.36175  0.01836  0.62617  1.0000
  H   H940      1.0  0.35625  0.14317  0.70335  1.0000
  C   C581      1.0  0.05580  0.16552  0.64088  1.0000
  H   H941      1.0  0.40579  0.26691  0.77768  1.0000
  H   H942      1.0  0.19866  0.01642  0.62289  1.0000
  H   H943      1.0  0.38634  0.26813  0.74457  1.0000
  C   C582      1.0  0.21229  0.25651  0.74426  1.0000
  H   H944      1.0  0.41172  0.38947  0.76760  1.0000
  H   H945      1.0  0.20182  0.00983  0.66031  1.0000
  H   H946      1.0  0.04224  0.17435  0.64151  1.0000
  H   H947      1.0  0.34919  0.30445  0.76104  1.0000
  C   C583      1.0  0.33153  0.19149  0.68353  1.0000
  H   H948      1.0  0.38037  0.19489  0.78182  1.0000
  C   C584      1.0  0.33254  0.00977  0.60684  1.0000
  H   H949      1.0  0.31716  0.02718  0.59324  1.0000
  H   H950      1.0  0.20730  0.48528  0.76111  1.0000
  H   H951      1.0  0.11970  0.22897  0.69010  1.0000
  H   H952      1.0  0.21800  0.23195  0.72420  1.0000
  H   H953      1.0  0.01366  0.32356  0.66872  1.0000
  H   H954      1.0  0.27847  0.12611  0.64015  1.0000
  C   C585      1.0  0.26032  0.15587  0.66634  1.0000
  C   C586      1.0  0.22789  0.04854  0.63011  1.0000
  C   C587      1.0  0.35104  0.15543  0.69673  1.0000
  H   H955      1.0  0.36162  0.16336  0.69398  1.0000
  H   H956      1.0  0.26311  0.10612  0.65567  1.0000
  H   H957      1.0  0.22582  0.29469  0.70076  1.0000
  H   H958      1.0  0.04017  0.16973  0.68119  1.0000
  H   H959      1.0  0.24382  0.04081  0.58877  1.0000
  C   C588      1.0  0.41369  0.30276  0.74717  1.0000
  H   H960      1.0  0.30477  0.16871  0.70604  1.0000
  C   C589      1.0  0.03164  0.25242  0.61392  1.0000
  H   H961      1.0  0.27446  0.16510  0.63989  1.0000
  H   H962      1.0  0.27579  0.17013  0.61730  1.0000
  H   H963      1.0  0.09915  0.20576  0.73707  1.0000
  H   H964      1.0  0.28362  0.13548  0.65075  1.0000
  H   H965      1.0  0.32921  0.12354  0.59664  1.0000
  C   C590      1.0  0.24068  0.24452  0.71908  1.0000
  H   H966      1.0  0.12383  0.21607  0.73582  1.0000
  H   H967      1.0  0.13512  0.23318  0.72692  1.0000
  C   C591      1.0  0.10659  0.24210  0.73223  1.0000
  H   H968      1.0  0.31980  0.16824  0.72238  1.0000
  C   C592      1.0  0.03504  0.33468  0.68075  1.0000
  H   H969      1.0  0.34345  0.13853  0.68721  1.0000
  H   H970      1.0  0.05198  0.14773  0.68002  1.0000
  C   C593      1.0  0.28328  0.03600  0.61253  1.0000
  C   C594      1.0  0.23310  0.04916  0.59469  1.0000
  C   C595      1.0  0.21263  0.27764  0.71725  1.0000
  H   H971      1.0  0.14333  0.22762  0.68930  1.0000
  C   C596      1.0  0.22140  0.24469  0.71831  1.0000
  C   C597      1.0  0.13940  0.20782  0.71360  1.0000
  H   H972      1.0  0.21684  0.05346  0.63767  1.0000
  H   H973      1.0  0.33770  0.36263  0.75639  1.0000
  H   H974      1.0  0.22001  0.04659  0.59473  1.0000
  H   H975      1.0  0.27646  0.01536  0.69577  1.0000
  S   S202      1.0  0.03505  0.41796  0.61041  1.0000
  C   C598      1.0  0.34809  0.02160  0.61783  1.0000
  H   H976      1.0  0.01725  0.14270  0.66624  1.0000
  H   H977      1.0  0.18833  0.42058  0.77179  1.0000
  H   H978      1.0  0.06445  0.18528  0.62434  1.0000
  H   H979      1.0  0.25034  0.07234  0.66722  1.0000
  S   S203      1.0  0.00219  0.35152  0.64838  1.0000
  H   H980      1.0  0.11993  0.34938  0.62230  1.0000
  H   H981      1.0  0.23815  0.04835  0.66421  1.0000
  C   C599      1.0  0.22699  0.15448  0.63942  1.0000
  H   H982      1.0  0.25990  0.14373  0.59985  1.0000
  H   H983      1.0  0.26734  0.05518  0.69595  1.0000
  C   C600      1.0  0.05284  0.16176  0.67654  1.0000
  H   H984      1.0  0.20506  0.08191  0.63081  1.0000
  H   H985      1.0  0.09099  0.43049  0.59347  1.0000
  H   H986      1.0  0.23823  0.48248  0.75797  1.0000
  H   H987      1.0  0.32906  0.00083  0.63623  1.0000
  H   H988      1.0  0.33442  0.02567  0.62360  1.0000
  C   C601      1.0  0.01740  0.39166  0.59310  1.0000
  H   H989      1.0  0.01522  0.23478  0.61449  1.0000
  C   C602      1.0  0.18184  0.41215  0.78005  1.0000
  H   H990      1.0  0.19489  0.38819  0.77327  1.0000
  H   H991      1.0  0.23891  0.14449  0.66567  1.0000
  C   C603      1.0  0.33096  0.12362  0.58647  1.0000
  H   H992      1.0  0.06808  0.39746  0.59819  1.0000
  C   C604      1.0  0.34707  0.17003  0.72044  1.0000
  H   H993      1.0  0.22916  0.27259  0.69870  1.0000
  H   H994      1.0  0.20783  0.28803  0.69791  1.0000
  H   H995      1.0  0.08879  0.19925  0.72731  1.0000
  C   C605      1.0  0.40885  0.29194  0.73959  1.0000
  H   H996      1.0  0.24673  0.02252  0.62966  1.0000
  N   N36       1.0  0.38942  0.29544  0.73873  1.0000
  H   H997      1.0  0.29866  0.01313  0.68629  1.0000
  H   H998      1.0  0.29054  0.37094  0.77814  1.0000
  H   H999      1.0  0.24093  0.39037  0.76552  1.0000
  H   H1000     1.0  0.13946  0.20237  0.70546  1.0000
  H   H1001     1.0  0.01186  0.29239  0.68944  1.0000
  H   H1002     1.0  0.22230  0.24397  0.70838  1.0000
  H   H1003     1.0  0.08236  0.48413  0.58929  1.0000
  C   C606      1.0  0.28862  0.01158  0.63497  1.0000
  H   H1004     1.0  0.35263  0.29080  0.75018  1.0000
  H   H1005     1.0  0.22081  0.01344  0.62511  1.0000
  H   H1006     1.0  0.19350  0.09322  0.61842  1.0000
  H   H1007     1.0  0.40158  0.40597  0.78370  1.0000
  H   H1008     1.0  0.24991  0.13367  0.63480  1.0000
  C   C607      1.0  0.02555  0.15272  0.66121  1.0000
  C   C608      1.0  0.37833  0.07803  0.59541  1.0000
  H   H1009     1.0  0.21888  0.16044  0.64756  1.0000
  H   H1010     1.0  0.35264  0.31429  0.74456  1.0000
  H   H1011     1.0  0.04765  0.13444  0.65233  1.0000
  H   H1012     1.0  0.14779  0.37972  0.77877  1.0000
  C   C609      1.0  0.27544  0.29917  0.78293  1.0000
  H   H1013     1.0  0.42854  0.29993  0.74592  1.0000
  C   C610      1.0  0.12483  0.23887  0.70511  1.0000
  H   H1014     1.0  0.19603  0.26378  0.70524  1.0000
  N   N37       1.0  0.16097  0.18583  0.66908  1.0000
  C   C611      1.0  0.17557  0.18558  0.67550  1.0000
  C   C612      1.0  0.15613  0.16786  0.67369  1.0000
  C   C613      1.0  0.14526  0.20049  0.67253  1.0000
  C   C614      1.0  0.16850  0.18922  0.65491  1.0000
  C   C615      1.0  0.18354  0.20237  0.67141  1.0000
  C   C616      1.0  0.14874  0.16231  0.68805  1.0000
  C   C617      1.0  0.12793  0.20175  0.66829  1.0000
  C   C618      1.0  0.16080  0.18146  0.64684  1.0000
  H   H1015     1.0  0.17066  0.18374  0.68594  1.0000
  H   H1016     1.0  0.18698  0.17414  0.67388  1.0000
  H   H1017     1.0  0.16804  0.15735  0.67104  1.0000
  H   H1018     1.0  0.14587  0.16686  0.66902  1.0000
  H   H1019     1.0  0.14164  0.19950  0.68294  1.0000
  H   H1020     1.0  0.14886  0.21366  0.66842  1.0000
  H   H1021     1.0  0.16704  0.20370  0.65080  1.0000
  H   H1022     1.0  0.18323  0.18356  0.65276  1.0000
  H   H1023     1.0  0.19481  0.19999  0.67623  1.0000
  H   H1024     1.0  0.18916  0.20564  0.66108  1.0000
  H   H1025     1.0  0.17362  0.21402  0.67438  1.0000
  H   H1026     1.0  0.15909  0.15992  0.69363  1.0000
  H   H1027     1.0  0.13662  0.17190  0.69154  1.0000
  H   H1028     1.0  0.14462  0.14947  0.68997  1.0000
  H   H1029     1.0  0.12300  0.18928  0.67164  1.0000
  H   H1030     1.0  0.12948  0.20632  0.65789  1.0000
  H   H1031     1.0  0.11709  0.21194  0.67249  1.0000
  H   H1032     1.0  0.16498  0.16677  0.64865  1.0000
  H   H1033     1.0  0.16627  0.18641  0.63664  1.0000
  H   H1034     1.0  0.14602  0.18533  0.64831  1.0000
  C   C619      1.0  0.20566  0.46028  0.77382  1.0000
  H   H1035     1.0  0.19178  0.23331  0.71865  1.0000
  H   H1036     1.0  0.17266  0.24810  0.71345  1.0000
  N   N38       1.0  0.27232  0.27121  0.75039  1.0000
  C   C620      1.0  0.28546  0.27449  0.75665  1.0000
  C   C621      1.0  0.25543  0.26929  0.76042  1.0000
  C   C622      1.0  0.26858  0.28719  0.73988  1.0000
  C   C623      1.0  0.28093  0.25473  0.74518  1.0000
  C   C624      1.0  0.30324  0.27862  0.74785  1.0000
  C   C625      1.0  0.25707  0.25261  0.77117  1.0000
  C   C626      1.0  0.25096  0.29056  0.73536  1.0000
  C   C627      1.0  0.26901  0.24716  0.74007  1.0000
  H   H1037     1.0  0.27914  0.28577  0.76150  1.0000
  H   H1038     1.0  0.28943  0.26287  0.76413  1.0000
  H   H1039     1.0  0.24418  0.26900  0.75645  1.0000
  H   H1040     1.0  0.25043  0.28112  0.76479  1.0000
  H   H1041     1.0  0.26810  0.29959  0.74276  1.0000
  H   H1042     1.0  0.27971  0.28658  0.73134  1.0000
  H   H1043     1.0  0.29242  0.25719  0.73714  1.0000
  H   H1044     1.0  0.28731  0.24385  0.75221  1.0000
  H   H1045     1.0  0.31146  0.28093  0.75362  1.0000
  H   H1046     1.0  0.31136  0.26735  0.74347  1.0000
  H   H1047     1.0  0.30106  0.29084  0.74043  1.0000
  H   H1048     1.0  0.31867  0.10093  0.59138  1.0000
  H   H1049     1.0  0.25793  0.11872  0.66763  1.0000
  H   H1050     1.0  0.19216  0.48671  0.77597  1.0000
  H   H1051     1.0  0.24935  0.27898  0.73258  1.0000
  H   H1052     1.0  0.25098  0.30162  0.72688  1.0000
  H   H1053     1.0  0.23909  0.29502  0.74261  1.0000
  H   H1054     1.0  0.27054  0.25218  0.72967  1.0000
  H   H1055     1.0  0.25467  0.24977  0.74472  1.0000
  H   H1056     1.0  0.27331  0.23248  0.74192  1.0000
  H   H1057     1.0  0.06385  0.16349  0.68018  1.0000
  H   H1058     1.0  0.26056  0.03669  0.65836  1.0000
  C   C628      1.0  0.06274  0.40819  0.59109  1.0000
  H   H1059     1.0  0.25165  0.05795  0.64980  1.0000
  H   H1060     1.0  0.04774  0.13405  0.66792  1.0000
  C   C629      1.0  0.02622  0.29521  0.70219  1.0000
  S   S204      1.0  0.43433  0.31660  0.78038  1.0000
  H   H1061     1.0  0.24211  0.03001  0.64396  1.0000
  H   H1062     1.0  0.26053  0.24024  0.76759  1.0000
  H   H1063     1.0  0.47599  0.21831  0.77340  1.0000
  H   H1064     1.0  0.10511  0.47235  0.59013  1.0000
  H   H1065     1.0  0.12874  0.34649  0.74418  1.0000
  H   H1066     1.0  0.48546  0.23951  0.78026  1.0000
  H   H1067     1.0  0.31875  0.32084  0.78124  1.0000
  C   C630      1.0  0.04659  0.41995  0.59455  1.0000
  H   H1068     1.0  0.26139  0.15538  0.61961  1.0000
  H   H1069     1.0  0.46640  0.36481  0.78525  1.0000
  H   H1070     1.0  0.47884  0.18905  0.78342  1.0000
  S   S205      1.0  0.01287  0.20645  0.67371  1.0000
  H   H1071     1.0  0.06220  0.27403  0.66082  1.0000
  H   H1072     1.0  0.45734  0.23498  0.77738  1.0000
  C   C631      1.0  0.12304  0.22790  0.72788  1.0000
  H   H1073     1.0  0.23779  0.41912  0.77114  1.0000
  H   H1074     1.0  0.17392  0.24495  0.72952  1.0000
  H   H1075     1.0  0.24100  0.46328  0.76959  1.0000
  C   C632      1.0  0.02491  0.31225  0.66661  1.0000
  C   C633      1.0  0.21442  0.07052  0.61376  1.0000
  C   C634      1.0  0.00404  0.33079  0.61888  1.0000
  C   C635      1.0  0.20588  0.48012  0.77150  1.0000
  C   C636      1.0  0.07776  0.14463  0.65229  1.0000
  H   H1076     1.0  0.35715  0.99501  0.58813  1.0000
  C   C637      1.0  0.26802  0.11506  0.65935  1.0000
  C   C638      1.0  0.26361  0.16154  0.63712  1.0000
  H   H1077     1.0  0.09486  0.22824  0.71663  1.0000
  H   H1078     1.0  0.09376  0.23772  0.73431  1.0000
  H   H1079     1.0  0.13382  0.35319  0.63134  1.0000
  H   H1080     1.0  0.18729  0.26759  0.73823  1.0000
  H   H1081     1.0  0.22361  0.24486  0.74384  1.0000
  H   H1082     1.0  0.10584  0.25487  0.72522  1.0000
  H   H1083     1.0  0.38005  0.28622  0.75886  1.0000
  H   H1084     1.0  0.20875  0.07316  0.60521  1.0000
  H   H1085     1.0  0.26036  0.47131  0.77809  1.0000
  H   H1086     1.0  0.18077  0.27384  0.71736  1.0000
  H   H1087     1.0  0.36071  0.16679  0.71451  1.0000
  H   H1088     1.0  0.28480  0.07538  0.66971  1.0000
  H   H1089     1.0  0.02666  0.34211  0.67374  1.0000
  H   H1090     1.0  0.07562  0.12107  0.66807  1.0000
  C   C639      1.0  0.18119  0.01157  0.65057  1.0000
  H   H1091     1.0  0.32043  0.01114  0.61461  1.0000
  N   N39       1.0  0.15472  0.35928  0.75971  1.0000
  C   C640      1.0  0.17457  0.35890  0.75629  1.0000
  C   C641      1.0  0.15043  0.34730  0.77255  1.0000
  C   C642      1.0  0.14393  0.37776  0.76039  1.0000
  C   C643      1.0  0.15001  0.35318  0.74966  1.0000
  C   C644      1.0  0.18119  0.37157  0.74382  1.0000
  C   C645      1.0  0.15767  0.32725  0.77320  1.0000
  C   C646      1.0  0.14910  0.38717  0.76880  1.0000
  H   H1092     1.0  0.17899  0.36167  0.76404  1.0000
  H   H1093     1.0  0.18241  0.34545  0.75527  1.0000
  H   H1094     1.0  0.25584  0.07331  0.68625  1.0000
  H   H1095     1.0  0.31725  0.35571  0.76450  1.0000
  N   N40       1.0  0.34922  0.00644  0.61187  1.0000
  H   H1096     1.0  0.12943  0.37765  0.76419  1.0000
  H   H1097     1.0  0.15228  0.36261  0.74037  1.0000
  H   H1098     1.0  0.15900  0.34032  0.74803  1.0000
  H   H1099     1.0  0.17448  0.38562  0.74371  1.0000
  H   H1100     1.0  0.19575  0.37072  0.74265  1.0000
  H   H1101     1.0  0.00729  0.29333  0.67039  1.0000
  H   H1102     1.0  0.03407  0.28138  0.70310  1.0000
  H   H1103     1.0  0.00774  0.27590  0.59969  1.0000
  H   H1104     1.0  0.00262  0.37664  0.62343  1.0000
  H   H1105     1.0  0.16286  0.38970  0.76511  1.0000
  S   S206      1.0  0.25928  0.43140  0.78249  1.0000
  C   C647      1.0  0.34018  0.34322  0.77394  1.0000
  C   C648      1.0  0.38627  0.27915  0.73605  1.0000
  C   C649      1.0  0.38538  0.31076  0.72794  1.0000
  C   C650      1.0  0.39982  0.27167  0.72497  1.0000
  C   C651      1.0  0.38573  0.32931  0.72925  1.0000
  H   H1106     1.0  0.37279  0.28170  0.73387  1.0000
  H   H1107     1.0  0.41774  0.29381  0.72996  1.0000
  H   H1108     1.0  0.39522  0.30863  0.71901  1.0000
  H   H1109     1.0  0.37230  0.31151  0.72567  1.0000
  H   H1110     1.0  0.40026  0.28142  0.71584  1.0000
  H   H1111     1.0  0.41351  0.26650  0.72692  1.0000
  H   H1112     1.0  0.39555  0.26016  0.72384  1.0000
  H   H1113     1.0  0.40832  0.29860  0.75747  1.0000
  H   H1114     1.0  0.39947  0.33200  0.72557  1.0000
  H   H1115     1.0  0.38069  0.33153  0.73901  1.0000
  H   H1116     1.0  0.02495  0.39241  0.59984  1.0000
  N   N41       1.0  0.22124  0.05089  0.61823  1.0000
  C   C652      1.0  0.15808  0.21178  0.71197  1.0000
  C   C653      1.0  0.23687  0.04478  0.60810  1.0000
  H   H1117     1.0  0.45800  0.18728  0.77313  1.0000
  C   C654      1.0  0.20601  0.04147  0.62082  1.0000
  H   H1118     1.0  0.23346  0.06320  0.59003  1.0000
  H   H1119     1.0  0.13985  0.40032  0.76892  1.0000
  H   H1120     1.0  0.03443  0.25633  0.60343  1.0000
  C   C655      1.0  0.21099  0.02196  0.61948  1.0000
  H   H1121     1.0  0.05301  0.28101  0.68455  1.0000
  H   H1122     1.0  0.24838  0.05078  0.60735  1.0000
  H   H1123     1.0  0.24213  0.03027  0.61049  1.0000
  H   H1124     1.0  0.17984  0.36764  0.73543  1.0000
  H   H1125     1.0  0.33212  0.99823  0.60331  1.0000
  H   H1126     1.0  0.19648  0.04850  0.61446  1.0000
  Fe  Fe105     1.0  0.34670  0.21212  0.77742  1.0000
  C   C656      1.0  0.01396  0.24573  0.61924  1.0000
  H   H1127     1.0  0.34283  0.06555  0.58883  1.0000
  C   C657      1.0  0.08490  0.44441  0.58947  1.0000
  C   C658      1.0  0.04604  0.28640  0.67653  1.0000
  C   C659      1.0  0.24767  0.15328  0.65900  1.0000
  H   H1128     1.0  0.16194  0.20868  0.72127  1.0000
  H   H1129     1.0  0.36496  0.14375  0.68034  1.0000
  H   H1130     1.0  0.45812  0.20988  0.76429  1.0000
  H   H1131     1.0  0.07415  0.28550  0.66639  1.0000
  N   N42       1.0  0.12126  0.32174  0.64631  1.0000
  C   C660      1.0  0.10772  0.31060  0.65395  1.0000
  C   C661      1.0  0.13061  0.31458  0.63453  1.0000
  C   C662      1.0  0.11108  0.34061  0.64289  1.0000
  C   C663      1.0  0.13411  0.32043  0.65444  1.0000
  C   C664      1.0  0.09446  0.31748  0.66538  1.0000
  C   C665      1.0  0.14153  0.29534  0.63672  1.0000
  C   C666      1.0  0.12001  0.35296  0.63118  1.0000
  C   C667      1.0  0.15021  0.32944  0.64825  1.0000
  H   H1132     1.0  0.09937  0.30928  0.64782  1.0000
  H   H1133     1.0  0.11453  0.29691  0.65785  1.0000
  H   H1134     1.0  0.13994  0.32276  0.62794  1.0000
  H   H1135     1.0  0.12067  0.31522  0.62898  1.0000
  H   H1136     1.0  0.09785  0.34097  0.64103  1.0000
  H   H1137     1.0  0.10774  0.34713  0.65101  1.0000
  H   H1138     1.0  0.12697  0.32654  0.66268  1.0000
  H   H1139     1.0  0.13930  0.30645  0.65894  1.0000
  H   H1140     1.0  0.10131  0.31933  0.67215  1.0000
  H   H1141     1.0  0.08504  0.33004  0.66239  1.0000
  H   H1142     1.0  0.08628  0.30752  0.67074  1.0000
  C   C668      1.0  0.19951  0.07982  0.62338  1.0000
  H   H1143     1.0  0.13281  0.28571  0.64168  1.0000
  H   H1144     1.0  0.14831  0.29195  0.62736  1.0000
  H   H1145     1.0  0.11201  0.36672  0.63087  1.0000
  H   H1146     1.0  0.28473  0.07865  0.68479  1.0000
  H   H1147     1.0  0.06966  0.18717  0.63832  1.0000
  H   H1148     1.0  0.14644  0.34363  0.64882  1.0000
  H   H1149     1.0  0.15623  0.32819  0.63835  1.0000
  H   H1150     1.0  0.16117  0.32279  0.65346  1.0000
  C   C669      1.0  0.45007  0.20107  0.77164  1.0000
  H   H1151     1.0  0.15895  0.22564  0.70736  1.0000
  H   H1152     1.0  0.24162  0.25314  0.72490  1.0000
  C   C670      1.0  0.35683  0.30215  0.75155  1.0000
  H   H1153     1.0  0.13467  0.24605  0.70567  1.0000
  H   H1154     1.0  0.16832  0.20361  0.70570  1.0000
  H   H1155     1.0  0.00530  0.39878  0.61698  1.0000
  H   H1156     1.0  0.01361  0.32805  0.61034  1.0000
  H   H1157     1.0  0.01435  0.29514  0.71020  1.0000
  H   H1158     1.0  0.34533  0.16005  0.67752  1.0000
  H   H1159     1.0  0.29010  0.03104  0.69428  1.0000
  H   H1160     1.0  0.13845  0.19633  0.72176  1.0000
  H   H1161     1.0  0.05857  0.29748  0.65650  1.0000
  H   H1162     1.0  0.19779  0.04177  0.63052  1.0000
  C   C671      1.0  0.06907  0.17750  0.63312  1.0000
  H   H1163     1.0  0.10781  0.24482  0.74112  1.0000
  H   H1164     1.0  0.25212  0.16217  0.67431  1.0000
  N   N43       1.0  0.05877  0.15545  0.65390  1.0000
  C   C672      1.0  0.23597  0.02951  0.63630  1.0000
  H   H1165     1.0  0.12070  0.36392  0.75273  1.0000
  H   H1166     1.0  0.34267  0.18459  0.71968  1.0000
  H   H1167     1.0  0.08277  0.16974  0.63008  1.0000
  H   H1168     1.0  0.02240  0.16257  0.66721  1.0000
  H   H1169     1.0  0.30623  0.13636  0.70582  1.0000
  H   H1170     1.0  0.12892  0.24837  0.68474  1.0000
  C   C673      1.0  0.05604  0.16865  0.66198  1.0000
  H   H1171     1.0  0.15220  0.29363  0.64189  1.0000
  C   C674      1.0  0.31575  0.14073  0.70938  1.0000
  H   H1172     1.0  0.31684  0.16096  0.69224  1.0000
  H   H1173     1.0  0.08760  0.15342  0.64881  1.0000
  H   H1174     1.0  0.02108  0.15920  0.65219  1.0000
  H   H1175     1.0  0.26688  0.25215  0.77668  1.0000
  H   H1176     1.0  0.00958  0.31458  0.69028  1.0000
  N   N44       1.0  0.12351  0.22285  0.71578  1.0000
  C   C675      1.0  0.28260  0.01831  0.61394  1.0000
  H   H1177     1.0  0.02560  0.20512  0.64695  1.0000
  C   C676      1.0  0.27239  0.13129  0.64896  1.0000
  C   C677      1.0  0.36590  0.00534  0.60143  1.0000
  H   H1178     1.0  0.03811  0.27638  0.67751  1.0000
  N   N45       1.0  0.03402  0.30423  0.67769  1.0000
  H   H1179     1.0  0.03175  0.26366  0.61784  1.0000
  N   N46       1.0  0.33346  0.16561  0.70318  1.0000
  C   C678      1.0  0.04538  0.31633  0.67810  1.0000
  C   C679      1.0  0.33136  0.18527  0.69778  1.0000
  H   H1180     1.0  0.37938  0.30910  0.75450  1.0000
  H   H1181     1.0  0.23831  0.16631  0.65696  1.0000
  H   H1182     1.0  0.21874  0.04764  0.69493  1.0000
  S   S207      1.0  0.27990  0.01135  0.60126  1.0000
  H   H1183     1.0  0.36408  0.10096  0.60321  1.0000
  C   C680      1.0  0.33328  0.16255  0.71712  1.0000
  H   H1184     1.0  0.26949  0.16467  0.66042  1.0000
  C   C681      1.0  0.36831  0.99206  0.59307  1.0000
  H   H1185     1.0  0.05391  0.31001  0.68523  1.0000
  H   H1186     1.0  0.05511  0.31879  0.66894  1.0000
  H   H1187     1.0  0.22342  0.27805  0.72161  1.0000
  C   C682      1.0  0.19944  0.25713  0.73594  1.0000
  C   C683      1.0  0.21922  0.28332  0.70281  1.0000
  C   C684      1.0  0.37712  0.29816  0.75125  1.0000
  H   H1188     1.0  0.24722  0.23081  0.72318  1.0000
  N   N47       1.0  0.22006  0.48435  0.77626  1.0000
  H   H1189     1.0  0.28020  0.10775  0.66307  1.0000
  H   H1190     1.0  0.11173  0.18943  0.72765  1.0000
  H   H1191     1.0  0.04487  0.34274  0.68000  1.0000
  H   H1192     1.0  0.37655  0.33946  0.72368  1.0000
  H   H1193     1.0  0.05624  0.15624  0.63493  1.0000
  H   H1194     1.0  0.21858  0.45234  0.76959  1.0000
  H   H1195     1.0  0.01181  0.26235  0.63822  1.0000
  H   H1196     1.0  0.04450  0.17982  0.66013  1.0000
  N   N48       1.0  0.26341  0.04909  0.67928  1.0000
  C   C685      1.0  0.24760  0.04142  0.68742  1.0000
  C   C686      1.0  0.27949  0.03416  0.67723  1.0000
  C   C687      1.0  0.25969  0.05932  0.66651  1.0000
  C   C688      1.0  0.26699  0.06147  0.68586  1.0000
  C   C689      1.0  0.22962  0.05490  0.68977  1.0000
  C   C690      1.0  0.28633  0.02298  0.68920  1.0000
  C   C691      1.0  0.25208  0.04983  0.65949  1.0000
  C   C692      1.0  0.28430  0.06864  0.67975  1.0000
  H   H1197     1.0  0.24544  0.03109  0.68340  1.0000
  H   H1198     1.0  0.25015  0.03452  0.69699  1.0000
  H   H1199     1.0  0.29102  0.03922  0.67036  1.0000
  H   H1200     1.0  0.27661  0.02468  0.67282  1.0000
  H   H1201     1.0  0.02660  0.33374  0.69046  1.0000
  C   C693      1.0  0.41621  0.38283  0.77662  1.0000
  H   H1202     1.0  0.34394  0.33233  0.76873  1.0000
  H   H1203     1.0  0.32501  0.37109  0.77000  1.0000
  H   H1204     1.0  0.08600  0.45273  0.59550  1.0000
  C   C694      1.0  0.00884  0.33794  0.62725  1.0000
  H   H1205     1.0  0.29095  0.00205  0.64357  1.0000
  H   H1206     1.0  0.43352  0.22081  0.78185  1.0000
  H   H1207     1.0  0.01278  0.40517  0.58766  1.0000
  H   H1208     1.0  0.15162  0.32196  0.76756  1.0000
  C   C695      1.0  0.01965  0.30195  0.68962  1.0000
  C   C696      1.0  0.01699  0.29962  0.66252  1.0000
  H   H1209     1.0  0.43019  0.38427  0.77525  1.0000
  H   H1210     1.0  0.28399  0.99257  0.62646  1.0000
  H   H1211     1.0  0.01219  0.19719  0.63223  1.0000
  H   H1212     1.0  0.02717  0.38412  0.58623  1.0000
  H   H1213     1.0  0.13567  0.34936  0.77640  1.0000
  H   H1214     1.0  0.34209  0.09571  0.58972  1.0000
  H   H1215     1.0  0.15596  0.35060  0.77956  1.0000
  H   H1216     1.0  0.41588  0.36865  0.77815  1.0000
  H   H1217     1.0  0.17243  0.32390  0.77017  1.0000
  H   H1218     1.0  0.30492  0.34115  0.78337  1.0000
  C   C697      1.0  0.18561  0.39380  0.78089  1.0000
  H   H1219     1.0  0.02766  0.28930  0.65842  1.0000
  C   C698      1.0  0.44283  0.20777  0.78409  1.0000
  H   H1220     1.0  0.00772  0.36826  0.60435  1.0000
  H   H1221     1.0  0.23063  0.99600  0.66363  1.0000
  H   H1222     1.0  0.37816  0.00148  0.60542  1.0000
  Fe  Fe106     1.0  0.42678  0.29070  0.78251  1.0000
  C   C699      1.0  0.35326  0.39541  0.78246  1.0000
  H   H1223     1.0  0.37580  0.01482  0.62095  1.0000
  H   H1224     1.0  0.02711  0.44278  0.58797  1.0000
  H   H1225     1.0  0.35299  0.34694  0.77343  1.0000
  C   C700      1.0  0.29414  0.29704  0.77965  1.0000
  H   H1226     1.0  0.34071  0.02612  0.58782  1.0000
  C   C701      1.0  0.30509  0.28020  0.78215  1.0000
  C   C702      1.0  0.00310  0.20235  0.66264  1.0000
  H   H1227     1.0  0.35908  0.00811  0.63492  1.0000
  H   H1228     1.0  0.26520  0.48282  0.76183  1.0000
  S   S208      1.0  0.39744  0.30236  0.78443  1.0000
  H   H1229     1.0  0.18908  0.48335  0.83047  1.0000
  H   H1230     1.0  0.04743  0.44436  0.85272  1.0000
  C   C703      1.0  0.43985  0.99538  0.92955  1.0000
  Fe  Fe107     1.0  0.03548  0.44785  0.93263  1.0000
  S   S209      1.0  0.30275  0.44455  0.78710  1.0000
  S   S210      1.0  0.03888  0.43421  0.95249  1.0000
  Fe  Fe108     1.0  0.02406  0.44300  0.91015  1.0000
  H   H1231     1.0  0.33858  0.23582  0.83682  1.0000
  H   H1232     1.0  0.46546  0.27470  0.83457  1.0000
  S   S211      1.0  0.04974  0.43331  0.91710  1.0000
  C   C704      1.0  0.04657  0.47523  0.96350  1.0000
  Fe  Fe109     1.0  0.45086  0.05569  0.95273  1.0000
  S   S212      1.0  0.43220  0.08054  0.94548  1.0000
  S   S213      1.0  0.47125  0.05282  0.96397  1.0000
  Fe  Fe110     1.0  0.43807  0.03254  0.94104  1.0000
  S   S214      1.0  0.41803  0.05522  0.93264  1.0000
  H   H1233     1.0  0.48132  0.11650  0.92831  1.0000
  Fe  Fe111     1.0  0.43980  0.07069  0.92745  1.0000
  S   S215      1.0  0.45062  0.08697  0.90858  1.0000
  Fe  Fe112     1.0  0.41216  0.06310  0.95141  1.0000
  S   S216      1.0  0.38419  0.07262  0.96172  1.0000
  S   S217      1.0  0.46028  0.04729  0.93422  1.0000
  S   S218      1.0  0.43026  0.03905  0.96027  1.0000
  H   H1234     1.0  0.00268  0.43254  0.96353  1.0000
  Fe  Fe113     1.0  0.40700  0.15660  0.86160  1.0000
  S   S219      1.0  0.43015  0.15008  0.84562  1.0000
  S   S220      1.0  0.39426  0.13608  0.87667  1.0000
  Fe  Fe114     1.0  0.40772  0.19568  0.85465  1.0000
  Fe  Fe115     1.0  0.44238  0.16816  0.85124  1.0000
  S   S221      1.0  0.47038  0.16229  0.85431  1.0000
  S   S222      1.0  0.39196  0.18014  0.84962  1.0000
  S   S223      1.0  0.42040  0.17275  0.86808  1.0000
  H   H1235     1.0  0.23436  0.36857  0.81528  1.0000
  C   C705      1.0  0.39641  0.18754  0.79587  1.0000
  Fe  Fe116     1.0  0.13216  0.46936  0.82752  1.0000
  C   C706      1.0  0.17699  0.38290  0.79143  1.0000
  C   C707      1.0  0.42760  0.11689  0.98086  1.0000
  H   H1236     1.0  0.20326  0.44907  0.83082  1.0000
  S   S224      1.0  0.14453  0.44090  0.82651  1.0000
  C   C708      1.0  0.29734  0.26558  0.78847  1.0000
  C   C709      1.0  0.21086  0.43880  0.83692  1.0000
  C   C710      1.0  0.22925  0.43789  0.83539  1.0000
  H   H1237     1.0  0.40843  0.22888  0.83323  1.0000
  H   H1238     1.0  0.47405  0.16395  0.80061  1.0000
  C   C711      1.0  0.47038  0.19222  0.79254  1.0000
  H   H1239     1.0  0.45704  0.21400  0.80855  1.0000
  C   C712      1.0  0.35764  0.37438  0.80193  1.0000
  H   H1240     1.0  0.41956  0.00031  0.96500  1.0000
  H   H1241     1.0  0.39578  0.39048  0.81907  1.0000
  H   H1242     1.0  0.41977  0.01846  0.92425  1.0000
  H   H1243     1.0  0.35324  0.21637  0.81077  1.0000
  H   H1244     1.0  0.46730  0.15866  0.89233  1.0000
  C   C713      1.0  0.27859  0.26771  0.79172  1.0000
  C   C714      1.0  0.46212  0.24897  0.81952  1.0000
  C   C715      1.0  0.44667  0.22754  0.84511  1.0000
  H   H1245     1.0  0.23862  0.45672  0.85115  1.0000
  H   H1246     1.0  0.00581  0.40388  0.93479  1.0000
  C   C716      1.0  0.30469  0.32189  0.80059  1.0000
  C   C717      1.0  0.19335  0.39674  0.82303  1.0000
  H   H1247     1.0  0.43370  0.25177  0.86200  1.0000
  H   H1248     1.0  0.32453  0.26059  0.80799  1.0000
  H   H1249     1.0  0.35602  0.25505  0.79719  1.0000
  C   C718      1.0  0.36498  0.18625  0.80047  1.0000
  C   C719      1.0  0.43457  0.10140  0.90034  1.0000
  C   C720      1.0  0.44045  0.11132  0.88827  1.0000
  C   C721      1.0  0.42802  0.12238  0.88120  1.0000
  C   C722      1.0  0.40964  0.12333  0.88604  1.0000
  C   C723      1.0  0.40369  0.11348  0.89815  1.0000
  C   C724      1.0  0.41617  0.10258  0.90535  1.0000
  H   H1250     1.0  0.45466  0.11030  0.88426  1.0000
  H   H1251     1.0  0.43271  0.12990  0.87186  1.0000
  H   H1252     1.0  0.38945  0.11425  0.90192  1.0000
  H   H1253     1.0  0.41154  0.09497  0.91468  1.0000
  H   H1254     1.0  0.18470  0.39445  0.81758  1.0000
  H   H1255     1.0  0.45985  0.13294  0.91147  1.0000
  C   C725      1.0  0.23913  0.42489  0.84349  1.0000
  C   C726      1.0  0.39801  0.23990  0.83588  1.0000
  H   H1256     1.0  0.36921  0.25318  0.86183  1.0000
  H   H1257     1.0  0.46126  0.04310  0.89882  1.0000
  C   C727      1.0  0.37582  0.25357  0.85198  1.0000
  C   C728      1.0  0.20244  0.42639  0.84632  1.0000
  H   H1258     1.0  0.39208  0.13219  0.98026  1.0000
  C   C729      1.0  0.04476  0.44685  0.96073  1.0000
  C   C730      1.0  0.10774  0.46060  0.87276  1.0000
  H   H1259     1.0  0.33628  0.27049  0.82902  1.0000
  H   H1260     1.0  0.49488  0.13631  0.88167  1.0000
  H   H1261     1.0  0.49622  0.31783  0.79055  1.0000
  C   C731      1.0  0.04229  0.46521  0.95667  1.0000
  H   H1262     1.0  0.01319  0.43957  0.97858  1.0000
  H   H1263     1.0  0.24619  0.40428  0.80593  1.0000
  H   H1264     1.0  0.39828  0.42110  0.80350  1.0000
  C   C732      1.0  0.09016  0.46568  0.87946  1.0000
  H   H1265     1.0  0.46564  0.10621  0.92517  1.0000
  C   C733      1.0  0.11183  0.46478  0.85948  1.0000
  C   C734      1.0  0.09841  0.47436  0.85285  1.0000
  S   S225      1.0  0.48740  0.37582  0.79778  1.0000
  H   H1266     1.0  0.01959  0.43974  0.86902  1.0000
  H   H1267     1.0  0.46297  0.23512  0.81915  1.0000
  H   H1268     1.0  0.45476  0.15828  0.96160  1.0000
  H   H1269     1.0  0.24401  0.48445  0.81694  1.0000
  C   C735      1.0  0.47750  0.35721  0.80194  1.0000
  H   H1270     1.0  0.39592  0.02700  0.96622  1.0000
  C   C736      1.0  0.47905  0.07226  0.96085  1.0000
  C   C737      1.0  0.46748  0.08886  0.95879  1.0000
  H   H1271     1.0  0.48127  0.01620  0.96509  1.0000
  H   H1272     1.0  0.45347  0.08977  0.95925  1.0000
  C   C738      1.0  0.36548  0.17956  0.81332  1.0000
  H   H1273     1.0  0.44942  0.02626  0.89925  1.0000
  H   H1274     1.0  0.12529  0.46024  0.85442  1.0000
  H   H1275     1.0  0.44721  0.03425  0.91306  1.0000
  C   C739      1.0  0.39764  0.07787  0.98033  1.0000
  Fe  Fe117     1.0  0.01901  0.47937  0.91449  1.0000
  H   H1276     1.0  0.48105  0.01767  0.94931  1.0000
  C   C740      1.0  0.22324  0.40059  0.82216  1.0000
  C   C741      1.0  0.48661  0.00874  0.95736  1.0000
  H   H1277     1.0  0.43764  0.09029  0.86509  1.0000
  H   H1278     1.0  0.44696  0.07011  0.85910  1.0000
  Fe  Fe118     1.0  0.05652  0.45911  0.90569  1.0000
  H   H1279     1.0  0.49190  0.29608  0.80924  1.0000
  H   H1280     1.0  0.46124  0.08207  0.86163  1.0000
  H   H1281     1.0  0.44985  0.07585  0.88464  1.0000
  H   H1282     1.0  0.37737  0.41880  0.81443  1.0000
  C   C742      1.0  0.49711  0.12326  0.88838  1.0000
  H   H1283     1.0  0.21993  0.42481  0.79949  1.0000
  C   C743      1.0  0.37053  0.26819  0.84266  1.0000
  S   S226      1.0  0.30134  0.44162  0.81733  1.0000
  C   C744      1.0  0.38946  0.23937  0.84862  1.0000
  Fe  Fe119     1.0  0.31237  0.42383  0.80335  1.0000
  C   C745      1.0  0.41712  0.35742  0.81679  1.0000
  Fe  Fe120     1.0  0.16716  0.44591  0.83262  1.0000
  H   H1284     1.0  0.33980  0.31887  0.80417  1.0000
  H   H1285     1.0  0.23564  0.44749  0.82814  1.0000
  Fe  Fe121     1.0  0.41630  0.17506  0.83416  1.0000
  N   N49       1.0  0.44722  0.24677  0.84328  1.0000
  H   H1286     1.0  0.23803  0.48742  0.86251  1.0000
  H   H1287     1.0  0.41680  0.13057  0.95375  1.0000
  H   H1288     1.0  0.03986  0.41908  0.85455  1.0000
  C   C746      1.0  0.16487  0.39037  0.80123  1.0000
  H   H1289     1.0  0.41984  0.22961  0.80298  1.0000
  C   C747      1.0  0.43180  0.14586  0.96646  1.0000
  H   H1290     1.0  0.22938  0.47919  0.83203  1.0000
  C   C748      1.0  0.21879  0.47485  0.78997  1.0000
  H   H1291     1.0  0.47504  0.25034  0.82081  1.0000
  H   H1292     1.0  0.48674  0.09697  0.90680  1.0000
  H   H1293     1.0  0.46429  0.24206  0.85650  1.0000
  H   H1294     1.0  0.02957  0.40320  0.86647  1.0000
  H   H1295     1.0  0.49726  0.26708  0.79801  1.0000
  Fe  Fe122     1.0  0.39675  0.29622  0.80514  1.0000
  H   H1296     1.0  0.43475  0.28272  0.84650  1.0000
  H   H1297     1.0  0.43166  0.11028  0.97270  1.0000
  S   S227      1.0  0.08535  0.45943  0.89605  1.0000
  H   H1298     1.0  0.42425  0.15721  0.96039  1.0000
  H   H1299     1.0  0.21125  0.34751  0.82216  1.0000
  H   H1300     1.0  0.11143  0.47344  0.93122  1.0000
  Fe  Fe123     1.0  0.28988  0.46135  0.80168  1.0000
  H   H1301     1.0  0.07563  0.46317  0.93344  1.0000
  H   H1302     1.0  0.23702  0.45785  0.86715  1.0000
  H   H1303     1.0  0.46263  0.11981  0.90043  1.0000
  H   H1304     1.0  0.26887  0.48166  0.82531  1.0000
  C   C749      1.0  0.45924  0.34063  0.79725  1.0000
  C   C750      1.0  0.04730  0.44427  0.86268  1.0000
  C   C751      1.0  0.44494  0.15367  0.97026  1.0000
  H   H1305     1.0  0.29411  0.33211  0.80492  1.0000
  C   C752      1.0  0.32517  0.35311  0.79370  1.0000
  C   C753      1.0  0.16989  0.41959  0.78992  1.0000
  C   C754      1.0  0.47410  0.10431  0.95622  1.0000
  H   H1306     1.0  0.10002  0.42992  0.84786  1.0000
  S   S228      1.0  0.28848  0.41110  0.80916  1.0000
  N   N50       1.0  0.05839  0.42723  0.86879  1.0000
  C   C755      1.0  0.06246  0.43035  0.88030  1.0000
  C   C756      1.0  0.50204  0.19798  0.84262  1.0000
  C   C757      1.0  0.07533  0.42200  0.85932  1.0000
  S   S229      1.0  0.26428  0.45168  0.80718  1.0000
  C   C758      1.0  0.07586  0.41536  0.88693  1.0000
  C   C759      1.0  0.05328  0.46695  0.97446  1.0000
  S   S230      1.0  0.40206  0.32207  0.80545  1.0000
  C   C760      1.0  0.21998  0.37201  0.82005  1.0000
  H   H1307     1.0  0.06771  0.44264  0.87797  1.0000
  H   H1308     1.0  0.04996  0.43268  0.88765  1.0000
  C   C761      1.0  0.24045  0.48617  0.82685  1.0000
  C   C762      1.0  0.24348  0.39868  0.81625  1.0000
  H   H1309     1.0  0.08314  0.40872  0.86308  1.0000
  H   H1310     1.0  0.07207  0.42052  0.85066  1.0000
  C   C763      1.0  0.25710  0.47815  0.83276  1.0000
  H   H1311     1.0  0.46304  0.27241  0.85140  1.0000
  H   H1312     1.0  0.08923  0.41244  0.88061  1.0000
  H   H1313     1.0  0.07808  0.41973  0.89488  1.0000
  H   H1314     1.0  0.48687  0.34599  0.81930  1.0000
  H   H1315     1.0  0.37061  0.21133  0.82373  1.0000
  H   H1316     1.0  0.04469  0.48946  0.96031  1.0000
  H   H1317     1.0  0.08781  0.45825  0.94593  1.0000
  S   S231      1.0  0.18243  0.45436  0.81294  1.0000
  H   H1318     1.0  0.05687  0.39989  0.87732  1.0000
  H   H1319     1.0  0.33144  0.48427  0.82338  1.0000
  C   C764      1.0  0.36878  0.36189  0.79500  1.0000
  H   H1320     1.0  0.22014  0.36687  0.83030  1.0000
  C   C765      1.0  0.42409  0.27515  0.84877  1.0000
  S   S232      1.0  0.26208  0.42363  0.84187  1.0000
  H   H1321     1.0  0.48154  0.16832  0.97273  1.0000
  H   H1322     1.0  0.46536  0.11715  0.95437  1.0000
  S   S233      1.0  0.39607  0.22162  0.86062  1.0000
  C   C766      1.0  0.23285  0.46524  0.85814  1.0000
  H   H1323     1.0  0.11815  0.45301  0.87785  1.0000
  H   H1324     1.0  0.41191  0.07631  0.87481  1.0000
  H   H1325     1.0  0.39310  0.13150  0.95773  1.0000
  S   S234      1.0  0.10319  0.47931  0.83622  1.0000
  H   H1326     1.0  0.39304  0.06020  0.89522  1.0000
  H   H1327     1.0  0.03653  0.41474  0.88075  1.0000
  C   C767      1.0  0.05140  0.43853  0.97175  1.0000
  H   H1328     1.0  0.31557  0.47326  0.81179  1.0000
  H   H1329     1.0  0.09743  0.44932  0.93208  1.0000
  C   C768      1.0  0.39743  0.07253  0.89426  1.0000
  H   H1330     1.0  0.33902  0.28119  0.81239  1.0000
  C   C769      1.0  0.43107  0.25493  0.85229  1.0000
  C   C770      1.0  0.43171  0.04479  0.87973  1.0000
  C   C771      1.0  0.46749  0.35521  0.79403  1.0000
  H   H1331     1.0  0.43751  0.38351  0.79378  1.0000
  H   H1332     1.0  0.35474  0.20746  0.83858  1.0000
  C   C772      1.0  0.41500  0.07423  0.88428  1.0000
  S   S235      1.0  0.18073  0.36003  0.79241  1.0000
  H   H1333     1.0  0.44464  0.27005  0.82779  1.0000
  H   H1334     1.0  0.38784  0.24365  0.79549  1.0000
  H   H1335     1.0  0.25096  0.38476  0.81822  1.0000
  S   S236      1.0  0.15379  0.47350  0.83509  1.0000
  S   S237      1.0  0.03204  0.46771  0.89729  1.0000
  H   H1336     1.0  0.46023  0.05635  0.87869  1.0000
  C   C773      1.0  0.39320  0.25489  0.82658  1.0000
  C   C774      1.0  0.49715  0.07109  0.96030  1.0000
  C   C775      1.0  0.08087  0.47975  0.85954  1.0000
  H   H1337     1.0  0.39311  0.01575  0.95545  1.0000
  N   N51       1.0  0.48754  0.12484  0.90175  1.0000
  H   H1338     1.0  0.26923  0.47368  0.86079  1.0000
  H   H1339     1.0  0.19592  0.36649  0.81628  1.0000
  C   C776      1.0  0.44627  0.21624  0.85868  1.0000
  C   C777      1.0  0.38138  0.17725  0.81747  1.0000
  S   S238      1.0  0.44635  0.00373  0.94019  1.0000
  S   S239      1.0  0.45062  0.30961  0.81286  1.0000
  C   C778      1.0  0.07673  0.47538  0.87284  1.0000
  C   C779      1.0  0.08899  0.46130  0.93553  1.0000
  C   C780      1.0  0.40616  0.99848  0.97091  1.0000
  Fe  Fe124     1.0  0.43122  0.30881  0.80153  1.0000
  C   C781      1.0  0.14993  0.49029  0.86361  1.0000
  C   C782      1.0  0.05548  0.44858  0.97870  1.0000
  H   H1340     1.0  0.31276  0.22788  0.82026  1.0000
  H   H1341     1.0  0.30576  0.25259  0.79070  1.0000
  H   H1342     1.0  0.31389  0.34039  0.81341  1.0000
  C   C783      1.0  0.21548  0.39772  0.80284  1.0000
  H   H1343     1.0  0.37440  0.34898  0.79994  1.0000
  H   H1344     1.0  0.41930  0.24912  0.85332  1.0000
  C   C784      1.0  0.35136  0.30587  0.78871  1.0000
  C   C785      1.0  0.34478  0.32307  0.79383  1.0000
  H   H1345     1.0  0.20575  0.40406  0.86190  1.0000
  H   H1346     1.0  0.38168  0.17226  0.82739  1.0000
  H   H1347     1.0  0.42295  0.35978  0.79695  1.0000
  S   S240      1.0  0.17992  0.42611  0.84767  1.0000
  H   H1348     1.0  0.40701  0.36214  0.82482  1.0000
  H   H1349     1.0  0.43469  0.22645  0.84221  1.0000
  H   H1350     1.0  0.49717  0.01418  0.93101  1.0000
  H   H1351     1.0  0.35681  0.32837  0.79300  1.0000
  H   H1352     1.0  0.22949  0.39272  0.79798  1.0000
  C   C786      1.0  0.29009  0.47115  0.84394  1.0000
  H   H1353     1.0  0.05326  0.45575  0.86185  1.0000
  N   N52       1.0  0.41915  0.13626  0.97704  1.0000
  H   H1354     1.0  0.43362  0.25377  0.82774  1.0000
  H   H1355     1.0  0.41022  0.00477  0.91033  1.0000
  H   H1356     1.0  0.08154  0.44819  0.84971  1.0000
  H   H1357     1.0  0.38655  0.08376  0.89133  1.0000
  H   H1358     1.0  0.44536  0.20262  0.85875  1.0000
  H   H1359     1.0  0.49736  0.10925  0.98486  1.0000
  H   H1360     1.0  0.40485  0.04054  0.88120  1.0000
  C   C787      1.0  0.37938  0.26897  0.83000  1.0000
  H   H1361     1.0  0.43077  0.05014  0.86965  1.0000
  C   C788      1.0  0.34153  0.22735  0.81218  1.0000
  H   H1362     1.0  0.34020  0.29957  0.78934  1.0000
  H   H1363     1.0  0.09963  0.48829  0.94826  1.0000
  H   H1364     1.0  0.05363  0.42427  0.97482  1.0000
  H   H1365     1.0  0.25950  0.46348  0.83420  1.0000
  H   H1366     1.0  0.21730  0.41502  0.82112  1.0000
  N   N53       1.0  0.21302  0.39174  0.81702  1.0000
  C   C789      1.0  0.40260  0.13731  0.97236  1.0000
  H   H1367     1.0  0.39973  0.36151  0.80401  1.0000
  H   H1368     1.0  0.43655  0.24208  0.79382  1.0000
  C   C790      1.0  0.01637  0.39195  0.97080  1.0000
  H   H1369     1.0  0.31722  0.28198  0.82228  1.0000
  H   H1370     1.0  0.45877  0.21484  0.86186  1.0000
  H   H1371     1.0  0.43435  0.22135  0.86562  1.0000
  H   H1372     1.0  0.32722  0.21521  0.83114  1.0000
  H   H1373     1.0  0.03693  0.47172  0.94833  1.0000
  Fe  Fe125     1.0  0.16697  0.48161  0.81473  1.0000
  H   H1374     1.0  0.41770  0.08703  0.88453  1.0000
  C   C791      1.0  0.46080  0.32805  0.80850  1.0000
  H   H1375     1.0  0.47006  0.18286  0.82886  1.0000
  H   H1376     1.0  0.48780  0.18848  0.97164  1.0000
  H   H1377     1.0  0.45852  0.22064  0.83903  1.0000
  H   H1378     1.0  0.35982  0.27906  0.84530  1.0000
  H   H1379     1.0  0.48764  0.28960  0.79215  1.0000
  H   H1380     1.0  0.42180  0.02054  0.88387  1.0000
  C   C792      1.0  0.21042  0.36085  0.81580  1.0000
  H   H1381     1.0  0.02121  0.46244  0.86498  1.0000
  H   H1382     1.0  0.43066  0.35901  0.81669  1.0000
  C   C793      1.0  0.36869  0.09604  0.97724  1.0000
  C   C794      1.0  0.43331  0.23185  0.80242  1.0000
  C   C795      1.0  0.46448  0.24742  0.84624  1.0000
  C   C796      1.0  0.02748  0.44893  0.86959  1.0000
  H   H1383     1.0  0.35348  0.17653  0.82008  1.0000
  H   H1384     1.0  0.20701  0.39191  0.79928  1.0000
  C   C797      1.0  0.18762  0.38729  0.83695  1.0000
  Fe  Fe126     1.0  0.15866  0.45201  0.80684  1.0000
  H   H1385     1.0  0.42344  0.38711  0.81957  1.0000
  H   H1386     1.0  0.43267  0.23760  0.81053  1.0000
  H   H1387     1.0  0.49922  0.29040  0.82982  1.0000
  N   N54       1.0  0.43134  0.05950  0.88585  1.0000
  H   H1388     1.0  0.44486  0.03519  0.87911  1.0000
  C   C798      1.0  0.46166  0.14746  0.89229  1.0000
  H   H1389     1.0  0.26886  0.45725  0.85314  1.0000
  C   C799      1.0  0.44604  0.25549  0.82972  1.0000
  H   H1390     1.0  0.07055  0.40312  0.89113  1.0000
  C   C800      1.0  0.38354  0.08278  0.97392  1.0000
  H   H1391     1.0  0.39633  0.15133  0.96868  1.0000
  C   C801      1.0  0.22642  0.48204  0.79837  1.0000
  C   C802      1.0  0.23052  0.41295  0.85321  1.0000
  H   H1392     1.0  0.44479  0.38977  0.80996  1.0000
  C   C803      1.0  0.46764  0.13054  0.90199  1.0000
  C   C804      1.0  0.04843  0.41235  0.87296  1.0000
  N   N55       1.0  0.34587  0.24180  0.81635  1.0000
  C   C805      1.0  0.32919  0.25643  0.81711  1.0000
  C   C806      1.0  0.23835  0.48340  0.85370  1.0000
  C   C807      1.0  0.36053  0.24932  0.80632  1.0000
  C   C808      1.0  0.35092  0.23570  0.82913  1.0000
  C   C809      1.0  0.38695  0.41426  0.80608  1.0000
  H   H1393     1.0  0.31331  0.31422  0.80733  1.0000
  C   C810      1.0  0.37885  0.23658  0.80352  1.0000
  H   H1394     1.0  0.21176  0.42057  0.78748  1.0000
  H   H1395     1.0  0.37279  0.21734  0.83724  1.0000
  H   H1396     1.0  0.47622  0.23830  0.84161  1.0000
  C   C811      1.0  0.46920  0.26576  0.84329  1.0000
  C   C812      1.0  0.04247  0.40769  0.86245  1.0000
  C   C813      1.0  0.27057  0.47115  0.85126  1.0000
  H   H1397     1.0  0.36359  0.26039  0.80898  1.0000
  H   H1398     1.0  0.35787  0.24517  0.83051  1.0000
  H   H1399     1.0  0.31789  0.25173  0.82448  1.0000
  H   H1400     1.0  0.37805  0.22475  0.80057  1.0000
  H   H1401     1.0  0.43786  0.16538  0.97444  1.0000
  H   H1402     1.0  0.00451  0.38590  0.97365  1.0000
  C   C814      1.0  0.39252  0.01474  0.96560  1.0000
  H   H1403     1.0  0.01739  0.39985  0.96093  1.0000
  H   H1404     1.0  0.22209  0.39539  0.83253  1.0000
  H   H1405     1.0  0.38551  0.23258  0.81166  1.0000
  C   C815      1.0  0.32296  0.34953  0.80819  1.0000
  H   H1406     1.0  0.19661  0.42353  0.80198  1.0000
  H   H1407     1.0  0.40734  0.11291  0.96531  1.0000
  H   H1408     1.0  0.38987  0.38853  0.78845  1.0000
  H   H1409     1.0  0.42513  0.40564  0.79185  1.0000
  H   H1410     1.0  0.48794  0.21955  0.79214  1.0000
  H   H1411     1.0  0.15446  0.48290  0.87250  1.0000
  C   C816      1.0  0.47084  0.33002  0.81640  1.0000
  C   C817      1.0  0.41190  0.36605  0.80391  1.0000
  H   H1412     1.0  0.35525  0.37113  0.81218  1.0000
  H   H1413     1.0  0.37859  0.01491  0.97115  1.0000
  H   H1414     1.0  0.39854  0.07370  0.90365  1.0000
  H   H1415     1.0  0.49512  0.15017  0.89769  1.0000
  H   H1416     1.0  0.23807  0.40301  0.85958  1.0000
  C   C818      1.0  0.32599  0.21897  0.82112  1.0000
  C   C819      1.0  0.49326  0.17452  0.97063  1.0000
  H   H1417     1.0  0.17341  0.39337  0.84066  1.0000
  Fe  Fe127     1.0  0.27671  0.43072  0.82171  1.0000
  C   C820      1.0  0.48156  0.17904  0.84498  1.0000
  H   H1418     1.0  0.43185  0.06417  0.90378  1.0000
  H   H1419     1.0  0.42012  0.04774  0.90542  1.0000
  S   S241      1.0  0.43089  0.19258  0.83829  1.0000
  C   C821      1.0  0.39683  0.18137  0.80873  1.0000
  S   S242      1.0  0.14415  0.48011  0.80722  1.0000
  H   H1420     1.0  0.41235  0.03244  0.89593  1.0000
  H   H1421     1.0  0.09295  0.43677  0.86260  1.0000
  C   C822      1.0  0.49323  0.18438  0.84988  1.0000
  C   C823      1.0  0.44855  0.03830  0.90262  1.0000
  S   S243      1.0  0.42555  0.28212  0.80337  1.0000
  S   S244      1.0  0.01606  0.42239  0.90392  1.0000
  C   C824      1.0  0.21226  0.41358  0.85454  1.0000
  H   H1422     1.0  0.18827  0.37304  0.83784  1.0000
  H   H1423     1.0  0.02845  0.38097  0.97069  1.0000
  C   C825      1.0  0.44817  0.07790  0.86550  1.0000
  H   H1424     1.0  0.41808  0.34291  0.81859  1.0000
  C   C826      1.0  0.41670  0.03423  0.88556  1.0000
  H   H1425     1.0  0.15218  0.41438  0.80817  1.0000
  S   S245      1.0  0.41689  0.17923  0.81344  1.0000
  H   H1426     1.0  0.35779  0.09988  0.97230  1.0000
  H   H1427     1.0  0.18919  0.41122  0.82284  1.0000
  S   S246      1.0  0.23156  0.33743  0.78715  1.0000
  H   H1428     1.0  0.39984  0.25542  0.81675  1.0000
  H   H1429     1.0  0.27259  0.25632  0.79628  1.0000
  C   C827      1.0  0.43211  0.05293  0.89967  1.0000
  C   C828      1.0  0.47878  0.18724  0.83275  1.0000
  S   S247      1.0  0.24453  0.28658  0.79019  1.0000
  C   C829      1.0  0.08801  0.43510  0.85474  1.0000
  H   H1430     1.0  0.42716  0.40874  0.81086  1.0000
  H   H1431     1.0  0.41723  0.27876  0.84071  1.0000
  C   C830      1.0  0.44788  0.06704  0.87920  1.0000
  C   C831      1.0  0.33080  0.27336  0.82040  1.0000
  H   H1432     1.0  0.31708  0.36227  0.81135  1.0000
  H   H1433     1.0  0.00950  0.48850  0.93760  1.0000
  H   H1434     1.0  0.49685  0.03178  0.98152  1.0000
  H   H1435     1.0  0.46032  0.25729  0.81010  1.0000
  H   H1436     1.0  0.10070  0.47777  0.91833  1.0000
  H   H1437     1.0  0.21672  0.35942  0.80592  1.0000
  S   S248      1.0  0.37270  0.28742  0.81852  1.0000
  H   H1438     1.0  0.15811  0.38198  0.80938  1.0000
  C   C832      1.0  0.42636  0.00518  0.92300  1.0000
  C   C833      1.0  0.36284  0.21693  0.83204  1.0000
  H   H1439     1.0  0.29933  0.46107  0.84950  1.0000
  H   H1440     1.0  0.46516  0.14490  0.88257  1.0000
  H   H1441     1.0  0.41383  0.27948  0.85693  1.0000
  C   C834      1.0  0.35015  0.39128  0.79570  1.0000
  H   H1442     1.0  0.45639  0.17674  0.81012  1.0000
  H   H1443     1.0  0.47210  0.32035  0.82512  1.0000
  C   C835      1.0  0.42567  0.39241  0.79843  1.0000
  H   H1444     1.0  0.02614  0.44899  0.87965  1.0000
  H   H1445     1.0  0.47996  0.19339  0.79777  1.0000
  H   H1446     1.0  0.32609  0.20668  0.81830  1.0000
  S   S249      1.0  0.34470  0.19129  0.79540  1.0000
  H   H1447     1.0  0.43992  0.13704  0.95991  1.0000
  S   S250      1.0  0.00900  0.45531  0.92678  1.0000
  C   C836      1.0  0.47922  0.34452  0.81312  1.0000
  C   C837      1.0  0.31508  0.33034  0.78761  1.0000
  C   C838      1.0  0.48005  0.10582  0.92430  1.0000
  H   H1448     1.0  0.45324  0.17296  0.79571  1.0000
  C   C839      1.0  0.44738  0.21421  0.80290  1.0000
  H   H1449     1.0  0.43988  0.20394  0.80896  1.0000
  H   H1450     1.0  0.45184  0.33904  0.79097  1.0000
  H   H1451     1.0  0.45281  0.14407  0.97689  1.0000
  H   H1452     1.0  0.24910  0.40628  0.82062  1.0000
  C   C840      1.0  0.26764  0.28442  0.78854  1.0000
  N   N56       1.0  0.40875  0.38599  0.80003  1.0000
  C   C841      1.0  0.39312  0.39393  0.80943  1.0000
  H   H1453     1.0  0.19571  0.38880  0.84310  1.0000
  H   H1454     1.0  0.33798  0.23244  0.80271  1.0000
  C   C842      1.0  0.16152  0.40867  0.80058  1.0000
  C   C843      1.0  0.31194  0.48704  0.81237  1.0000
  H   H1455     1.0  0.40654  0.17196  0.97792  1.0000
  C   C844      1.0  0.01653  0.40329  0.97989  1.0000
  H   H1456     1.0  0.49498  0.03995  0.93999  1.0000
  H   H1457     1.0  0.46929  0.23806  0.79480  1.0000
  N   N57       1.0  0.33105  0.33723  0.78757  1.0000
  C   C845      1.0  0.42100  0.99747  0.91511  1.0000
  C   C846      1.0  0.21067  0.41787  0.79785  1.0000
  H   H1458     1.0  0.44677  0.15163  0.89465  1.0000
  C   C847      1.0  0.38053  0.19007  0.79177  1.0000
  S   S251      1.0  0.34031  0.40781  0.80450  1.0000
  H   H1459     1.0  0.05275  0.39695  0.85848  1.0000
  H   H1460     1.0  0.48231  0.14416  0.91324  1.0000
  Fe  Fe128     1.0  0.27784  0.43311  0.79408  1.0000
  C   C848      1.0  0.43008  0.39452  0.81050  1.0000
  H   H1461     1.0  0.37948  0.41846  0.79832  1.0000
  H   H1462     1.0  0.33618  0.34443  0.81095  1.0000
  S   S252      1.0  0.04422  0.47298  0.92175  1.0000
  H   H1463     1.0  0.45633  0.11563  0.97892  1.0000
  C   C849      1.0  0.40542  0.12746  0.96166  1.0000
  C   C850      1.0  0.46280  0.17573  0.80017  1.0000
  H   H1464     1.0  0.33495  0.36198  0.78975  1.0000
  N   N58       1.0  0.25632  0.48378  0.84472  1.0000
  H   H1465     1.0  0.21805  0.46722  0.85960  1.0000
  H   H1466     1.0  0.29813  0.31208  0.79927  1.0000
  H   H1467     1.0  0.38119  0.38830  0.81056  1.0000
  H   H1468     1.0  0.48611  0.20669  0.81585  1.0000
  S   S253      1.0  0.05980  0.47979  0.98217  1.0000
  C   C851      1.0  0.48784  0.20067  0.82541  1.0000
  H   H1469     1.0  0.31220  0.36142  0.79149  1.0000
  C   C852      1.0  0.49320  0.13869  0.90577  1.0000
  H   H1470     1.0  0.22534  0.47298  0.80786  1.0000
  H   H1471     1.0  0.36033  0.29609  0.79461  1.0000
  H   H1472     1.0  0.07826  0.48414  0.95149  1.0000
  H   H1473     1.0  0.40913  0.06758  0.97781  1.0000
  S   S254      1.0  0.16556  0.44257  0.78862  1.0000
  H   H1474     1.0  0.40833  0.19047  0.78901  1.0000
  C   C853      1.0  0.49225  0.10311  0.95555  1.0000
  H   H1475     1.0  0.20445  0.47539  0.79481  1.0000
  H   H1476     1.0  0.48403  0.26396  0.84148  1.0000
  H   H1477     1.0  0.00271  0.40081  0.89406  1.0000
  H   H1478     1.0  0.06319  0.47956  0.87796  1.0000
  H   H1479     1.0  0.16219  0.49000  0.85596  1.0000
  H   H1480     1.0  0.49533  0.17812  0.85935  1.0000
  H   H1481     1.0  0.29263  0.46743  0.83471  1.0000
  H   H1482     1.0  0.43403  0.19899  0.79066  1.0000
  C   C854      1.0  0.09806  0.47720  0.92871  1.0000
  H   H1483     1.0  0.02851  0.40929  0.97536  1.0000
  H   H1484     1.0  0.49156  0.11426  0.88513  1.0000
  H   H1485     1.0  0.40619  0.99963  0.98060  1.0000
  H   H1486     1.0  0.29375  0.48408  0.84248  1.0000
  H   H1487     1.0  0.24067  0.48272  0.79465  1.0000
  C   C855      1.0  0.49052  0.10679  0.91045  1.0000
  C   C856      1.0  0.50001  0.28065  0.79493  1.0000
  H   H1488     1.0  0.49405  0.13963  0.97421  1.0000
  H   H1489     1.0  0.14097  0.48291  0.86208  1.0000
  C   C857      1.0  0.40324  0.39140  0.78740  1.0000
  N   N59       1.0  0.45679  0.20939  0.79031  1.0000
  H   H1490     1.0  0.48549  0.09295  0.93021  1.0000
  H   H1491     1.0  0.22531  0.46053  0.79075  1.0000
  C   C858      1.0  0.47795  0.23031  0.78775  1.0000
  H   H1492     1.0  0.07046  0.48721  0.85443  1.0000
  H   H1493     1.0  0.46320  0.99724  0.96171  1.0000
  C   C859      1.0  0.50187  0.13563  0.98179  1.0000
  C   C860      1.0  0.49950  0.20599  0.83034  1.0000
  C   C861      1.0  0.47779  0.99255  0.96152  1.0000
  H   H1494     1.0  0.49704  0.99101  0.93321  1.0000
  S   S255      1.0  0.50093  0.12218  0.95181  1.0000
  H   H1495     1.0  0.50048  0.17487  0.96063  1.0000
  H   H1496     1.0  0.22551  0.56347  0.14669  1.0000
  Fe  Fe129     1.0  0.09001  0.58644  0.05663  1.0000
  S   S256      1.0  0.06363  0.57826  0.06592  1.0000
  S   S257      1.0  0.10265  0.58677  0.07255  1.0000
  Fe  Fe130     1.0  0.08515  0.58707  0.03019  1.0000
  S   S258      1.0  0.05879  0.57897  0.03774  1.0000
  Fe  Fe131     1.0  0.05265  0.59824  0.05024  1.0000
  Fe  Fe132     1.0  0.07194  0.55980  0.05270  1.0000
  S   S259      1.0  0.06977  0.53141  0.05944  1.0000
  S   S260      1.0  0.07819  0.60823  0.04167  1.0000
  S   S261      1.0  0.09912  0.56621  0.04442  1.0000
  C   C862      1.0  0.35584  0.71283  0.18306  1.0000
  H   H1497     1.0  0.34127  0.50380  0.07441  1.0000
  S   S262      1.0  0.39213  0.90891  0.05093  1.0000
  S   S263      1.0  0.43615  0.91337  0.02556  1.0000
  C   C863      1.0  0.48051  0.89832  0.06378  1.0000
  Fe  Fe133     1.0  0.42088  0.84598  0.10899  1.0000
  S   S264      1.0  0.43161  0.83233  0.12658  1.0000
  S   S265      1.0  0.42513  0.87357  0.09949  1.0000
  Fe  Fe134     1.0  0.41169  0.81277  0.10692  1.0000
  S   S266      1.0  0.42210  0.79626  0.12398  1.0000
  S   S267      1.0  0.39928  0.80232  0.09546  1.0000
  Fe  Fe135     1.0  0.40776  0.81964  0.13273  1.0000
  S   S268      1.0  0.39437  0.81271  0.15332  1.0000
  Fe  Fe136     1.0  0.44495  0.81029  0.11636  1.0000
  S   S269      1.0  0.47390  0.79713  0.11632  1.0000
  S   S270      1.0  0.39552  0.83542  0.11613  1.0000
  S   S271      1.0  0.43595  0.82461  0.09833  1.0000
  Fe  Fe137     1.0  0.19055  0.60761  0.11457  1.0000
  S   S272      1.0  0.20761  0.60501  0.09525  1.0000
  S   S273      1.0  0.18788  0.63370  0.11996  1.0000
  Fe  Fe138     1.0  0.18374  0.57032  0.12027  1.0000
  S   S274      1.0  0.20020  0.56525  0.10149  1.0000
  S   S275      1.0  0.17444  0.54576  0.13243  1.0000
  Fe  Fe139     1.0  0.21954  0.57792  0.10513  1.0000
  S   S276      1.0  0.24801  0.56286  0.10356  1.0000
  Fe  Fe140     1.0  0.18631  0.59256  0.09346  1.0000
  S   S277      1.0  0.17825  0.59785  0.07460  1.0000
  S   S278      1.0  0.20419  0.58126  0.12452  1.0000
  S   S279      1.0  0.16816  0.59707  0.11208  1.0000
  H   H1498     1.0  0.43982  0.63927  0.12272  1.0000
  H   H1499     1.0  0.19673  0.50374  0.06412  1.0000
  H   H1500     1.0  0.10393  0.65051  0.09401  1.0000
  H   H1501     1.0  0.32897  0.66547  0.13336  1.0000
  C   C864      1.0  0.45241  0.76880  0.15451  1.0000
  S   S280      1.0  0.15708  0.51601  0.09170  1.0000
  H   H1502     1.0  0.11115  0.64059  0.07504  1.0000
  H   H1503     1.0  0.49566  0.79693  0.14829  1.0000
  N   N60       1.0  0.01382  0.53903  0.99532  1.0000
  S   S281      1.0  0.20957  0.63513  0.17027  1.0000
  Fe  Fe141     1.0  0.22381  0.69400  0.17142  1.0000
  H   H1504     1.0  0.23592  0.53186  0.06339  1.0000
  S   S282      1.0  0.22222  0.72258  0.16160  1.0000
  C   C865      1.0  0.22008  0.50339  0.07141  1.0000
  S   S283      1.0  0.28426  0.65750  0.17333  1.0000
  H   H1505     1.0  0.34004  0.74499  0.15956  1.0000
  S   S284      1.0  0.23956  0.67198  0.16149  1.0000
  H   H1506     1.0  0.38561  0.73901  0.17817  1.0000
  Fe  Fe142     1.0  0.42351  0.66910  0.13860  1.0000
  S   S285      1.0  0.43982  0.67464  0.15018  1.0000
  S   S286      1.0  0.41273  0.64390  0.14549  1.0000
  Fe  Fe143     1.0  0.42528  0.70379  0.11948  1.0000
  S   S287      1.0  0.44148  0.71246  0.12930  1.0000
  S   S288      1.0  0.41514  0.71936  0.10205  1.0000
  Fe  Fe144     1.0  0.45718  0.68449  0.13150  1.0000
  S   S289      1.0  0.48743  0.68003  0.12717  1.0000
  Fe  Fe145     1.0  0.42290  0.70211  0.14708  1.0000
  S   S290      1.0  0.41247  0.71875  0.16173  1.0000
  S   S291      1.0  0.44246  0.67645  0.12009  1.0000
  S   S292      1.0  0.40512  0.69591  0.13710  1.0000
  Fe  Fe146     1.0  0.33180  0.58492  0.13925  1.0000
  S   S293      1.0  0.33082  0.61034  0.12461  1.0000
  S   S294      1.0  0.31644  0.58257  0.15948  1.0000
  Fe  Fe147     1.0  0.35237  0.56230  0.11994  1.0000
  S   S295      1.0  0.35357  0.58615  0.10387  1.0000
  S   S296      1.0  0.36183  0.53468  0.11573  1.0000
  Fe  Fe148     1.0  0.35984  0.59879  0.11741  1.0000
  S   S297      1.0  0.37900  0.61771  0.11027  1.0000
  Fe  Fe149     1.0  0.32465  0.59558  0.11257  1.0000
  S   S298      1.0  0.30315  0.60826  0.10117  1.0000
  S   S299      1.0  0.36129  0.57398  0.13282  1.0000
  S   S300      1.0  0.32313  0.57124  0.12781  1.0000
  C   C866      1.0  0.11778  0.64423  0.09552  1.0000
  H   H1507     1.0  0.14216  0.66653  0.06869  1.0000
  H   H1508     1.0  0.22130  0.51435  0.16842  1.0000
  H   H1509     1.0  0.18059  0.69631  0.15760  1.0000
  H   H1510     1.0  0.48024  0.74709  0.14231  1.0000
  C   C867      1.0  0.44706  0.74132  0.16952  1.0000
  H   H1511     1.0  0.25946  0.52267  0.07472  1.0000
  C   C868      1.0  0.35868  0.69412  0.14781  1.0000
  H   H1512     1.0  0.35077  0.68517  0.13423  1.0000
  H   H1513     1.0  0.13415  0.53936  0.01038  1.0000
  C   C869      1.0  0.47680  0.60502  0.11915  1.0000
  H   H1514     1.0  0.22951  0.51789  0.11197  1.0000
  C   C870      1.0  0.48855  0.84400  0.09924  1.0000
  C   C871      1.0  0.28433  0.56161  0.07155  1.0000
  C   C872      1.0  0.34419  0.52340  0.11949  1.0000
  C   C873      1.0  0.32959  0.52668  0.12944  1.0000
  C   C874      1.0  0.31463  0.51931  0.13156  1.0000
  C   C875      1.0  0.31439  0.50802  0.12407  1.0000
  H   H1515     1.0  0.07329  0.53857  0.01587  1.0000
  C   C876      1.0  0.34433  0.51152  0.11226  1.0000
  H   H1516     1.0  0.32981  0.53492  0.13554  1.0000
  H   H1517     1.0  0.30310  0.52255  0.13898  1.0000
  C   C877      1.0  0.38914  0.84686  0.07384  1.0000
  C   C878      1.0  0.10228  0.52996  0.10957  1.0000
  C   C879      1.0  0.39116  0.71571  0.17053  1.0000
  C   C880      1.0  0.38453  0.70139  0.17017  1.0000
  H   H1518     1.0  0.43616  0.63855  0.10231  1.0000
  C   C881      1.0  0.42786  0.85401  0.06649  1.0000
  H   H1519     1.0  0.20948  0.49762  0.10912  1.0000
  H   H1520     1.0  0.15976  0.63766  0.07565  1.0000
  H   H1521     1.0  0.39299  0.69145  0.16503  1.0000
  N   N61       1.0  0.49209  0.91038  0.98749  1.0000
  H   H1522     1.0  0.20491  0.51895  0.14562  1.0000
  Fe  Fe150     1.0  0.40878  0.92577  0.03528  1.0000
  C   C882      1.0  0.40276  0.63712  0.13578  1.0000
  C   C883      1.0  0.40118  0.64708  0.12367  1.0000
  C   C884      1.0  0.39375  0.64101  0.11601  1.0000
  C   C885      1.0  0.38752  0.62513  0.12046  1.0000
  C   C886      1.0  0.38886  0.61529  0.13266  1.0000
  C   C887      1.0  0.39659  0.62122  0.14025  1.0000
  H   H1523     1.0  0.40591  0.65934  0.12012  1.0000
  H   H1524     1.0  0.39282  0.64863  0.10656  1.0000
  H   H1525     1.0  0.38419  0.60300  0.13614  1.0000
  H   H1526     1.0  0.39774  0.61345  0.14963  1.0000
  C   C888      1.0  0.22949  0.73232  0.17114  1.0000
  C   C889      1.0  0.24490  0.73958  0.16650  1.0000
  H   H1527     1.0  0.49106  0.97678  0.99324  1.0000
  H   H1528     1.0  0.38501  0.75405  0.15385  1.0000
  H   H1529     1.0  0.10178  0.50210  0.04949  1.0000
  S   S301      1.0  0.29989  0.75448  0.17737  1.0000
  H   H1530     1.0  0.25216  0.73969  0.15682  1.0000
  C   C890      1.0  0.00467  0.56995  0.06281  1.0000
  H   H1531     1.0  0.30993  0.83354  0.17733  1.0000
  C   C891      1.0  0.29302  0.63652  0.16980  1.0000
  C   C892      1.0  0.08454  0.59592  0.98674  1.0000
  C   C893      1.0  0.29421  0.60492  0.17457  1.0000
  C   C894      1.0  0.30787  0.60318  0.16374  1.0000
  C   C895      1.0  0.31420  0.61805  0.15611  1.0000
  C   C896      1.0  0.30657  0.63471  0.15901  1.0000
  H   H1532     1.0  0.42004  0.82245  0.07502  1.0000
  H   H1533     1.0  0.13043  0.51567  0.00536  1.0000
  H   H1534     1.0  0.32515  0.61672  0.14806  1.0000
  H   H1535     1.0  0.31093  0.64626  0.15276  1.0000
  H   H1536     1.0  0.12853  0.52947  0.05888  1.0000
  H   H1537     1.0  0.27944  0.56426  0.06269  1.0000
  H   H1538     1.0  0.47398  0.64766  0.12251  1.0000
  C   C897      1.0  0.21673  0.51274  0.15006  1.0000
  H   H1539     1.0  0.19461  0.49448  0.08090  1.0000
  H   H1540     1.0  0.48145  0.90777  0.01512  1.0000
  H   H1541     1.0  0.02274  0.53924  0.01190  1.0000
  H   H1542     1.0  0.12157  0.55743  0.01763  1.0000
  H   H1543     1.0  0.47244  0.68546  0.15280  1.0000
  C   C898      1.0  0.04518  0.50172  0.04893  1.0000
  H   H1544     1.0  0.15915  0.71269  0.13984  1.0000
  H   H1545     1.0  0.30792  0.67715  0.14942  1.0000
  H   H1546     1.0  0.30853  0.69405  0.15680  1.0000
  H   H1547     1.0  0.24532  0.54728  0.14927  1.0000
  H   H1548     1.0  0.40262  0.81741  0.06057  1.0000
  H   H1549     1.0  0.37168  0.67334  0.13749  1.0000
  C   C899      1.0  0.31704  0.68419  0.15114  1.0000
  H   H1550     1.0  0.25229  0.50279  0.07651  1.0000
  H   H1551     1.0  0.44985  0.71392  0.16727  1.0000
  C   C900      1.0  0.19473  0.63368  0.13374  1.0000
  C   C901      1.0  0.19963  0.64881  0.13467  1.0000
  C   C902      1.0  0.20447  0.64938  0.14574  1.0000
  C   C903      1.0  0.20401  0.63500  0.15606  1.0000
  C   C904      1.0  0.19912  0.61988  0.15512  1.0000
  C   C905      1.0  0.19472  0.61913  0.14396  1.0000
  H   H1552     1.0  0.19972  0.66007  0.12678  1.0000
  H   H1553     1.0  0.20839  0.66091  0.14640  1.0000
  H   H1554     1.0  0.19872  0.60870  0.16308  1.0000
  H   H1555     1.0  0.19079  0.60749  0.14343  1.0000
  C   C906      1.0  0.26202  0.57627  0.10377  1.0000
  C   C907      1.0  0.26128  0.59317  0.09595  1.0000
  C   C908      1.0  0.27391  0.60299  0.09525  1.0000
  C   C909      1.0  0.28711  0.59600  0.10249  1.0000
  C   C910      1.0  0.28732  0.57936  0.11061  1.0000
  C   C911      1.0  0.27486  0.56950  0.11125  1.0000
  H   H1556     1.0  0.25135  0.59847  0.09015  1.0000
  H   H1557     1.0  0.27357  0.61593  0.08900  1.0000
  H   H1558     1.0  0.29728  0.57381  0.11622  1.0000
  H   H1559     1.0  0.27544  0.55644  0.11736  1.0000
  C   C912      1.0  0.16724  0.53716  0.12228  1.0000
  C   C913      1.0  0.16852  0.51889  0.12409  1.0000
  C   C914      1.0  0.16455  0.51218  0.11502  1.0000
  C   C915      1.0  0.15919  0.52378  0.10427  1.0000
  C   C916      1.0  0.15739  0.54198  0.10274  1.0000
  C   C917      1.0  0.16143  0.54865  0.11169  1.0000
  H   H1560     1.0  0.17324  0.50998  0.13219  1.0000
  Fe  Fe151     1.0  0.30726  0.77775  0.18079  1.0000
  H   H1561     1.0  0.15344  0.55092  0.09436  1.0000
  H   H1562     1.0  0.16033  0.56272  0.11028  1.0000
  C   C918      1.0  0.37275  0.80880  0.15604  1.0000
  H   H1563     1.0  0.00605  0.63856  0.00609  1.0000
  H   H1564     1.0  0.10483  0.68216  0.08246  1.0000
  C   C919      1.0  0.33793  0.80253  0.16113  1.0000
  C   C920      1.0  0.34331  0.81603  0.15101  1.0000
  C   C921      1.0  0.36076  0.81905  0.14837  1.0000
  H   H1565     1.0  0.33394  0.82426  0.14523  1.0000
  H   H1566     1.0  0.36480  0.82956  0.14060  1.0000
  C   C922      1.0  0.40550  0.77938  0.09636  1.0000
  C   C923      1.0  0.39672  0.77176  0.09062  1.0000
  C   C924      1.0  0.40023  0.75333  0.09210  1.0000
  C   C925      1.0  0.41246  0.74242  0.09937  1.0000
  C   C926      1.0  0.42177  0.75005  0.10473  1.0000
  C   C927      1.0  0.41831  0.76854  0.10320  1.0000
  H   H1567     1.0  0.38689  0.78009  0.08526  1.0000
  H   H1568     1.0  0.39312  0.74749  0.08785  1.0000
  H   H1569     1.0  0.43159  0.74175  0.11004  1.0000
  H   H1570     1.0  0.42553  0.77435  0.10733  1.0000
  H   H1571     1.0  0.41515  0.96890  0.98752  1.0000
  H   H1572     1.0  0.23347  0.69855  0.12037  1.0000
  C   C928      1.0  0.47832  0.83099  0.10486  1.0000
  C   C929      1.0  0.48678  0.81325  0.10841  1.0000
  C   C930      1.0  0.48662  0.74400  0.16022  1.0000
  S   S302      1.0  0.43896  0.91773  0.99041  1.0000
  H   H1573     1.0  0.48220  0.63991  0.13663  1.0000
  H   H1574     1.0  0.46387  0.83487  0.10658  1.0000
  H   H1575     1.0  0.20548  0.55922  0.07051  1.0000
  H   H1576     1.0  0.38836  0.83274  0.07615  1.0000
  C   C931      1.0  0.40036  0.90078  0.06493  1.0000
  C   C932      1.0  0.39133  0.88972  0.07520  1.0000
  C   C933      1.0  0.39874  0.88144  0.08592  1.0000
  C   C934      1.0  0.41503  0.88451  0.08652  1.0000
  C   C935      1.0  0.42366  0.89618  0.07650  1.0000
  C   C936      1.0  0.41645  0.90416  0.06566  1.0000
  H   H1577     1.0  0.37876  0.88727  0.07473  1.0000
  H   H1578     1.0  0.39186  0.87272  0.09374  1.0000
  H   H1579     1.0  0.43616  0.89874  0.07700  1.0000
  H   H1580     1.0  0.46266  0.74269  0.12866  1.0000
  C   C937      1.0  0.37767  0.74977  0.12904  1.0000
  H   H1581     1.0  0.05336  0.61647  0.01428  1.0000
  C   C938      1.0  0.48560  0.89626  0.99845  1.0000
  H   H1582     1.0  0.37011  0.78524  0.14263  1.0000
  C   C939      1.0  0.35016  0.76407  0.14305  1.0000
  H   H1583     1.0  0.02217  0.51285  0.00654  1.0000
  H   H1584     1.0  0.01485  0.57347  0.01986  1.0000
  N   N62       1.0  0.45499  0.74908  0.15595  1.0000
  H   H1585     1.0  0.29018  0.50832  0.09891  1.0000
  C   C940      1.0  0.05430  0.52520  0.05378  1.0000
  C   C941      1.0  0.05561  0.50719  0.05480  1.0000
  H   H1586     1.0  0.16566  0.71609  0.16137  1.0000
  C   C942      1.0  0.03299  0.51423  0.04233  1.0000
  C   C943      1.0  0.03089  0.53224  0.04191  1.0000
  C   C944      1.0  0.04170  0.53775  0.04753  1.0000
  H   H1587     1.0  0.19063  0.73473  0.12009  1.0000
  C   C945      1.0  0.11711  0.62526  0.10333  1.0000
  H   H1588     1.0  0.02127  0.54190  0.03698  1.0000
  H   H1589     1.0  0.04019  0.55164  0.04707  1.0000
  C   C946      1.0  0.12451  0.58822  0.07265  1.0000
  C   C947      1.0  0.12897  0.58563  0.08441  1.0000
  C   C948      1.0  0.14563  0.58799  0.08510  1.0000
  C   C949      1.0  0.15801  0.59301  0.07401  1.0000
  C   C950      1.0  0.15375  0.59521  0.06223  1.0000
  C   C951      1.0  0.13706  0.59279  0.06153  1.0000
  H   H1590     1.0  0.11936  0.58203  0.09306  1.0000
  H   H1591     1.0  0.14869  0.58634  0.09422  1.0000
  H   H1592     1.0  0.16325  0.59913  0.05360  1.0000
  H   H1593     1.0  0.13375  0.59486  0.05242  1.0000
  H   H1594     1.0  0.34552  0.69991  0.15333  1.0000
  C   C952      1.0  0.13120  0.66480  0.07730  1.0000
  C   C953      1.0  0.36280  0.72666  0.18388  1.0000
  H   H1595     1.0  0.12018  0.65185  0.10163  1.0000
  H   H1596     1.0  0.11348  0.61719  0.09817  1.0000
  N   N63       1.0  0.10765  0.51800  0.02113  1.0000
  H   H1597     1.0  0.32298  0.69206  0.14204  1.0000
  H   H1598     1.0  0.27390  0.55641  0.07942  1.0000
  H   H1599     1.0  0.28544  0.57458  0.07266  1.0000
  C   C954      1.0  0.42876  0.86824  0.03878  1.0000
  H   H1600     1.0  0.21061  0.68974  0.14749  1.0000
  H   H1601     1.0  0.32926  0.49515  0.10868  1.0000
  H   H1602     1.0  0.22926  0.72784  0.12416  1.0000
  N   N64       1.0  0.21517  0.51967  0.07696  1.0000
  C   C955      1.0  0.25489  0.49231  0.15131  1.0000
  C   C956      1.0  0.48606  0.68744  0.15005  1.0000
  H   H1603     1.0  0.00499  0.63451  0.02263  1.0000
  H   H1604     1.0  0.42201  0.85067  0.07679  1.0000
  H   H1605     1.0  0.46564  0.80855  0.14474  1.0000
  H   H1606     1.0  0.34310  0.77666  0.14616  1.0000
  H   H1607     1.0  0.04800  0.56818  0.00215  1.0000
  H   H1608     1.0  0.21460  0.54530  0.13807  1.0000
  C   C957      1.0  0.01480  0.50925  0.99037  1.0000
  H   H1609     1.0  0.42326  0.81463  0.04880  1.0000
  H   H1610     1.0  0.12991  0.61829  0.10632  1.0000
  H   H1611     1.0  0.45365  0.83566  0.06916  1.0000
  H   H1612     1.0  0.50069  0.76885  0.13133  1.0000
  H   H1613     1.0  0.48981  0.84709  0.13801  1.0000
  S   S303      1.0  0.09584  0.59077  0.00890  1.0000
  H   H1614     1.0  0.22197  0.70729  0.14174  1.0000
  H   H1615     1.0  0.22819  0.53990  0.07767  1.0000
  H   H1616     1.0  0.22172  0.53726  0.11835  1.0000
  H   H1617     1.0  0.02143  0.59316  0.00204  1.0000
  H   H1618     1.0  0.44784  0.73030  0.14854  1.0000
  C   C958      1.0  0.21441  0.69979  0.13881  1.0000
  H   H1619     1.0  0.33764  0.53525  0.07200  1.0000
  C   C959      1.0  0.44840  0.84979  0.06521  1.0000
  H   H1620     1.0  0.34277  0.64050  0.17571  1.0000
  H   H1621     1.0  0.18641  0.68828  0.13953  1.0000
  H   H1622     1.0  0.46617  0.71648  0.17489  1.0000
  H   H1623     1.0  0.48489  0.88433  0.01838  1.0000
  H   H1624     1.0  0.46038  0.63925  0.11136  1.0000
  H   H1625     1.0  0.35570  0.50884  0.10460  1.0000
  C   C960      1.0  0.42975  0.84852  0.04537  1.0000
  C   C961      1.0  0.01260  0.54720  0.00622  1.0000
  N   N65       1.0  0.31019  0.54195  0.08221  1.0000
  C   C962      1.0  0.44554  0.74487  0.14747  1.0000
  H   H1626     1.0  0.37689  0.72756  0.12180  1.0000
  C   C963      1.0  0.48264  0.92806  0.99086  1.0000
  H   H1627     1.0  0.48613  0.59772  0.12562  1.0000
  H   H1628     1.0  0.46017  0.77495  0.14526  1.0000
  C   C964      1.0  0.02844  0.60741  0.01862  1.0000
  H   H1629     1.0  0.06519  0.49749  0.05974  1.0000
  C   C965      1.0  0.30256  0.54826  0.07042  1.0000
  H   H1630     1.0  0.40702  0.98424  0.03774  1.0000
  H   H1631     1.0  0.28934  0.59340  0.18055  1.0000
  H   H1632     1.0  0.41472  0.87579  0.03911  1.0000
  H   H1633     1.0  0.43068  0.74882  0.15039  1.0000
  C   C966      1.0  0.36794  0.74039  0.12349  1.0000
  C   C967      1.0  0.08909  0.51417  0.02565  1.0000
  H   H1634     1.0  0.23915  0.68110  0.13325  1.0000
  H   H1635     1.0  0.31221  0.55458  0.06237  1.0000
  C   C968      1.0  0.43282  0.77926  0.15608  1.0000
  H   H1636     1.0  0.36526  0.74810  0.11413  1.0000
  H   H1637     1.0  0.48148  0.59340  0.10270  1.0000
  C   C969      1.0  0.22771  0.68956  0.12901  1.0000
  H   H1638     1.0  0.38295  0.73984  0.13690  1.0000
  H   H1639     1.0  0.26169  0.61992  0.11734  1.0000
  C   C970      1.0  0.08257  0.58753  0.99961  1.0000
  C   C971      1.0  0.06979  0.57699  0.00492  1.0000
  C   C972      1.0  0.45422  0.58802  0.14398  1.0000
  H   H1640     1.0  0.04573  0.61788  0.00048  1.0000
  H   H1641     1.0  0.49137  0.88277  0.99661  1.0000
  H   H1642     1.0  0.08278  0.51786  0.03494  1.0000
  H   H1643     1.0  0.36563  0.63444  0.17724  1.0000
  H   H1644     1.0  0.48883  0.91260  0.08232  1.0000
  H   H1645     1.0  0.24568  0.51465  0.08937  1.0000
  C   C973      1.0  0.28676  0.62164  0.17761  1.0000
  C   C974      1.0  0.17995  0.71018  0.15778  1.0000
  H   H1646     1.0  0.38988  0.75243  0.12180  1.0000
  C   C975      1.0  0.48931  0.89588  0.01135  1.0000
  C   C976      1.0  0.25847  0.60788  0.15697  1.0000
  C   C977      1.0  0.37855  0.77507  0.13727  1.0000
  H   H1647     1.0  0.15024  0.63605  0.05917  1.0000
  C   C978      1.0  0.28723  0.52114  0.09214  1.0000
  C   C979      1.0  0.47427  0.59119  0.11279  1.0000
  H   H1648     1.0  0.12138  0.51264  0.09826  1.0000
  H   H1649     1.0  0.45627  0.59200  0.15213  1.0000
  C   C980      1.0  0.46544  0.62340  0.13512  1.0000
  H   H1650     1.0  0.38718  0.78221  0.12892  1.0000
  H   H1651     1.0  0.18563  0.49223  0.15916  1.0000
  C   C981      1.0  0.32727  0.51150  0.07658  1.0000
  C   C982      1.0  0.36693  0.69987  0.17655  1.0000
  H   H1652     1.0  0.48576  0.69220  0.16811  1.0000
  H   H1653     1.0  0.36177  0.68884  0.17629  1.0000
  H   H1654     1.0  0.29055  0.60378  0.14235  1.0000
  H   H1655     1.0  0.28565  0.60304  0.12812  1.0000
  C   C983      1.0  0.29730  0.53429  0.09368  1.0000
  H   H1656     1.0  0.48440  0.61418  0.11162  1.0000
  H   H1657     1.0  0.40020  0.92162  0.99352  1.0000
  H   H1658     1.0  0.23927  0.49983  0.13111  1.0000
  C   C984      1.0  0.25705  0.62653  0.15886  1.0000
  H   H1659     1.0  0.36315  0.70488  0.13997  1.0000
  C   C985      1.0  0.23145  0.52768  0.07386  1.0000
  H   H1660     1.0  0.29195  0.70197  0.18344  1.0000
  C   C986      1.0  0.01343  0.60673  0.00245  1.0000
  H   H1661     1.0  0.36884  0.68959  0.15374  1.0000
  C   C987      1.0  0.35240  0.79871  0.12276  1.0000
  C   C988      1.0  0.11272  0.50915  0.04406  1.0000
  C   C989      1.0  0.07771  0.50453  0.08868  1.0000
  C   C990      1.0  0.35772  0.67897  0.14218  1.0000
  H   H1662     1.0  0.08952  0.49971  0.02753  1.0000
  C   C991      1.0  0.47919  0.63543  0.12902  1.0000
  C   C992      1.0  0.36099  0.77937  0.12145  1.0000
  H   H1663     1.0  0.20592  0.53539  0.05995  1.0000
  H   H1664     1.0  0.46679  0.57969  0.13967  1.0000
  H   H1665     1.0  0.32008  0.50295  0.08480  1.0000
  H   H1666     1.0  0.19392  0.69573  0.12318  1.0000
  C   C993      1.0  0.00947  0.59993  0.05777  1.0000
  H   H1667     1.0  0.35100  0.77473  0.11852  1.0000
  H   H1668     1.0  0.13474  0.53101  0.07256  1.0000
  H   H1669     1.0  0.40286  0.75439  0.13982  1.0000
  H   H1670     1.0  0.49214  0.62835  0.12408  1.0000
  H   H1671     1.0  0.10657  0.62599  0.11214  1.0000
  H   H1672     1.0  0.16629  0.49810  0.11601  1.0000
  H   H1673     1.0  0.48975  0.73916  0.10557  1.0000
  H   H1674     1.0  0.16182  0.70074  0.12794  1.0000
  H   H1675     1.0  0.48049  0.57760  0.11731  1.0000
  H   H1676     1.0  0.04959  0.53361  0.99960  1.0000
  C   C994      1.0  0.23769  0.51439  0.12959  1.0000
  H   H1677     1.0  0.47081  0.89779  0.99982  1.0000
  C   C995      1.0  0.21599  0.73613  0.12271  1.0000
  C   C996      1.0  0.01233  0.51998  0.00045  1.0000
  C   C997      1.0  0.20115  0.53305  0.07045  1.0000
  H   H1678     1.0  0.49664  0.92870  0.05988  1.0000
  S   S304      1.0  0.02161  0.50743  0.03371  1.0000
  H   H1679     1.0  0.03504  0.63397  0.01043  1.0000
  H   H1680     1.0  0.46027  0.59135  0.11284  1.0000
  N   N66       1.0  0.09926  0.52363  0.08879  1.0000
  C   C998      1.0  0.11107  0.51923  0.07650  1.0000
  C   C999      1.0  0.09042  0.50813  0.09552  1.0000
  C   C1000     1.0  0.11132  0.52524  0.09658  1.0000
  C   C1001     1.0  0.08609  0.54088  0.08581  1.0000
  C   C1002     1.0  0.12302  0.53244  0.06847  1.0000
  C   C1003     1.0  0.14983  0.63604  0.08482  1.0000
  C   C1004     1.0  0.06872  0.54472  0.09599  1.0000
  H   H1681     1.0  0.38674  0.95378  0.99216  1.0000
  H   H1682     1.0  0.10281  0.51842  0.07017  1.0000
  H   H1683     1.0  0.08266  0.50935  0.10515  1.0000
  C   C1005     1.0  0.47359  0.81829  0.14429  1.0000
  H   H1684     1.0  0.49895  0.74668  0.12069  1.0000
  H   H1685     1.0  0.09277  0.55226  0.08356  1.0000
  H   H1686     1.0  0.08164  0.54167  0.07706  1.0000
  S   S305      1.0  0.29423  0.50135  0.12607  1.0000
  H   H1687     1.0  0.06634  0.55861  0.09703  1.0000
  C   C1006     1.0  0.25116  0.74632  0.17448  1.0000
  H   H1688     1.0  0.20878  0.71849  0.11434  1.0000
  H   H1689     1.0  0.21847  0.74536  0.11336  1.0000
  H   H1690     1.0  0.10080  0.49570  0.09709  1.0000
  H   H1691     1.0  0.48725  0.75812  0.15850  1.0000
  H   H1692     1.0  0.27248  0.52627  0.09466  1.0000
  H   H1693     1.0  0.15853  0.65578  0.09108  1.0000
  H   H1694     1.0  0.32176  0.51365  0.06809  1.0000
  H   H1695     1.0  0.01905  0.57676  0.03402  1.0000
  C   C1007     1.0  0.31420  0.55798  0.08469  1.0000
  C   C1008     1.0  0.10629  0.53739  0.02035  1.0000
  H   H1696     1.0  0.46978  0.82987  0.13674  1.0000
  C   C1009     1.0  0.32409  0.55459  0.09553  1.0000
  H   H1697     1.0  0.42348  0.84307  0.03992  1.0000
  C   C1010     1.0  0.12415  0.54281  0.01887  1.0000
  H   H1698     1.0  0.05689  0.54400  0.09276  1.0000
  H   H1699     1.0  0.43265  0.79354  0.15476  1.0000
  C   C1011     1.0  0.20761  0.51594  0.09107  1.0000
  H   H1700     1.0  0.44065  0.59928  0.12862  1.0000
  H   H1701     1.0  0.09674  0.54191  0.02874  1.0000
  H   H1702     1.0  0.10043  0.54578  0.01216  1.0000
  H   H1703     1.0  0.33999  0.76106  0.13923  1.0000
  H   H1704     1.0  0.01619  0.56045  0.00265  1.0000
  H   H1705     1.0  0.36646  0.49096  0.13364  1.0000
  H   H1706     1.0  0.42624  0.77820  0.14888  1.0000
  C   C1012     1.0  0.04108  0.61982  0.01036  1.0000
  H   H1707     1.0  0.32454  0.56755  0.09711  1.0000
  C   C1013     1.0  0.32777  0.52884  0.07980  1.0000
  H   H1708     1.0  0.21863  0.49838  0.15027  1.0000
  H   H1709     1.0  0.36524  0.96256  0.98836  1.0000
  H   H1710     1.0  0.03616  0.59377  0.01795  1.0000
  H   H1711     1.0  0.33382  0.52446  0.08827  1.0000
  H   H1712     1.0  0.08047  0.52064  0.00744  1.0000
  H   H1713     1.0  0.18341  0.55904  0.06973  1.0000
  C   C1014     1.0  0.20412  0.49565  0.07158  1.0000
  H   H1714     1.0  0.10801  0.52326  0.04459  1.0000
  H   H1715     1.0  0.44412  0.84157  0.04380  1.0000
  H   H1716     1.0  0.21099  0.51850  0.12521  1.0000
  H   H1717     1.0  0.26912  0.63916  0.13359  1.0000
  H   H1718     1.0  0.09392  0.54359  0.10853  1.0000
  C   C1015     1.0  0.24909  0.61624  0.12339  1.0000
  H   H1719     1.0  0.43540  0.86919  0.02861  1.0000
  N   N67       1.0  0.01037  0.61070  0.01533  1.0000
  C   C1016     1.0  0.28152  0.62941  0.13100  1.0000
  C   C1017     1.0  0.36740  0.79530  0.16613  1.0000
  H   H1720     1.0  0.43586  0.87487  0.04280  1.0000
  H   H1721     1.0  0.47711  0.72685  0.15272  1.0000
  H   H1722     1.0  0.12994  0.53697  0.02742  1.0000
  H   H1723     1.0  0.24568  0.60372  0.16241  1.0000
  N   N68       1.0  0.34932  0.66444  0.15149  1.0000
  C   C1018     1.0  0.36117  0.65583  0.16099  1.0000
  C   C1019     1.0  0.34940  0.65052  0.14472  1.0000
  C   C1020     1.0  0.33068  0.67117  0.15873  1.0000
  C   C1021     1.0  0.35685  0.63864  0.17026  1.0000
  C   C1022     1.0  0.34253  0.65690  0.13230  1.0000
  H   H1724     1.0  0.37549  0.65252  0.15608  1.0000
  H   H1725     1.0  0.36065  0.66507  0.16696  1.0000
  H   H1726     1.0  0.36329  0.64281  0.14215  1.0000
  H   H1727     1.0  0.34161  0.64068  0.15106  1.0000
  H   H1728     1.0  0.32419  0.65990  0.16420  1.0000
  H   H1729     1.0  0.33120  0.67754  0.16627  1.0000
  H   H1730     1.0  0.06708  0.51630  0.08639  1.0000
  H   H1731     1.0  0.25086  0.51752  0.12393  1.0000
  H   H1732     1.0  0.48228  0.73876  0.17050  1.0000
  H   H1733     1.0  0.35209  0.66362  0.12452  1.0000
  H   H1734     1.0  0.34175  0.64512  0.12921  1.0000
  H   H1735     1.0  0.37258  0.77997  0.11323  1.0000
  H   H1736     1.0  0.19006  0.55004  0.08447  1.0000
  H   H1737     1.0  0.17078  0.63370  0.09465  1.0000
  H   H1738     1.0  0.18763  0.70987  0.16482  1.0000
  H   H1739     1.0  0.49966  0.93006  0.08103  1.0000
  H   H1740     1.0  0.19295  0.51699  0.09301  1.0000
  H   H1741     1.0  0.02194  0.61530  0.99524  1.0000
  H   H1742     1.0  0.42357  0.86858  0.06370  1.0000
  H   H1743     1.0  0.44351  0.71680  0.18318  1.0000
  H   H1744     1.0  0.13338  0.50691  0.02687  1.0000
  C   C1023     1.0  0.11894  0.50629  0.03033  1.0000
  H   H1745     1.0  0.23743  0.54547  0.13040  1.0000
  C   C1024     1.0  0.49379  0.80963  0.14119  1.0000
  C   C1025     1.0  0.32945  0.50372  0.11458  1.0000
  C   C1026     1.0  0.11625  0.51413  0.00815  1.0000
  H   H1746     1.0  0.43976  0.75454  0.12857  1.0000
  N   N69       1.0  0.13115  0.64553  0.08304  1.0000
  N   N70       1.0  0.19789  0.71174  0.13459  1.0000
  H   H1747     1.0  0.06277  0.52014  0.02123  1.0000
  H   H1748     1.0  0.50085  0.91511  0.04318  1.0000
  C   C1027     1.0  0.21489  0.49761  0.09889  1.0000
  C   C1028     1.0  0.18722  0.72163  0.14483  1.0000
  H   H1749     1.0  0.34002  0.79971  0.13030  1.0000
  C   C1029     1.0  0.38044  0.72809  0.17767  1.0000
  Fe  Fe152     1.0  0.21960  0.65637  0.17475  1.0000
  H   H1750     1.0  0.42471  0.77507  0.16567  1.0000
  H   H1751     1.0  0.46795  0.92872  0.99420  1.0000
  H   H1752     1.0  0.48726  0.92984  0.99886  1.0000
  H   H1753     1.0  0.02667  0.60831  0.02864  1.0000
  C   C1030     1.0  0.04853  0.52960  0.99119  1.0000
  H   H1754     1.0  0.45360  0.61953  0.10073  1.0000
  C   C1031     1.0  0.16778  0.70982  0.13072  1.0000
  C   C1032     1.0  0.11672  0.49545  0.00660  1.0000
  H   H1755     1.0  0.28680  0.83976  0.18441  1.0000
  C   C1033     1.0  0.48117  0.95914  0.01040  1.0000
  H   H1756     1.0  0.48187  0.85774  0.09672  1.0000
  H   H1757     1.0  0.44408  0.57959  0.14796  1.0000
  C   C1034     1.0  0.49514  0.95501  0.02792  1.0000
  H   H1758     1.0  0.33831  0.54760  0.09311  1.0000
  H   H1759     1.0  0.06876  0.53622  0.10552  1.0000
  H   H1760     1.0  0.20076  0.52840  0.16417  1.0000
  H   H1761     1.0  0.19548  0.72935  0.14684  1.0000
  H   H1762     1.0  0.22152  0.68059  0.12637  1.0000
  H   H1763     1.0  0.10528  0.66951  0.07134  1.0000
  C   C1035     1.0  0.39164  0.76265  0.14546  1.0000
  H   H1764     1.0  0.43211  0.74494  0.17137  1.0000
  C   C1036     1.0  0.35250  0.75023  0.15536  1.0000
  H   H1765     1.0  0.35983  0.62757  0.16533  1.0000
  H   H1766     1.0  0.43255  0.61812  0.11240  1.0000
  N   N71       1.0  0.36685  0.76673  0.13300  1.0000
  H   H1767     1.0  0.11904  0.49214  0.03118  1.0000
  H   H1768     1.0  0.22744  0.50628  0.06135  1.0000
  H   H1769     1.0  0.45154  0.85760  0.07085  1.0000
  C   C1037     1.0  0.49210  0.97094  0.00295  1.0000
  H   H1770     1.0  0.39368  0.84957  0.08148  1.0000
  H   H1771     1.0  0.47173  0.95613  0.00643  1.0000
  H   H1772     1.0  0.06859  0.56990  0.01463  1.0000
  H   H1773     1.0  0.42348  0.91271  0.05781  1.0000
  H   H1774     1.0  0.34097  0.82522  0.17589  1.0000
  H   H1775     1.0  0.26087  0.51791  0.14160  1.0000
  H   H1776     1.0  0.45789  0.77168  0.16171  1.0000
  S   S306      1.0  0.41760  0.94866  0.03784  1.0000
  H   H1777     1.0  0.21045  0.74443  0.12990  1.0000
  C   C1038     1.0  0.44686  0.60425  0.13431  1.0000
  C   C1039     1.0  0.35016  0.79196  0.16851  1.0000
  H   H1778     1.0  0.02997  0.57636  0.06107  1.0000
  H   H1779     1.0  0.29044  0.51815  0.08265  1.0000
  H   H1780     1.0  0.37670  0.78723  0.17200  1.0000
  N   N72       1.0  0.46011  0.61546  0.12625  1.0000
  H   H1781     1.0  0.34638  0.78134  0.17613  1.0000
  H   H1782     1.0  0.24437  0.63095  0.13766  1.0000
  H   H1783     1.0  0.24827  0.60313  0.12237  1.0000
  H   H1784     1.0  0.23777  0.62596  0.11967  1.0000
  H   H1785     1.0  0.35533  0.73749  0.13006  1.0000
  C   C1040     1.0  0.49356  0.69142  0.15868  1.0000
  H   H1786     1.0  0.10955  0.52390  0.00080  1.0000
  H   H1787     1.0  0.23432  0.61265  0.14268  1.0000
  H   H1788     1.0  0.18859  0.52805  0.07260  1.0000
  H   H1789     1.0  0.13098  0.63288  0.05543  1.0000
  H   H1790     1.0  0.22352  0.54424  0.15899  1.0000
  H   H1791     1.0  0.04926  0.51513  0.99326  1.0000
  N   N73       1.0  0.23289  0.52001  0.14211  1.0000
  H   H1792     1.0  0.16726  0.72215  0.12328  1.0000
  H   H1793     1.0  0.49179  0.82972  0.15798  1.0000
  N   N74       1.0  0.26237  0.60570  0.14350  1.0000
  C   C1041     1.0  0.24707  0.61682  0.13733  1.0000
  C   C1042     1.0  0.07588  0.52405  0.01689  1.0000
  C   C1043     1.0  0.22863  0.54003  0.13944  1.0000
  H   H1794     1.0  0.28984  0.57492  0.14806  1.0000
  C   C1044     1.0  0.44302  0.62601  0.10778  1.0000
  H   H1795     1.0  0.30425  0.52758  0.10159  1.0000
  C   C1045     1.0  0.47474  0.74128  0.15234  1.0000
  H   H1796     1.0  0.34851  0.80642  0.11372  1.0000
  C   C1046     1.0  0.28044  0.60967  0.13631  1.0000
  H   H1797     1.0  0.43527  0.61239  0.13977  1.0000
  H   H1798     1.0  0.36197  0.80534  0.12436  1.0000
  H   H1799     1.0  0.13193  0.65469  0.05577  1.0000
  H   H1800     1.0  0.15072  0.62152  0.08801  1.0000
  C   C1047     1.0  0.49640  0.68548  0.13805  1.0000
  H   H1801     1.0  0.12424  0.50410  0.04885  1.0000
  H   H1802     1.0  0.11902  0.53576  0.09147  1.0000
  H   H1803     1.0  0.27010  0.63066  0.15532  1.0000
  H   H1804     1.0  0.28569  0.63203  0.12050  1.0000
  H   H1805     1.0  0.11552  0.54639  0.06722  1.0000
  H   H1806     1.0  0.45570  0.85366  0.05531  1.0000
  H   H1807     1.0  0.26613  0.58404  0.13427  1.0000
  H   H1808     1.0  0.29214  0.63230  0.13442  1.0000
  H   H1809     1.0  0.20332  0.50471  0.16968  1.0000
  C   C1048     1.0  0.26270  0.58659  0.14397  1.0000
  H   H1810     1.0  0.24914  0.58353  0.14835  1.0000
  C   C1049     1.0  0.15707  0.64181  0.09420  1.0000
  H   H1811     1.0  0.45514  0.76519  0.13074  1.0000
  H   H1812     1.0  0.09446  0.52023  0.11597  1.0000
  C   C1050     1.0  0.27608  0.57238  0.15115  1.0000
  H   H1813     1.0  0.27691  0.55928  0.14922  1.0000
  H   H1814     1.0  0.27158  0.57112  0.16156  1.0000
  H   H1815     1.0  0.24641  0.63662  0.15473  1.0000
  H   H1816     1.0  0.30163  0.56785  0.08708  1.0000
  H   H1817     1.0  0.26311  0.75178  0.17091  1.0000
  H   H1818     1.0  0.11298  0.52986  0.11430  1.0000
  C   C1051     1.0  0.45096  0.63065  0.11728  1.0000
  H   H1819     1.0  0.47651  0.91284  0.06293  1.0000
  H   H1820     1.0  0.31711  0.54740  0.10462  1.0000
  H   H1821     1.0  0.47103  0.89264  0.07225  1.0000
  H   H1822     1.0  0.25335  0.62618  0.16918  1.0000
  C   C1052     1.0  0.23090  0.54898  0.14931  1.0000
  H   H1823     1.0  0.42101  0.79978  0.06397  1.0000
  C   C1053     1.0  0.18716  0.70058  0.13206  1.0000
  C   C1054     1.0  0.48280  0.95098  0.02284  1.0000
  H   H1824     1.0  0.26919  0.59927  0.16190  1.0000
  H   H1825     1.0  0.32242  0.56500  0.07603  1.0000
  H   H1826     1.0  0.47853  0.89528  0.05523  1.0000
  H   H1827     1.0  0.37520  0.85470  0.07398  1.0000
  H   H1828     1.0  0.20920  0.52620  0.09543  1.0000
  H   H1829     1.0  0.14887  0.63948  0.10398  1.0000
  S   S307      1.0  0.47014  0.93521  0.03203  1.0000
  H   H1830     1.0  0.12015  0.50591  0.07825  1.0000
  C   C1055     1.0  0.24795  0.51599  0.07900  1.0000
  H   H1831     1.0  0.45336  0.63127  0.14053  1.0000
  H   H1832     1.0  0.12860  0.62236  0.07788  1.0000
  C   C1056     1.0  0.45129  0.75224  0.13309  1.0000
  H   H1833     1.0  0.46942  0.82220  0.15357  1.0000
  S   S308      1.0  0.02437  0.61437  0.05344  1.0000
  H   H1834     1.0  0.39571  0.84820  0.05371  1.0000
  C   C1057     1.0  0.20284  0.72505  0.12255  1.0000
  C   C1058     1.0  0.11327  0.67654  0.07421  1.0000
  Fe  Fe153     1.0  0.42757  0.92954  0.00770  1.0000
  C   C1059     1.0  0.41745  0.81387  0.05904  1.0000
  H   H1835     1.0  0.45083  0.74694  0.17624  1.0000
  Fe  Fe154     1.0  0.44424  0.93762  0.02638  1.0000
  C   C1060     1.0  0.21029  0.51545  0.16378  1.0000
  H   H1836     1.0  0.11609  0.68757  0.06601  1.0000
  C   C1061     1.0  0.12588  0.63695  0.07455  1.0000
  H   H1837     1.0  0.28679  0.54506  0.09733  1.0000
  H   H1838     1.0  0.24725  0.51711  0.15690  1.0000
  C   C1062     1.0  0.01604  0.58163  0.06064  1.0000
  N   N75       1.0  0.42090  0.84495  0.05924  1.0000
  H   H1839     1.0  0.39793  0.86689  0.05812  1.0000
  S   S309      1.0  0.31578  0.79946  0.16443  1.0000
  C   C1063     1.0  0.05829  0.57581  0.99774  1.0000
  C   C1064     1.0  0.13545  0.64055  0.06047  1.0000
  H   H1840     1.0  0.17581  0.73197  0.14166  1.0000
  C   C1065     1.0  0.40094  0.85215  0.06057  1.0000
  C   C1066     1.0  0.42500  0.82528  0.06457  1.0000
  Fe  Fe155     1.0  0.41052  0.96248  0.01899  1.0000
  S   S310      1.0  0.43786  0.95295  0.00773  1.0000
  C   C1067     1.0  0.19494  0.55128  0.07412  1.0000
  C   C1068     1.0  0.22031  0.73200  0.18371  1.0000
  Fe  Fe156     1.0  0.25425  0.66338  0.17730  1.0000
  H   H1841     1.0  0.35482  0.75634  0.16239  1.0000
  H   H1842     1.0  0.13449  0.67105  0.08386  1.0000
  H   H1843     1.0  0.47161  0.61288  0.14237  1.0000
  H   H1844     1.0  0.08511  0.49966  0.07994  1.0000
  H   H1845     1.0  0.36322  0.73838  0.15403  1.0000
  H   H1846     1.0  0.49640  0.80580  0.13195  1.0000
  H   H1847     1.0  0.49624  0.94903  0.03762  1.0000
  H   H1848     1.0  0.30074  0.53725  0.06707  1.0000
  C   C1069     1.0  0.24911  0.51268  0.14802  1.0000
  S   S311      1.0  0.39943  0.94035  0.01721  1.0000
  H   H1849     1.0  0.39769  0.77084  0.14900  1.0000
  C   C1070     1.0  0.22400  0.52262  0.12095  1.0000
  H   H1850     1.0  0.43974  0.81994  0.06302  1.0000
  H   H1851     1.0  0.33269  0.84885  0.17354  1.0000
  C   C1071     1.0  0.45208  0.72097  0.17375  1.0000
  H   H1852     1.0  0.35557  0.83871  0.17492  1.0000
  H   H1853     1.0  0.22967  0.49412  0.09741  1.0000
  H   H1854     1.0  0.38114  0.98585  0.98716  1.0000
  C   C1072     1.0  0.50000  0.89042  0.06557  1.0000
  H   H1855     1.0  0.49980  0.88551  0.07587  1.0000
  C   C1073     1.0  0.00870  0.57894  0.02845  1.0000
  C   C1074     1.0  0.50147  0.83878  0.13266  1.0000
  H   H1856     1.0  0.49691  0.83758  0.12442  1.0000
  H   H1857     1.0  0.07096  0.49385  0.09497  1.0000
  H   H1858     1.0  0.00994  0.55579  0.06488  1.0000
  S   S312      1.0  0.20232  0.67931  0.18354  1.0000
  C   C1075     1.0  0.34137  0.83730  0.17857  1.0000
  H   H1859     1.0  0.50059  0.73669  0.15723  1.0000
  H   H1860     1.0  0.22952  0.49249  0.07625  1.0000
  H   H1861     1.0  0.01338  0.49550  0.99513  1.0000
  C   C1076     1.0  0.03158  0.54034  0.98620  1.0000
  H   H1862     1.0  0.12310  0.49439  0.99664  1.0000
  H   H1863     1.0  0.10312  0.49277  0.00847  1.0000
  C   C1077     1.0  0.50178  0.91699  0.07861  1.0000
  H   H1864     1.0  0.50199  0.72378  0.09577  1.0000
  H   H1865     1.0  0.50204  0.76688  0.10990  1.0000
  H   H1866     1.0  0.29327  0.83036  0.20587  1.0000
  S   S313      1.0  0.28277  0.78315  0.19622  1.0000
  C   C1078     1.0  0.08021  0.75794  0.29014  1.0000
  N   N76       1.0  0.32233  0.82561  0.20069  1.0000
  Fe  Fe157     1.0  0.07068  0.68981  0.36133  1.0000
  S   S314      1.0  0.06374  0.68225  0.34568  1.0000
  H   H1867     1.0  0.21262  0.80571  0.25242  1.0000
  Fe  Fe158     1.0  0.09066  0.71731  0.34314  1.0000
  S   S315      1.0  0.08480  0.71244  0.32612  1.0000
  S   S316      1.0  0.10910  0.73607  0.33863  1.0000
  Fe  Fe159     1.0  0.05719  0.71157  0.33785  1.0000
  S   S317      1.0  0.03193  0.72596  0.33077  1.0000
  Fe  Fe160     1.0  0.09209  0.68393  0.33533  1.0000
  S   S318      1.0  0.11080  0.66515  0.32343  1.0000
  S   S319      1.0  0.06226  0.71917  0.35414  1.0000
  S   S320      1.0  0.09969  0.68868  0.35179  1.0000
  Fe  Fe161     1.0  0.19011  0.70944  0.28637  1.0000
  S   S321      1.0  0.16649  0.72865  0.27973  1.0000
  S   S322      1.0  0.18779  0.68234  0.29824  1.0000
  Fe  Fe162     1.0  0.21549  0.73473  0.27314  1.0000
  S   S323      1.0  0.19376  0.75590  0.26564  1.0000
  S   S324      1.0  0.24255  0.74166  0.26685  1.0000
  Fe  Fe163     1.0  0.17688  0.74855  0.28491  1.0000
  S   S325      1.0  0.16152  0.76693  0.29782  1.0000
  Fe  Fe164     1.0  0.18614  0.73361  0.26113  1.0000
  S   S326      1.0  0.18090  0.73615  0.24189  1.0000
  S   S327      1.0  0.19924  0.72893  0.29289  1.0000
  S   S328      1.0  0.20915  0.71292  0.26739  1.0000
  Fe  Fe165     1.0  0.04061  0.85158  0.31037  1.0000
  S   S329      1.0  0.04798  0.85842  0.32619  1.0000
  C   C1079     1.0  0.01717  0.68044  0.33347  1.0000
  Fe  Fe166     1.0  0.07973  0.83847  0.29849  1.0000
  S   S330      1.0  0.09042  0.84397  0.31336  1.0000
  S   S331      1.0  0.09711  0.82729  0.28177  1.0000
  Fe  Fe167     1.0  0.06765  0.83239  0.32682  1.0000
  S   S332      1.0  0.06795  0.81321  0.34548  1.0000
  Fe  Fe168     1.0  0.06997  0.86953  0.31139  1.0000
  S   S333      1.0  0.07604  0.89657  0.30885  1.0000
  S   S334      1.0  0.05870  0.82473  0.31214  1.0000
  S   S335      1.0  0.06091  0.86493  0.29539  1.0000
  Fe  Fe169     1.0  0.14206  0.92740  0.33814  1.0000
  S   S336      1.0  0.14886  0.94988  0.32183  1.0000
  S   S337      1.0  0.12565  0.90659  0.34133  1.0000
  Fe  Fe170     1.0  0.16753  0.93214  0.35274  1.0000
  S   S338      1.0  0.17684  0.95439  0.33774  1.0000
  Fe  Fe171     1.0  0.14789  0.96443  0.33676  1.0000
  H   H1868     1.0  0.32123  0.95110  0.36421  1.0000
  Fe  Fe172     1.0  0.17728  0.93841  0.32411  1.0000
  S   S339      1.0  0.20089  0.93601  0.30781  1.0000
  S   S340      1.0  0.17087  0.91493  0.33929  1.0000
  Fe  Fe173     1.0  0.25635  0.81344  0.29188  1.0000
  S   S341      1.0  0.24061  0.82865  0.27715  1.0000
  S   S342      1.0  0.25305  0.78582  0.30193  1.0000
  Fe  Fe174     1.0  0.27216  0.84469  0.29085  1.0000
  S   S343      1.0  0.25806  0.86253  0.27560  1.0000
  S   S344      1.0  0.28867  0.85096  0.30215  1.0000
  Fe  Fe175     1.0  0.23426  0.85099  0.28702  1.0000
  S   S345      1.0  0.20553  0.86523  0.29173  1.0000
  Fe  Fe176     1.0  0.26563  0.83861  0.26684  1.0000
  S   S346      1.0  0.27149  0.84042  0.24572  1.0000
  S   S347      1.0  0.24766  0.83488  0.30284  1.0000
  S   S348      1.0  0.28213  0.82158  0.28097  1.0000
  S   S349      1.0  0.21315  0.66746  0.21873  1.0000
  H   H1869     1.0  0.05004  0.79587  0.29844  1.0000
  S   S350      1.0  0.29249  0.74045  0.20834  1.0000
  Fe  Fe177     1.0  0.29999  0.76490  0.20936  1.0000
  S   S351      1.0  0.30261  0.76756  0.22823  1.0000
  C   C1080     1.0  0.25928  0.67963  0.21456  1.0000
  H   H1870     1.0  0.21712  0.79799  0.29177  1.0000
  S   S352      1.0  0.26619  0.94572  0.33889  1.0000
  H   H1871     1.0  0.29025  0.69213  0.23937  1.0000
  C   C1081     1.0  0.30406  0.83452  0.19774  1.0000
  S   S353      1.0  0.30752  0.95099  0.32738  1.0000
  Fe  Fe178     1.0  0.28338  0.96245  0.34086  1.0000
  N   N77       1.0  0.01298  0.66683  0.37724  1.0000
  Fe  Fe179     1.0  0.29104  0.93226  0.32695  1.0000
  S   S354      1.0  0.28516  0.92799  0.30940  1.0000
  H   H1872     1.0  0.27910  0.65453  0.21864  1.0000
  C   C1082     1.0  0.23599  0.91493  0.37101  1.0000
  S   S355      1.0  0.25869  0.91143  0.37164  1.0000
  H   H1873     1.0  0.32597  0.95801  0.38315  1.0000
  C   C1083     1.0  0.33622  0.83626  0.19298  1.0000
  C   C1084     1.0  0.24571  0.87178  0.35008  1.0000
  H   H1874     1.0  0.14240  0.95599  0.37308  1.0000
  C   C1085     1.0  0.00933  0.82013  0.29164  1.0000
  H   H1875     1.0  0.19269  0.87965  0.35229  1.0000
  H   H1876     1.0  0.23285  0.75024  0.24071  1.0000
  H   H1877     1.0  0.33159  0.85024  0.19408  1.0000
  H   H1878     1.0  0.34601  0.98040  0.36381  1.0000
  Fe  Fe180     1.0  0.22029  0.67003  0.19755  1.0000
  C   C1086     1.0  0.27878  0.81976  0.24142  1.0000
  C   C1087     1.0  0.28991  0.80594  0.24808  1.0000
  C   C1088     1.0  0.29713  0.79004  0.24388  1.0000
  C   C1089     1.0  0.29286  0.78763  0.23323  1.0000
  C   C1090     1.0  0.28141  0.80130  0.22666  1.0000
  C   C1091     1.0  0.27448  0.81742  0.23071  1.0000
  H   H1879     1.0  0.29355  0.80780  0.25619  1.0000
  H   H1880     1.0  0.30650  0.77983  0.24869  1.0000
  H   H1881     1.0  0.27819  0.79961  0.21837  1.0000
  H   H1882     1.0  0.26591  0.82817  0.22552  1.0000
  C   C1092     1.0  0.28731  0.87249  0.30411  1.0000
  C   C1093     1.0  0.27802  0.88762  0.29706  1.0000
  C   C1094     1.0  0.27769  0.90454  0.29866  1.0000
  C   C1095     1.0  0.28630  0.90648  0.30749  1.0000
  C   C1096     1.0  0.29537  0.89132  0.31467  1.0000
  C   C1097     1.0  0.29593  0.87442  0.31293  1.0000
  H   H1883     1.0  0.27137  0.88631  0.29022  1.0000
  H   H1884     1.0  0.27076  0.91615  0.29301  1.0000
  H   H1885     1.0  0.30215  0.89263  0.32144  1.0000
  H   H1886     1.0  0.30322  0.86278  0.31838  1.0000
  C   C1098     1.0  0.00232  0.92764  0.31414  1.0000
  C   C1099     1.0  0.01894  0.71033  0.33305  1.0000
  H   H1887     1.0  0.06736  0.76350  0.28687  1.0000
  H   H1888     1.0  0.29143  0.70530  0.20435  1.0000
  H   H1889     1.0  0.23374  0.70088  0.22985  1.0000
  H   H1890     1.0  0.35471  0.73621  0.18936  1.0000
  Fe  Fe181     1.0  0.31586  0.73858  0.19196  1.0000
  H   H1891     1.0  0.38036  0.96962  0.36859  1.0000
  H   H1892     1.0  0.22478  0.91996  0.32809  1.0000
  C   C1100     1.0  0.20193  0.91698  0.30263  1.0000
  C   C1101     1.0  0.21703  0.91036  0.29400  1.0000
  C   C1102     1.0  0.21819  0.89449  0.29052  1.0000
  C   C1103     1.0  0.20430  0.88524  0.29570  1.0000
  C   C1104     1.0  0.18920  0.89197  0.30422  1.0000
  C   C1105     1.0  0.18791  0.90791  0.30756  1.0000
  H   H1893     1.0  0.22791  0.91733  0.29012  1.0000
  H   H1894     1.0  0.22979  0.88952  0.28380  1.0000
  H   H1895     1.0  0.17871  0.88464  0.30847  1.0000
  H   H1896     1.0  0.17604  0.91315  0.31398  1.0000
  C   C1106     1.0  0.22978  0.92320  0.35982  1.0000
  C   C1107     1.0  0.21155  0.92551  0.35969  1.0000
  H   H1897     1.0  0.23899  0.92755  0.35123  1.0000
  H   H1898     1.0  0.20685  0.93172  0.35102  1.0000
  C   C1108     1.0  0.08846  0.89985  0.31866  1.0000
  C   C1109     1.0  0.09421  0.88617  0.32837  1.0000
  C   C1110     1.0  0.10507  0.88876  0.33549  1.0000
  C   C1111     1.0  0.11048  0.90493  0.33289  1.0000
  C   C1112     1.0  0.10438  0.91877  0.32337  1.0000
  C   C1113     1.0  0.09335  0.91624  0.31630  1.0000
  H   H1899     1.0  0.09047  0.87352  0.33032  1.0000
  H   H1900     1.0  0.10964  0.87803  0.34290  1.0000
  H   H1901     1.0  0.10838  0.93131  0.32134  1.0000
  H   H1902     1.0  0.08890  0.92691  0.30883  1.0000
  C   C1114     1.0  0.24448  0.75458  0.27652  1.0000
  C   C1115     1.0  0.23923  0.74954  0.28968  1.0000
  C   C1116     1.0  0.24191  0.75922  0.29746  1.0000
  C   C1117     1.0  0.24938  0.77421  0.29207  1.0000
  C   C1118     1.0  0.25398  0.77966  0.27889  1.0000
  C   C1119     1.0  0.25182  0.76967  0.27111  1.0000
  H   H1903     1.0  0.23368  0.73783  0.29389  1.0000
  H   H1904     1.0  0.23826  0.75505  0.30765  1.0000
  H   H1905     1.0  0.25972  0.79127  0.27468  1.0000
  H   H1906     1.0  0.25586  0.77368  0.26093  1.0000
  C   C1120     1.0  0.19051  0.71725  0.23524  1.0000
  C   C1121     1.0  0.19196  0.71850  0.22229  1.0000
  C   C1122     1.0  0.19925  0.70338  0.21699  1.0000
  C   C1123     1.0  0.20491  0.68695  0.22467  1.0000
  C   C1124     1.0  0.20364  0.68577  0.23753  1.0000
  C   C1125     1.0  0.19645  0.70083  0.24280  1.0000
  H   H1907     1.0  0.18742  0.73115  0.21635  1.0000
  H   H1908     1.0  0.03217  0.68382  0.36835  1.0000
  H   H1909     1.0  0.20817  0.67311  0.24346  1.0000
  H   H1910     1.0  0.19522  0.69958  0.25277  1.0000
  C   C1126     1.0  0.11521  0.81056  0.28597  1.0000
  C   C1127     1.0  0.12752  0.80176  0.27688  1.0000
  C   C1128     1.0  0.14184  0.78813  0.28039  1.0000
  C   C1129     1.0  0.14381  0.78350  0.29295  1.0000
  C   C1130     1.0  0.13173  0.79254  0.30190  1.0000
  C   C1131     1.0  0.11728  0.80580  0.29848  1.0000
  H   H1911     1.0  0.12590  0.80543  0.26718  1.0000
  H   H1912     1.0  0.15129  0.78125  0.27341  1.0000
  H   H1913     1.0  0.13348  0.78922  0.31155  1.0000
  H   H1914     1.0  0.10768  0.81224  0.30556  1.0000
  C   C1132     1.0  0.13189  0.67053  0.31624  1.0000
  C   C1133     1.0  0.13383  0.68817  0.31198  1.0000
  C   C1134     1.0  0.15089  0.69203  0.30619  1.0000
  C   C1135     1.0  0.16607  0.67823  0.30490  1.0000
  C   C1136     1.0  0.16408  0.66066  0.30921  1.0000
  C   C1137     1.0  0.14703  0.65682  0.31468  1.0000
  H   H1915     1.0  0.12219  0.69883  0.31315  1.0000
  H   H1916     1.0  0.15232  0.70564  0.30309  1.0000
  H   H1917     1.0  0.17575  0.64994  0.30830  1.0000
  H   H1918     1.0  0.14562  0.64318  0.31796  1.0000
  C   C1138     1.0  0.09803  0.75732  0.34114  1.0000
  C   C1139     1.0  0.10486  0.77196  0.33347  1.0000
  C   C1140     1.0  0.09549  0.78920  0.33460  1.0000
  C   C1141     1.0  0.07965  0.79176  0.34381  1.0000
  C   C1142     1.0  0.07312  0.77707  0.35177  1.0000
  C   C1143     1.0  0.08214  0.75986  0.35031  1.0000
  H   H1919     1.0  0.11716  0.76994  0.32644  1.0000
  H   H1920     1.0  0.10068  0.80051  0.32857  1.0000
  H   H1921     1.0  0.06093  0.77903  0.35895  1.0000
  H   H1922     1.0  0.07693  0.74859  0.35638  1.0000
  C   C1144     1.0  0.20577  0.91141  0.38193  1.0000
  C   C1145     1.0  0.22421  0.96859  0.32511  1.0000
  H   H1923     1.0  0.22984  0.81122  0.20338  1.0000
  C   C1146     1.0  0.34600  0.79620  0.20131  1.0000
  H   H1924     1.0  0.22828  0.81737  0.21801  1.0000
  H   H1925     1.0  0.05191  0.76658  0.30771  1.0000
  C   C1147     1.0  0.00611  0.70118  0.37073  1.0000
  H   H1926     1.0  0.04153  0.69038  0.32677  1.0000
  H   H1927     1.0  0.31300  0.83986  0.22934  1.0000
  H   H1928     1.0  0.29857  0.84737  0.21845  1.0000
  H   H1929     1.0  0.28548  0.97698  0.36251  1.0000
  C   C1148     1.0  0.32739  0.80676  0.19891  1.0000
  H   H1930     1.0  0.06089  0.79273  0.28249  1.0000
  H   H1931     1.0  0.20022  0.70436  0.20704  1.0000
  H   H1932     1.0  0.07360  0.77006  0.32577  1.0000
  H   H1933     1.0  0.25649  0.86577  0.32569  1.0000
  C   C1149     1.0  0.22042  0.98145  0.29646  1.0000
  H   H1934     1.0  0.09099  0.73074  0.30008  1.0000
  H   H1935     1.0  0.33460  0.82001  0.21692  1.0000
  H   H1936     1.0  0.22898  0.86336  0.31688  1.0000
  H   H1937     1.0  0.24135  0.87994  0.35745  1.0000
  H   H1938     1.0  0.27216  0.85779  0.34068  1.0000
  S   S356      1.0  0.34252  0.92516  0.34902  1.0000
  N   N78       1.0  0.23789  0.97349  0.30088  1.0000
  H   H1939     1.0  0.25869  0.76301  0.24192  1.0000
  C   C1150     1.0  0.20711  0.87330  0.34963  1.0000
  H   H1940     1.0  0.24840  0.90335  0.33951  1.0000
  C   C1151     1.0  0.23728  0.91229  0.32307  1.0000
  H   H1941     1.0  0.08270  0.64965  0.37171  1.0000
  H   H1942     1.0  0.24166  0.88039  0.30978  1.0000
  H   H1943     1.0  0.24934  0.71425  0.20767  1.0000
  S   S357      1.0  0.13830  0.94307  0.35288  1.0000
  N   N79       1.0  0.16272  0.70249  0.33900  1.0000
  C   C1152     1.0  0.16889  0.69406  0.35126  1.0000
  C   C1153     1.0  0.17772  0.69741  0.32817  1.0000
  C   C1154     1.0  0.14646  0.69621  0.33887  1.0000
  C   C1155     1.0  0.15771  0.72233  0.33775  1.0000
  C   C1156     1.0  0.15440  0.69607  0.36347  1.0000
  C   C1157     1.0  0.19520  0.70365  0.32647  1.0000
  C   C1158     1.0  0.14860  0.67591  0.34129  1.0000
  C   C1159     1.0  0.15501  0.73334  0.32452  1.0000
  H   H1944     1.0  0.17481  0.67967  0.35182  1.0000
  H   H1945     1.0  0.17989  0.69983  0.35179  1.0000
  H   H1946     1.0  0.17325  0.70233  0.31903  1.0000
  H   H1947     1.0  0.18175  0.68278  0.32927  1.0000
  H   H1948     1.0  0.13457  0.70129  0.34589  1.0000
  H   H1949     1.0  0.14233  0.70182  0.32967  1.0000
  H   H1950     1.0  0.14509  0.72620  0.34467  1.0000
  H   H1951     1.0  0.16827  0.72693  0.34007  1.0000
  H   H1952     1.0  0.14862  0.71017  0.36393  1.0000
  H   H1953     1.0  0.14343  0.68924  0.36461  1.0000
  H   H1954     1.0  0.16066  0.68986  0.37180  1.0000
  H   H1955     1.0  0.20194  0.69701  0.33450  1.0000
  H   H1956     1.0  0.20469  0.69986  0.31784  1.0000
  H   H1957     1.0  0.19309  0.71820  0.32507  1.0000
  H   H1958     1.0  0.15120  0.66906  0.35080  1.0000
  H   H1959     1.0  0.15911  0.67000  0.33394  1.0000
  H   H1960     1.0  0.13591  0.67296  0.34082  1.0000
  H   H1961     1.0  0.14529  0.74600  0.32565  1.0000
  H   H1962     1.0  0.14955  0.72692  0.31925  1.0000
  H   H1963     1.0  0.16763  0.73727  0.31872  1.0000
  H   H1964     1.0  0.34836  0.78283  0.19931  1.0000
  H   H1965     1.0  0.31264  0.89132  0.36844  1.0000
  H   H1966     1.0  0.20819  0.81100  0.23696  1.0000
  C   C1160     1.0  0.27688  0.68579  0.22712  1.0000
  C   C1161     1.0  0.35279  0.94203  0.38198  1.0000
  C   C1162     1.0  0.25045  0.96318  0.29130  1.0000
  C   C1163     1.0  0.26644  0.86642  0.34766  1.0000
  H   H1967     1.0  0.16991  0.80619  0.32373  1.0000
  H   H1968     1.0  0.19783  0.79480  0.24936  1.0000
  H   H1969     1.0  0.11615  0.74416  0.29130  1.0000
  H   H1970     1.0  0.29992  0.93950  0.38329  1.0000
  C   C1164     1.0  0.27957  0.70083  0.19092  1.0000
  H   H1971     1.0  0.21970  0.88463  0.31987  1.0000
  H   H1972     1.0  0.03242  0.90503  0.28522  1.0000
  H   H1973     1.0  0.02724  0.88694  0.30770  1.0000
  H   H1974     1.0  0.37522  0.97371  0.35316  1.0000
  C   C1165     1.0  0.27078  0.66176  0.21158  1.0000
  H   H1975     1.0  0.25335  0.94289  0.28094  1.0000
  C   C1166     1.0  0.32111  0.82477  0.21452  1.0000
  H   H1976     1.0  0.21101  0.80840  0.21566  1.0000
  C   C1167     1.0  0.24184  0.86890  0.32987  1.0000
  H   H1977     1.0  0.37385  0.91753  0.35952  1.0000
  H   H1978     1.0  0.26362  0.72110  0.21415  1.0000
  H   H1979     1.0  0.02996  0.82920  0.29592  1.0000
  H   H1980     1.0  0.27274  0.87812  0.34459  1.0000
  C   C1168     1.0  0.18848  0.79072  0.30976  1.0000
  H   H1981     1.0  0.04050  0.91810  0.33335  1.0000
  C   C1169     1.0  0.26450  0.98153  0.30577  1.0000
  S   S358      1.0  0.23588  0.64594  0.18989  1.0000
  H   H1982     1.0  0.28694  0.67317  0.22651  1.0000
  H   H1983     1.0  0.06843  0.73427  0.29803  1.0000
  H   H1984     1.0  0.21566  0.89629  0.35030  1.0000
  H   H1985     1.0  0.21469  0.78742  0.27386  1.0000
  S   S359      1.0  0.24009  0.68648  0.18610  1.0000
  H   H1986     1.0  0.26535  0.74362  0.23555  1.0000
  C   C1170     1.0  0.17364  0.79270  0.32182  1.0000
  H   H1987     1.0  0.21189  0.97143  0.29910  1.0000
  Fe  Fe182     1.0  0.27619  0.92610  0.35511  1.0000
  C   C1171     1.0  0.01262  0.78603  0.33065  1.0000
  H   H1988     1.0  0.23191  0.72417  0.22631  1.0000
  H   H1989     1.0  0.32063  0.85272  0.21408  1.0000
  C   C1172     1.0  0.31286  0.84232  0.21912  1.0000
  C   C1173     1.0  0.36352  0.92670  0.36449  1.0000
  H   H1990     1.0  0.31307  0.81500  0.22070  1.0000
  C   C1174     1.0  0.06232  0.79660  0.29086  1.0000
  H   H1991     1.0  0.20369  0.77544  0.28827  1.0000
  H   H1992     1.0  0.48822  0.93616  0.37447  1.0000
  H   H1993     1.0  0.21129  0.89676  0.33571  1.0000
  C   C1175     1.0  0.34697  0.93343  0.36076  1.0000
  H   H1994     1.0  0.23451  0.90786  0.31544  1.0000
  C   C1176     1.0  0.50101  0.94089  0.37152  1.0000
  C   C1177     1.0  0.23252  0.87491  0.31853  1.0000
  H   H1995     1.0  0.26620  0.68238  0.23558  1.0000
  H   H1996     1.0  0.24079  0.85932  0.35462  1.0000
  C   C1178     1.0  0.02726  0.69345  0.33070  1.0000
  C   C1179     1.0  0.33378  0.94535  0.36722  1.0000
  C   C1180     1.0  0.02745  0.91600  0.33274  1.0000
  H   H1997     1.0  0.09675  0.74563  0.31253  1.0000
  H   H1998     1.0  0.20810  0.86475  0.34307  1.0000
  H   H1999     1.0  0.27769  0.71136  0.23085  1.0000
  H   H2000     1.0  0.05116  0.76700  0.33026  1.0000
  H   H2001     1.0  0.26045  0.89254  0.32693  1.0000
  H   H2002     1.0  0.09936  0.76715  0.31117  1.0000
  H   H2003     1.0  0.08766  0.73221  0.28491  1.0000
  C   C1181     1.0  0.01948  0.90073  0.30522  1.0000
  H   H2004     1.0  0.16134  0.78914  0.32113  1.0000
  H   H2005     1.0  0.12661  0.75217  0.30021  1.0000
  H   H2006     1.0  0.01879  0.81082  0.28633  1.0000
  C   C1182     1.0  0.11501  0.75546  0.29558  1.0000
  C   C1183     1.0  0.25851  0.75781  0.23378  1.0000
  H   H2007     1.0  0.19412  0.76939  0.21914  1.0000
  H   H2008     1.0  0.24643  0.92156  0.31836  1.0000
  C   C1184     1.0  0.32012  0.90482  0.38023  1.0000
  H   H2009     1.0  0.19079  0.79241  0.27792  1.0000
  H   H2010     1.0  0.17853  0.78377  0.33022  1.0000
  C   C1185     1.0  0.06454  0.76292  0.31126  1.0000
  C   C1186     1.0  0.21796  0.88792  0.34332  1.0000
  C   C1187     1.0  0.09745  0.75845  0.30563  1.0000
  H   H2011     1.0  0.29903  0.69977  0.22297  1.0000
  H   H2012     1.0  0.34682  0.79409  0.21133  1.0000
  S   S360      1.0  0.17671  0.92204  0.37116  1.0000
  N   N80       1.0  0.30563  0.73661  0.27354  1.0000
  C   C1188     1.0  0.31358  0.75080  0.27524  1.0000
  C   C1189     1.0  0.32020  0.71999  0.27368  1.0000
  C   C1190     1.0  0.29024  0.73367  0.28470  1.0000
  C   C1191     1.0  0.29931  0.74304  0.26122  1.0000
  C   C1192     1.0  0.30028  0.76813  0.27782  1.0000
  C   C1193     1.0  0.33701  0.72120  0.26288  1.0000
  C   C1194     1.0  0.28122  0.71831  0.28597  1.0000
  C   C1195     1.0  0.29518  0.72924  0.25566  1.0000
  H   H2013     1.0  0.32071  0.74569  0.28325  1.0000
  H   H2014     1.0  0.32387  0.75484  0.26670  1.0000
  H   H2015     1.0  0.31539  0.70845  0.27331  1.0000
  H   H2016     1.0  0.32473  0.71597  0.28283  1.0000
  H   H2017     1.0  0.29464  0.73150  0.29374  1.0000
  H   H2018     1.0  0.27922  0.74566  0.28450  1.0000
  H   H2019     1.0  0.28710  0.75381  0.26206  1.0000
  H   H2020     1.0  0.30946  0.74936  0.25368  1.0000
  H   H2021     1.0  0.30792  0.77824  0.27714  1.0000
  H   H2022     1.0  0.29161  0.77377  0.27084  1.0000
  H   H2023     1.0  0.29180  0.76623  0.28755  1.0000
  H   H2024     1.0  0.34475  0.73028  0.26379  1.0000
  H   H2025     1.0  0.34612  0.70791  0.26338  1.0000
  H   H2026     1.0  0.33364  0.72529  0.25339  1.0000
  H   H2027     1.0  0.29053  0.70520  0.28694  1.0000
  H   H2028     1.0  0.27423  0.72062  0.27818  1.0000
  H   H2029     1.0  0.27056  0.71771  0.29478  1.0000
  H   H2030     1.0  0.28102  0.73327  0.25458  1.0000
  H   H2031     1.0  0.29709  0.71552  0.26121  1.0000
  H   H2032     1.0  0.30363  0.72906  0.24599  1.0000
  N   N81       1.0  0.22763  0.77767  0.23058  1.0000
  C   C1196     1.0  0.23932  0.75925  0.23228  1.0000
  C   C1197     1.0  0.20931  0.77584  0.23015  1.0000
  C   C1198     1.0  0.22653  0.78501  0.24191  1.0000
  C   C1199     1.0  0.23635  0.78878  0.21853  1.0000
  C   C1200     1.0  0.20838  0.76895  0.21881  1.0000
  C   C1201     1.0  0.21030  0.80001  0.24516  1.0000
  H   H2033     1.0  0.02577  0.92491  0.29124  1.0000
  H   H2034     1.0  0.24106  0.75328  0.22407  1.0000
  H   H2035     1.0  0.19929  0.78850  0.23009  1.0000
  H   H2036     1.0  0.20387  0.76669  0.23887  1.0000
  H   H2037     1.0  0.22611  0.77436  0.25069  1.0000
  H   H2038     1.0  0.23884  0.79001  0.24082  1.0000
  H   H2039     1.0  0.24918  0.79085  0.21956  1.0000
  H   H2040     1.0  0.24068  0.78175  0.21058  1.0000
  C   C1202     1.0  0.25642  0.71034  0.21564  1.0000
  H   H2041     1.0  0.32722  0.80599  0.18925  1.0000
  H   H2042     1.0  0.24789  0.95227  0.31571  1.0000
  C   C1203     1.0  0.01569  0.83047  0.29710  1.0000
  H   H2043     1.0  0.20957  0.97031  0.32600  1.0000
  S   S361      1.0  0.24879  0.75454  0.19745  1.0000
  C   C1204     1.0  0.03058  0.64870  0.36022  1.0000
  H   H2044     1.0  0.03945  0.63554  0.35940  1.0000
  C   C1205     1.0  0.23497  0.96075  0.31349  1.0000
  C   C1206     1.0  0.24319  0.94896  0.28843  1.0000
  C   C1207     1.0  0.33656  0.94935  0.37791  1.0000
  C   C1208     1.0  0.03018  0.90960  0.32042  1.0000
  C   C1209     1.0  0.24178  0.74613  0.18703  1.0000
  H   H2045     1.0  0.27947  0.66331  0.20194  1.0000
  C   C1210     1.0  0.24155  0.71124  0.22776  1.0000
  C   C1211     1.0  0.24669  0.98789  0.30113  1.0000
  H   H2046     1.0  0.17267  0.95908  0.36718  1.0000
  N   N82       1.0  0.16961  0.98513  0.37096  1.0000
  S   S362      1.0  0.33319  0.71190  0.18965  1.0000
  N   N83       1.0  0.15094  0.67824  0.26821  1.0000
  C   C1212     1.0  0.16925  0.66672  0.26452  1.0000
  C   C1213     1.0  0.14150  0.68135  0.25753  1.0000
  C   C1214     1.0  0.14110  0.66781  0.28013  1.0000
  C   C1215     1.0  0.15331  0.69511  0.27045  1.0000
  C   C1216     1.0  0.18194  0.66209  0.27379  1.0000
  C   C1217     1.0  0.14986  0.69227  0.24469  1.0000
  C   C1218     1.0  0.12169  0.67654  0.28566  1.0000
  C   C1219     1.0  0.13700  0.71100  0.27050  1.0000
  H   H2047     1.0  0.16801  0.65399  0.26295  1.0000
  H   H2048     1.0  0.17680  0.67318  0.25540  1.0000
  H   H2049     1.0  0.12723  0.68801  0.25987  1.0000
  H   H2050     1.0  0.14099  0.66844  0.25582  1.0000
  H   H2051     1.0  0.14071  0.65475  0.27862  1.0000
  H   H2052     1.0  0.14826  0.66479  0.28795  1.0000
  H   H2053     1.0  0.15746  0.69245  0.27962  1.0000
  H   H2054     1.0  0.16465  0.69993  0.26319  1.0000
  H   H2055     1.0  0.19502  0.65418  0.26965  1.0000
  H   H2056     1.0  0.18491  0.67409  0.27517  1.0000
  H   H2057     1.0  0.17688  0.65381  0.28305  1.0000
  H   H2058     1.0  0.15234  0.70481  0.24556  1.0000
  H   H2059     1.0  0.16252  0.68452  0.23991  1.0000
  H   H2060     1.0  0.14044  0.69589  0.23820  1.0000
  H   H2061     1.0  0.11261  0.67987  0.27902  1.0000
  H   H2062     1.0  0.12121  0.68825  0.28928  1.0000
  H   H2063     1.0  0.11614  0.66696  0.29405  1.0000
  H   H2064     1.0  0.13361  0.71534  0.27963  1.0000
  H   H2065     1.0  0.12459  0.70852  0.26930  1.0000
  H   H2066     1.0  0.14057  0.72247  0.26291  1.0000
  N   N84       1.0  0.18891  0.80708  0.29932  1.0000
  C   C1220     1.0  0.20428  0.80283  0.28849  1.0000
  C   C1221     1.0  0.19175  0.82216  0.30367  1.0000
  C   C1222     1.0  0.17122  0.81268  0.29526  1.0000
  C   C1223     1.0  0.20650  0.81745  0.31132  1.0000
  C   C1224     1.0  0.16992  0.82813  0.28364  1.0000
  H   H2067     1.0  0.20618  0.81496  0.28104  1.0000
  H   H2068     1.0  0.17920  0.82869  0.30945  1.0000
  H   H2069     1.0  0.19541  0.83283  0.29540  1.0000
  H   H2070     1.0  0.16787  0.80140  0.29315  1.0000
  H   H2071     1.0  0.21968  0.81143  0.30602  1.0000
  H   H2072     1.0  0.20806  0.82981  0.31320  1.0000
  H   H2073     1.0  0.20299  0.80857  0.32066  1.0000
  H   H2074     1.0  0.17899  0.82441  0.27489  1.0000
  H   H2075     1.0  0.17278  0.84014  0.28507  1.0000
  H   H2076     1.0  0.15601  0.83160  0.28206  1.0000
  H   H2077     1.0  0.20410  0.96106  0.36680  1.0000
  N   N85       1.0  0.13757  0.88619  0.29308  1.0000
  C   C1225     1.0  0.12870  0.87044  0.29862  1.0000
  C   C1226     1.0  0.12495  0.90042  0.28589  1.0000
  C   C1227     1.0  0.13992  0.89244  0.30393  1.0000
  C   C1228     1.0  0.15552  0.88017  0.28475  1.0000
  C   C1229     1.0  0.13730  0.85563  0.30861  1.0000
  C   C1230     1.0  0.12091  0.89561  0.27470  1.0000
  C   C1231     1.0  0.14331  0.91130  0.30125  1.0000
  C   C1232     1.0  0.16585  0.89450  0.27630  1.0000
  H   H2078     1.0  0.11435  0.87473  0.30326  1.0000
  H   H2079     1.0  0.12843  0.86397  0.29108  1.0000
  H   H2080     1.0  0.12979  0.91294  0.28208  1.0000
  H   H2081     1.0  0.11184  0.90417  0.29243  1.0000
  H   H2082     1.0  0.12776  0.89211  0.31163  1.0000
  H   H2083     1.0  0.15096  0.88320  0.30824  1.0000
  H   H2084     1.0  0.16491  0.87094  0.29061  1.0000
  H   H2085     1.0  0.15436  0.87202  0.27851  1.0000
  H   H2086     1.0  0.13490  0.85999  0.31763  1.0000
  H   H2087     1.0  0.13087  0.84411  0.31087  1.0000
  H   H2088     1.0  0.15186  0.85093  0.30520  1.0000
  H   H2089     1.0  0.13331  0.89163  0.26772  1.0000
  H   H2090     1.0  0.11297  0.88510  0.27796  1.0000
  H   H2091     1.0  0.11253  0.90745  0.26967  1.0000
  H   H2092     1.0  0.13144  0.92161  0.29897  1.0000
  H   H2093     1.0  0.15539  0.91343  0.29383  1.0000
  H   H2094     1.0  0.14555  0.91343  0.31005  1.0000
  H   H2095     1.0  0.17581  0.89609  0.28102  1.0000
  H   H2096     1.0  0.15736  0.90760  0.27339  1.0000
  H   H2097     1.0  0.17339  0.89030  0.26732  1.0000
  H   H2098     1.0  0.16004  0.81663  0.30313  1.0000
  C   C1233     1.0  0.20119  0.97168  0.35856  1.0000
  C   C1234     1.0  0.20298  0.78874  0.28190  1.0000
  H   H2099     1.0  0.05619  0.78680  0.31935  1.0000
  H   H2100     1.0  0.21363  0.77719  0.20957  1.0000
  N   N86       1.0  0.23783  0.88153  0.33860  1.0000
  H   H2101     1.0  0.35697  0.80250  0.19489  1.0000
  H   H2102     1.0  0.18616  0.77984  0.30644  1.0000
  H   H2103     1.0  0.20178  0.78507  0.31244  1.0000
  H   H2104     1.0  0.11629  0.76744  0.28799  1.0000
  H   H2105     1.0  0.06602  0.74851  0.31559  1.0000
  H   H2106     1.0  0.26666  0.76452  0.22504  1.0000
  Fe  Fe183     1.0  0.31451  0.93169  0.34496  1.0000
  H   H2107     1.0  0.08131  0.79219  0.30261  1.0000
  S   S363      1.0  0.30034  0.91166  0.34325  1.0000
  H   H2108     1.0  0.21899  0.73884  0.20125  1.0000
  H   H2109     1.0  0.21538  0.75490  0.21929  1.0000
  C   C1235     1.0  0.14507  0.96715  0.37585  1.0000
  H   H2110     1.0  0.06320  0.81079  0.28777  1.0000
  C   C1236     1.0  0.07957  0.78581  0.29548  1.0000
  H   H2111     1.0  0.27044  0.85876  0.35667  1.0000
  S   S364      1.0  0.29101  0.94400  0.35838  1.0000
  H   H2112     1.0  0.00731  0.77800  0.30764  1.0000
  H   H2113     1.0  0.16074  0.97653  0.35742  1.0000
  H   H2114     1.0  0.21106  0.86513  0.35852  1.0000
  H   H2115     1.0  0.09058  0.76141  0.28147  1.0000
  C   C1237     1.0  0.02763  0.65132  0.37382  1.0000
  C   C1238     1.0  0.06133  0.77236  0.32219  1.0000
  H   H2116     1.0  0.23067  0.95447  0.28480  1.0000
  H   H2117     1.0  0.21407  0.97568  0.35336  1.0000
  C   C1239     1.0  0.24670  0.89708  0.33230  1.0000
  H   H2118     1.0  0.30181  0.84917  0.19642  1.0000
  S   S365      1.0  0.32487  0.76152  0.19421  1.0000
  H   H2119     1.0  0.29531  0.68270  0.20399  1.0000
  C   C1240     1.0  0.08179  0.73767  0.29360  1.0000
  H   H2120     1.0  0.09094  0.78809  0.28730  1.0000
  H   H2121     1.0  0.24692  0.71035  0.23611  1.0000
  N   N87       1.0  0.08044  0.76624  0.30063  1.0000
  H   H2122     1.0  0.23894  0.85573  0.33520  1.0000
  H   H2123     1.0  0.24101  0.93808  0.29681  1.0000
  H   H2124     1.0  0.01049  0.71194  0.36279  1.0000
  H   H2125     1.0  0.26316  0.95606  0.29443  1.0000
  H   H2126     1.0  0.01789  0.64915  0.35763  1.0000
  H   H2127     1.0  0.26164  0.65323  0.21184  1.0000
  H   H2128     1.0  0.22796  0.95931  0.33378  1.0000
  H   H2129     1.0  0.22750  0.95105  0.31314  1.0000
  H   H2130     1.0  0.03803  0.91851  0.31289  1.0000
  C   C1241     1.0  0.19955  0.91955  0.37077  1.0000
  H   H2131     1.0  0.25088  0.68556  0.20740  1.0000
  C   C1242     1.0  0.28641  0.69817  0.23008  1.0000
  N   N88       1.0  0.26934  0.69271  0.21531  1.0000
  H   H2132     1.0  0.31719  0.79918  0.20523  1.0000
  H   H2133     1.0  0.25443  0.97231  0.28209  1.0000
  C   C1243     1.0  0.22561  0.80748  0.21386  1.0000
  H   H2134     1.0  0.22730  0.98119  0.32518  1.0000
  H   H2135     1.0  0.37899  0.92520  0.37812  1.0000
  C   C1244     1.0  0.01827  0.68332  0.36830  1.0000
  H   H2136     1.0  0.02371  0.66735  0.33173  1.0000
  H   H2137     1.0  0.24951  0.67630  0.22361  1.0000
  H   H2138     1.0  0.34883  0.83169  0.19662  1.0000
  H   H2139     1.0  0.02542  0.63860  0.38022  1.0000
  C   C1245     1.0  0.16279  0.97176  0.36733  1.0000
  S   S366      1.0  0.01103  0.85651  0.31035  1.0000
  H   H2140     1.0  0.03930  0.89630  0.32149  1.0000
  C   C1246     1.0  0.28465  0.69503  0.20399  1.0000
  C   C1247     1.0  0.32376  0.88974  0.37319  1.0000
  H   H2141     1.0  0.02024  0.77579  0.32512  1.0000
  H   H2142     1.0  0.20849  0.72635  0.18736  1.0000
  C   C1248     1.0  0.36648  0.93107  0.37501  1.0000
  H   H2143     1.0  0.02079  0.79627  0.32824  1.0000
  H   H2144     1.0  0.22297  0.98547  0.28592  1.0000
  H   H2145     1.0  0.31314  0.91670  0.37429  1.0000
  H   H2146     1.0  0.03754  0.65867  0.35318  1.0000
  C   C1249     1.0  0.07736  0.64508  0.38168  1.0000
  H   H2147     1.0  0.01851  0.68326  0.35837  1.0000
  H   H2148     1.0  0.04071  0.65265  0.37503  1.0000
  H   H2149     1.0  0.19689  0.96626  0.35202  1.0000
  C   C1250     1.0  0.17137  0.98003  0.38459  1.0000
  C   C1251     1.0  0.22392  0.90901  0.38203  1.0000
  H   H2150     1.0  0.27042  0.71404  0.18974  1.0000
  C   C1252     1.0  0.03134  0.91048  0.29357  1.0000
  N   N89       1.0  0.01342  0.90902  0.31667  1.0000
  H   H2151     1.0  0.33633  0.89025  0.36580  1.0000
  H   H2152     1.0  0.01144  0.78019  0.34091  1.0000
  Fe  Fe184     1.0  0.27705  0.75828  0.19396  1.0000
  H   H2153     1.0  0.02355  0.90581  0.34126  1.0000
  H   H2154     1.0  0.26280  0.97335  0.31553  1.0000
  H   H2155     1.0  0.33321  0.90810  0.37943  1.0000
  S   S367      1.0  0.05934  0.67969  0.38198  1.0000
  H   H2156     1.0  0.04523  0.90817  0.29493  1.0000
  C   C1253     1.0  0.22629  0.73907  0.19156  1.0000
  H   H2157     1.0  0.35542  0.97955  0.38191  1.0000
  H   H2158     1.0  0.27538  0.97418  0.29934  1.0000
  H   H2159     1.0  0.18166  0.95115  0.38455  1.0000
  H   H2160     1.0  0.01763  0.92876  0.33298  1.0000
  H   H2161     1.0  0.01132  0.93720  0.30955  1.0000
  C   C1254     1.0  0.18725  0.98810  0.36217  1.0000
  H   H2162     1.0  0.09135  0.61788  0.38198  1.0000
  H   H2163     1.0  0.49755  0.95430  0.37362  1.0000
  H   H2164     1.0  0.00482  0.75623  0.30853  1.0000
  H   H2165     1.0  0.46366  0.98336  0.38503  1.0000
  H   H2166     1.0  0.13346  0.97837  0.37459  1.0000
  H   H2167     1.0  0.01207  0.88370  0.32963  1.0000
  H   H2168     1.0  0.00752  0.70414  0.37947  1.0000
  H   H2169     1.0  0.00812  0.89910  0.30198  1.0000
  H   H2170     1.0  0.39617  0.97649  0.35458  1.0000
  C   C1255     1.0  0.38161  0.97830  0.35900  1.0000
  H   H2171     1.0  0.27358  0.69107  0.18907  1.0000
  H   H2172     1.0  0.29794  0.81715  0.18795  1.0000
  C   C1256     1.0  0.29976  0.83093  0.18615  1.0000
  C   C1257     1.0  0.00335  0.89714  0.32750  1.0000
  C   C1258     1.0  0.00356  0.84279  0.30377  1.0000
  H   H2173     1.0  0.29445  0.99002  0.37673  1.0000
  H   H2174     1.0  0.32623  0.87633  0.37921  1.0000
  H   H2175     1.0  0.00227  0.69081  0.31094  1.0000
  H   H2176     1.0  0.27626  0.62300  0.18599  1.0000
  C   C1259     1.0  0.28690  0.99051  0.35958  1.0000
  H   H2177     1.0  0.22861  0.90256  0.39069  1.0000
  S   S368      1.0  0.42647  0.96415  0.52542  1.0000
  H   H2178     1.0  0.48982  0.95681  0.44718  1.0000
  Fe  Fe185     1.0  0.43072  0.95139  0.49343  1.0000
  S   S369      1.0  0.43286  0.93107  0.51142  1.0000
  C   C1260     1.0  0.03047  0.49312  0.48727  1.0000
  Fe  Fe186     1.0  0.40940  0.94976  0.52057  1.0000
  H   H2179     1.0  0.07935  0.64016  0.44774  1.0000
  S   S370      1.0  0.40609  0.96894  0.50223  1.0000
  H   H2180     1.0  0.28157  0.90489  0.40324  1.0000
  Fe  Fe187     1.0  0.04146  0.59790  0.54772  1.0000
  S   S371      1.0  0.06858  0.59768  0.55035  1.0000
  S   S372      1.0  0.02888  0.57400  0.55440  1.0000
  Fe  Fe188     1.0  0.03656  0.63580  0.53313  1.0000
  S   S373      1.0  0.06313  0.63906  0.53454  1.0000
  C   C1261     1.0  0.45556  0.95854  0.39378  1.0000
  Fe  Fe189     1.0  0.07323  0.61201  0.53002  1.0000
  S   S374      1.0  0.09956  0.60624  0.51637  1.0000
  Fe  Fe190     1.0  0.05616  0.62470  0.55476  1.0000
  S   S375      1.0  0.06221  0.62944  0.57215  1.0000
  S   S376      1.0  0.04726  0.61001  0.52699  1.0000
  S   S377      1.0  0.02834  0.62373  0.55377  1.0000
  C   C1262     1.0  0.06878  0.54584  0.53195  1.0000
  C   C1263     1.0  0.06274  0.53032  0.53366  1.0000
  H   H2181     1.0  0.28907  0.87332  0.40353  1.0000
  H   H2182     1.0  0.44873  0.97301  0.41811  1.0000
  C   C1264     1.0  0.01058  0.57771  0.42309  1.0000
  H   H2183     1.0  0.08153  0.54757  0.52567  1.0000
  H   H2184     1.0  0.03087  0.55403  0.48265  1.0000
  H   H2185     1.0  0.00990  0.53316  0.53232  1.0000
  C   C1265     1.0  0.00814  0.54661  0.43135  1.0000
  C   C1266     1.0  0.31868  0.88593  0.40204  1.0000
  H   H2186     1.0  0.13105  0.53008  0.46490  1.0000
  H   H2187     1.0  0.37449  0.95549  0.50481  1.0000
  Fe  Fe191     1.0  0.41629  0.94363  0.40546  1.0000
  S   S378      1.0  0.39154  0.93417  0.41779  1.0000
  S   S379      1.0  0.44448  0.92756  0.40546  1.0000
  C   C1267     1.0  0.10267  0.52873  0.46764  1.0000
  H   H2188     1.0  0.47267  0.97815  0.42381  1.0000
  H   H2189     1.0  0.03937  0.55345  0.42991  1.0000
  Fe  Fe192     1.0  0.38516  0.95975  0.42421  1.0000
  S   S380      1.0  0.37456  0.96398  0.44420  1.0000
  Fe  Fe193     1.0  0.37826  0.94993  0.40150  1.0000
  Fe  Fe194     1.0  0.42503  0.98184  0.50630  1.0000
  S   S381      1.0  0.41060  0.96808  0.41315  1.0000
  S   S382      1.0  0.01594  0.61234  0.45666  1.0000
  Fe  Fe195     1.0  0.08302  0.58684  0.45463  1.0000
  S   S383      1.0  0.09049  0.56894  0.44078  1.0000
  S   S384      1.0  0.10461  0.58884  0.46343  1.0000
  Fe  Fe196     1.0  0.04461  0.59846  0.45175  1.0000
  H   H2190     1.0  0.31082  0.88458  0.41201  1.0000
  Fe  Fe197     1.0  0.06429  0.56100  0.45064  1.0000
  S   S385      1.0  0.36999  0.97478  0.40911  1.0000
  S   S386      1.0  0.05833  0.57686  0.46557  1.0000
  S   S387      1.0  0.06878  0.61021  0.44204  1.0000
  C   C1268     1.0  0.48767  0.95205  0.51914  1.0000
  H   H2191     1.0  0.02330  0.53975  0.55477  1.0000
  H   H2192     1.0  0.01989  0.64008  0.40000  1.0000
  H   H2193     1.0  0.04978  0.66023  0.40729  1.0000
  C   C1269     1.0  0.40085  0.89898  0.49889  1.0000
  H   H2194     1.0  0.01592  0.54091  0.49365  1.0000
  H   H2195     1.0  0.38330  0.98193  0.53854  1.0000
  C   C1270     1.0  0.33825  0.88543  0.40225  1.0000
  H   H2196     1.0  0.00960  0.64612  0.57298  1.0000
  C   C1271     1.0  0.03340  0.61980  0.48305  1.0000
  H   H2197     1.0  0.07987  0.62915  0.48463  1.0000
  C   C1272     1.0  0.36334  0.95034  0.57294  1.0000
  H   H2198     1.0  0.02375  0.55551  0.52660  1.0000
  H   H2199     1.0  0.04704  0.57880  0.41217  1.0000
  C   C1273     1.0  0.08657  0.49657  0.47016  1.0000
  H   H2200     1.0  0.39026  0.95275  0.57173  1.0000
  H   H2201     1.0  0.46065  0.96985  0.46031  1.0000
  C   C1274     1.0  0.03702  0.55387  0.42047  1.0000
  H   H2202     1.0  0.27286  0.88481  0.39417  1.0000
  H   H2203     1.0  0.36982  0.90485  0.51620  1.0000
  H   H2204     1.0  0.29528  0.87736  0.38637  1.0000
  H   H2205     1.0  0.40001  0.88706  0.49600  1.0000
  H   H2206     1.0  0.31901  0.87354  0.39934  1.0000
  C   C1275     1.0  0.00227  0.77205  0.58180  1.0000
  H   H2207     1.0  0.24961  0.92584  0.57905  1.0000
  C   C1276     1.0  0.36440  0.92711  0.48043  1.0000
  H   H2208     1.0  0.01403  0.52498  0.42097  1.0000
  H   H2209     1.0  0.03920  0.53253  0.49166  1.0000
  C   C1277     1.0  0.37130  0.94563  0.50094  1.0000
  H   H2210     1.0  0.36590  0.89019  0.49441  1.0000
  H   H2211     1.0  0.01769  0.57091  0.40066  1.0000
  H   H2212     1.0  0.49122  0.92798  0.47805  1.0000
  H   H2213     1.0  0.04139  0.51632  0.54303  1.0000
  C   C1278     1.0  0.38702  0.92939  0.50093  1.0000
  C   C1279     1.0  0.02999  0.55340  0.50249  1.0000
  H   H2214     1.0  0.07767  0.65213  0.47807  1.0000
  H   H2215     1.0  0.01155  0.51198  0.49677  1.0000
  C   C1280     1.0  0.46643  0.97072  0.39150  1.0000
  C   C1281     1.0  0.05882  0.65101  0.40174  1.0000
  Fe  Fe198     1.0  0.39614  0.98083  0.39735  1.0000
  S   S388      1.0  0.35416  0.94460  0.39683  1.0000
  H   H2216     1.0  0.48383  0.95108  0.47636  1.0000
  H   H2217     1.0  0.40164  0.94788  0.54975  1.0000
  C   C1282     1.0  0.09997  0.60068  0.50208  1.0000
  C   C1283     1.0  0.11539  0.60166  0.49247  1.0000
  C   C1284     1.0  0.11642  0.59789  0.48081  1.0000
  C   C1285     1.0  0.10204  0.59313  0.47850  1.0000
  C   C1286     1.0  0.08655  0.59182  0.48814  1.0000
  C   C1287     1.0  0.08556  0.59554  0.49998  1.0000
  H   H2218     1.0  0.12662  0.60545  0.49402  1.0000
  H   H2219     1.0  0.12847  0.59876  0.47346  1.0000
  H   H2220     1.0  0.07550  0.58785  0.48650  1.0000
  H   H2221     1.0  0.07378  0.59428  0.50745  1.0000
  C   C1288     1.0  0.06972  0.64769  0.57339  1.0000
  C   C1289     1.0  0.07143  0.66249  0.56346  1.0000
  C   C1290     1.0  0.07823  0.67628  0.56483  1.0000
  H   H2222     1.0  0.00966  0.65501  0.41025  1.0000
  H   H2223     1.0  0.03378  0.63600  0.49548  1.0000
  H   H2224     1.0  0.04254  0.54021  0.41879  1.0000
  H   H2225     1.0  0.06769  0.66327  0.55471  1.0000
  H   H2226     1.0  0.07992  0.68752  0.55704  1.0000
  C   C1291     1.0  0.38776  0.94780  0.55437  1.0000
  H   H2227     1.0  0.01709  0.70400  0.57971  1.0000
  H   H2228     1.0  0.34947  0.94190  0.54938  1.0000
  C   C1292     1.0  0.00661  0.53209  0.52361  1.0000
  H   H2229     1.0  0.01791  0.58721  0.41578  1.0000
  H   H2230     1.0  0.29838  0.94632  0.39745  1.0000
  H   H2231     1.0  0.35858  0.94256  0.50720  1.0000
  C   C1293     1.0  0.48423  0.95041  0.40598  1.0000
  S   S389      1.0  0.43574  0.94212  0.47532  1.0000
  C   C1294     1.0  0.01668  0.56731  0.52067  1.0000
  S   S390      1.0  0.08227  0.59864  0.40766  1.0000
  C   C1295     1.0  0.35839  0.94434  0.55421  1.0000
  H   H2232     1.0  0.01470  0.58623  0.49523  1.0000
  C   C1296     1.0  0.41867  0.94876  0.46668  1.0000
  C   C1297     1.0  0.40234  0.95999  0.47064  1.0000
  C   C1298     1.0  0.38884  0.96471  0.46367  1.0000
  C   C1299     1.0  0.39175  0.95845  0.45261  1.0000
  C   C1300     1.0  0.40821  0.94754  0.44851  1.0000
  C   C1301     1.0  0.42158  0.94261  0.45559  1.0000
  H   H2233     1.0  0.40007  0.96504  0.47905  1.0000
  C   C1302     1.0  0.47950  0.96992  0.51591  1.0000
  H   H2234     1.0  0.41055  0.94262  0.43999  1.0000
  N   N90       1.0  0.45959  0.98653  0.44170  1.0000
  C   C1303     1.0  0.05844  0.55918  0.53840  1.0000
  C   C1304     1.0  0.04207  0.55700  0.54667  1.0000
  C   C1305     1.0  0.03599  0.54145  0.54842  1.0000
  H   H2235     1.0  0.06325  0.57111  0.53698  1.0000
  S   S391      1.0  0.38374  0.94158  0.53233  1.0000
  C   C1306     1.0  0.06702  0.50228  0.42671  1.0000
  H   H2236     1.0  0.06909  0.65978  0.45372  1.0000
  H   H2237     1.0  0.02314  0.61428  0.49092  1.0000
  H   H2238     1.0  0.35799  0.91732  0.47893  1.0000
  N   N91       1.0  0.01255  0.56236  0.50987  1.0000
  H   H2239     1.0  0.44126  0.96647  0.43443  1.0000
  C   C1307     1.0  0.14731  0.97218  0.58146  1.0000
  H   H2240     1.0  0.07034  0.62103  0.46881  1.0000
  H   H2241     1.0  0.07887  0.54343  0.50078  1.0000
  H   H2242     1.0  0.04233  0.57611  0.51191  1.0000
  N   N92       1.0  0.30965  0.90212  0.39373  1.0000
  C   C1308     1.0  0.08130  0.53978  0.49149  1.0000
  C   C1309     1.0  0.46069  0.96865  0.45063  1.0000
  C   C1310     1.0  0.07463  0.51718  0.42390  1.0000
  C   C1311     1.0  0.06371  0.63309  0.40755  1.0000
  H   H2243     1.0  0.34348  0.87288  0.40855  1.0000
  C   C1312     1.0  0.08289  0.67560  0.57621  1.0000
  H   H2244     1.0  0.34723  0.88560  0.39273  1.0000
  H   H2245     1.0  0.47610  0.92539  0.41460  1.0000
  H   H2246     1.0  0.00760  0.81430  0.58135  1.0000
  H   H2247     1.0  0.33807  0.94694  0.57127  1.0000
  H   H2248     1.0  0.37184  0.98029  0.52148  1.0000
  H   H2249     1.0  0.01740  0.65638  0.47577  1.0000
  H   H2250     1.0  0.05833  0.62856  0.41750  1.0000
  C   C1313     1.0  0.48053  0.96688  0.39775  1.0000
  H   H2251     1.0  0.02618  0.62855  0.47574  1.0000
  H   H2252     1.0  0.37489  0.87814  0.50830  1.0000
  H   H2253     1.0  0.13033  0.94979  0.58089  1.0000
  C   C1314     1.0  0.01236  0.66828  0.39049  1.0000
  H   H2254     1.0  0.01838  0.52436  0.51803  1.0000
  C   C1315     1.0  0.02873  0.54490  0.49205  1.0000
  H   H2255     1.0  0.40645  0.98307  0.54629  1.0000
  N   N93       1.0  0.01718  0.55927  0.42050  1.0000
  H   H2256     1.0  0.47550  0.94139  0.45374  1.0000
  H   H2257     1.0  0.49508  0.94736  0.41086  1.0000
  H   H2258     1.0  0.05706  0.65991  0.49765  1.0000
  H   H2259     1.0  0.30438  0.91529  0.40936  1.0000
  H   H2260     1.0  0.46630  0.97353  0.51385  1.0000
  H   H2261     1.0  0.02966  0.58398  0.52578  1.0000
  H   H2262     1.0  0.02709  0.52086  0.43277  1.0000
  C   C1316     1.0  0.00418  0.57926  0.50172  1.0000
  H   H2263     1.0  0.01813  0.52015  0.48021  1.0000
  C   C1317     1.0  0.04352  0.66030  0.47651  1.0000
  C   C1318     1.0  0.05729  0.49692  0.43897  1.0000
  H   H2264     1.0  0.02159  0.67781  0.46825  1.0000
  H   H2265     1.0  0.48153  0.93686  0.49204  1.0000
  H   H2266     1.0  0.15799  0.98148  0.39121  1.0000
  H   H2267     1.0  0.11752  0.54934  0.45723  1.0000
  C   C1319     1.0  0.29658  0.93554  0.39373  1.0000
  H   H2268     1.0  0.44446  0.96181  0.38908  1.0000
  H   H2269     1.0  0.05216  0.63442  0.46204  1.0000
  S   S392      1.0  0.04888  0.58191  0.43766  1.0000
  H   H2270     1.0  0.02532  0.57465  0.46378  1.0000
  H   H2271     1.0  0.10843  0.52559  0.49240  1.0000
  H   H2272     1.0  0.02507  0.67132  0.39091  1.0000
  C   C1320     1.0  0.28713  0.88300  0.39459  1.0000
  C   C1321     1.0  0.44438  0.97807  0.42698  1.0000
  C   C1322     1.0  0.24264  0.93593  0.58446  1.0000
  H   H2273     1.0  0.39265  0.92655  0.47756  1.0000
  H   H2274     1.0  0.19654  0.90678  0.39051  1.0000
  H   H2275     1.0  0.08530  0.55120  0.48410  1.0000
  H   H2276     1.0  0.12099  0.49557  0.47084  1.0000
  C   C1323     1.0  0.30893  0.91800  0.39884  1.0000
  H   H2277     1.0  0.17708  0.95660  0.39936  1.0000
  H   H2278     1.0  0.05216  0.66982  0.47089  1.0000
  H   H2279     1.0  0.42310  0.91257  0.49527  1.0000
  H   H2280     1.0  0.03802  0.54314  0.50890  1.0000
  C   C1324     1.0  0.09607  0.52271  0.49118  1.0000
  C   C1325     1.0  0.06268  0.63497  0.46667  1.0000
  C   C1326     1.0  0.45894  0.94223  0.40215  1.0000
  Fe  Fe199     1.0  0.07429  0.59163  0.42899  1.0000
  C   C1327     1.0  0.11750  0.53885  0.46603  1.0000
  C   C1328     1.0  0.47700  0.95403  0.44682  1.0000
  C   C1329     1.0  0.06577  0.65708  0.38884  1.0000
  C   C1330     1.0  0.48829  0.98314  0.51555  1.0000
  H   H2281     1.0  0.11672  0.59182  0.56377  1.0000
  H   H2282     1.0  0.02681  0.62150  0.58449  1.0000
  H   H2283     1.0  0.06345  0.55908  0.41073  1.0000
  H   H2284     1.0  0.09916  0.49302  0.56409  1.0000
  C   C1331     1.0  0.04920  0.56539  0.41036  1.0000
  C   C1332     1.0  0.10672  0.60434  0.56474  1.0000
  C   C1333     1.0  0.08404  0.50742  0.48022  1.0000
  H   H2285     1.0  0.08995  0.53865  0.46662  1.0000
  H   H2286     1.0  0.06581  0.49762  0.55568  1.0000
  H   H2287     1.0  0.10637  0.52273  0.45919  1.0000
  C   C1334     1.0  0.04367  0.62914  0.48827  1.0000
  H   H2288     1.0  0.35498  0.93455  0.48737  1.0000
  H   H2289     1.0  0.11533  0.54567  0.47386  1.0000
  H   H2290     1.0  0.04268  0.60860  0.47902  1.0000
  H   H2291     1.0  0.40168  0.89464  0.50908  1.0000
  H   H2292     1.0  0.12703  0.61724  0.56521  1.0000
  C   C1335     1.0  0.04621  0.52820  0.54177  1.0000
  N   N94       1.0  0.12181  0.62661  0.54619  1.0000
  C   C1336     1.0  0.11563  0.62051  0.56034  1.0000
  C   C1337     1.0  0.13199  0.64089  0.54429  1.0000
  C   C1338     1.0  0.13434  0.61099  0.54118  1.0000
  C   C1339     1.0  0.10557  0.63298  0.54027  1.0000
  C   C1340     1.0  0.00921  0.65206  0.40123  1.0000
  C   C1341     1.0  0.12102  0.65752  0.54943  1.0000
  C   C1342     1.0  0.14261  0.61420  0.52687  1.0000
  C   C1343     1.0  0.10748  0.64587  0.52712  1.0000
  H   H2293     1.0  0.10560  0.63128  0.56446  1.0000
  H   H2294     1.0  0.09182  0.51298  0.49993  1.0000
  H   H2295     1.0  0.13802  0.64559  0.53422  1.0000
  H   H2296     1.0  0.14374  0.63551  0.54890  1.0000
  H   H2297     1.0  0.14560  0.60555  0.54627  1.0000
  H   H2298     1.0  0.12725  0.60003  0.54290  1.0000
  H   H2299     1.0  0.10102  0.62148  0.53934  1.0000
  H   H2300     1.0  0.09403  0.63989  0.54665  1.0000
  H   H2301     1.0  0.05733  0.63679  0.50473  1.0000
  H   H2302     1.0  0.04781  0.56641  0.40061  1.0000
  H   H2303     1.0  0.02244  0.59395  0.51136  1.0000
  H   H2304     1.0  0.12903  0.66797  0.54613  1.0000
  H   H2305     1.0  0.10836  0.66313  0.54601  1.0000
  H   H2306     1.0  0.11797  0.65481  0.55994  1.0000
  H   H2307     1.0  0.15051  0.62468  0.52365  1.0000
  H   H2308     1.0  0.13224  0.61698  0.52123  1.0000
  H   H2309     1.0  0.15206  0.60182  0.52471  1.0000
  H   H2310     1.0  0.10147  0.64160  0.52087  1.0000
  H   H2311     1.0  0.12131  0.64667  0.52192  1.0000
  H   H2312     1.0  0.09960  0.65939  0.52800  1.0000
  H   H2313     1.0  0.35160  0.88812  0.50989  1.0000
  H   H2314     1.0  0.44875  0.96325  0.45185  1.0000
  H   H2315     1.0  0.33932  0.89637  0.40611  1.0000
  C   C1344     1.0  0.38131  0.95050  0.56683  1.0000
  C   C1345     1.0  0.05474  0.50659  0.44825  1.0000
  H   H2316     1.0  0.03886  0.56300  0.49768  1.0000
  C   C1346     1.0  0.11670  0.50051  0.47980  1.0000
  C   C1347     1.0  0.36850  0.90713  0.50620  1.0000
  H   H2317     1.0  0.09602  0.60585  0.55968  1.0000
  H   H2318     1.0  0.15502  0.96210  0.57575  1.0000
  H   H2319     1.0  0.03727  0.66463  0.48564  1.0000
  C   C1348     1.0  0.06286  0.49512  0.56615  1.0000
  C   C1349     1.0  0.00234  0.65490  0.57970  1.0000
  H   H2320     1.0  0.12810  0.50583  0.48018  1.0000
  H   H2321     1.0  0.04709  0.50237  0.45766  1.0000
  H   H2322     1.0  0.28216  0.93497  0.39693  1.0000
  H   H2323     1.0  0.09969  0.49589  0.58381  1.0000
  C   C1350     1.0  0.18248  0.96141  0.38913  1.0000
  H   H2324     1.0  0.28525  0.91083  0.38641  1.0000
  H   H2325     1.0  0.36952  0.95228  0.49120  1.0000
  H   H2326     1.0  0.02599  0.75757  0.57082  1.0000
  H   H2327     1.0  0.39881  0.93443  0.49451  1.0000
  S   S393      1.0  0.30491  0.97101  0.58560  1.0000
  C   C1351     1.0  0.35191  0.94720  0.56661  1.0000
  H   H2328     1.0  0.04801  0.49863  0.56928  1.0000
  H   H2329     1.0  0.06842  0.50421  0.56918  1.0000
  C   C1352     1.0  0.02850  0.58114  0.51694  1.0000
  H   H2330     1.0  0.37615  0.97325  0.46681  1.0000
  H   H2331     1.0  0.17769  0.98950  0.38660  1.0000
  S   S394      1.0  0.07640  0.51374  0.52568  1.0000
  C   C1353     1.0  0.07197  0.52697  0.43319  1.0000
  H   H2332     1.0  0.07370  0.49273  0.47115  1.0000
  C   C1354     1.0  0.07549  0.64561  0.45644  1.0000
  C   C1355     1.0  0.41914  0.90328  0.49133  1.0000
  H   H2333     1.0  0.07204  0.51821  0.47909  1.0000
  H   H2334     1.0  0.32254  0.92094  0.39685  1.0000
  H   H2335     1.0  0.36616  0.93678  0.47122  1.0000
  S   S395      1.0  0.05768  0.53398  0.45713  1.0000
  H   H2336     1.0  0.07765  0.53860  0.43091  1.0000
  H   H2337     1.0  0.39001  0.92539  0.51059  1.0000
  H   H2338     1.0  0.03262  0.66002  0.46037  1.0000
  H   H2339     1.0  0.42971  0.89094  0.49212  1.0000
  N   N95       1.0  0.05465  0.64169  0.47877  1.0000
  H   H2340     1.0  0.01019  0.55111  0.46499  1.0000
  H   H2341     1.0  0.38739  0.90572  0.47965  1.0000
  C   C1356     1.0  0.01464  0.55879  0.40775  1.0000
  S   S396      1.0  0.01997  0.65699  0.52094  1.0000
  H   H2342     1.0  0.01322  0.57793  0.43231  1.0000
  N   N96       1.0  0.38450  0.91365  0.49718  1.0000
  S   S397      1.0  0.44947  0.96627  0.49564  1.0000
  H   H2343     1.0  0.41938  0.90864  0.48109  1.0000
  S   S398      1.0  0.47661  0.93549  0.51965  1.0000
  H   H2344     1.0  0.01082  0.54725  0.44045  1.0000
  H   H2345     1.0  0.08227  0.52135  0.41445  1.0000
  C   C1357     1.0  0.07001  0.64203  0.48423  1.0000
  H   H2346     1.0  0.02385  0.79640  0.57475  1.0000
  Fe  Fe200     1.0  0.44976  0.94740  0.51441  1.0000
  C   C1358     1.0  0.06486  0.64618  0.49759  1.0000
  H   H2347     1.0  0.43422  0.93399  0.45243  1.0000
  H   H2348     1.0  0.01281  0.49444  0.46890  1.0000
  C   C1359     1.0  0.36522  0.88991  0.50445  1.0000
  H   H2349     1.0  0.35583  0.91710  0.50569  1.0000
  H   H2350     1.0  0.07998  0.49888  0.48968  1.0000
  N   N97       1.0  0.09989  0.51486  0.47969  1.0000
  H   H2351     1.0  0.42772  0.98396  0.46309  1.0000
  C   C1360     1.0  0.01394  0.50855  0.48744  1.0000
  H   H2352     1.0  0.08986  0.50425  0.46035  1.0000
  C   C1361     1.0  0.37628  0.94476  0.54801  1.0000
  H   H2353     1.0  0.08821  0.64420  0.45936  1.0000
  S   S399      1.0  0.09351  0.69184  0.57724  1.0000
  H   H2354     1.0  0.47775  0.95174  0.43736  1.0000
  H   H2355     1.0  0.07736  0.64491  0.50079  1.0000
  H   H2356     1.0  0.02449  0.54745  0.40414  1.0000
  H   H2357     1.0  0.05237  0.61813  0.49375  1.0000
  H   H2358     1.0  0.21631  0.93431  0.58347  1.0000
  C   C1362     1.0  0.47351  0.93800  0.40808  1.0000
  C   C1363     1.0  0.07559  0.62111  0.40048  1.0000
  H   H2359     1.0  0.10025  0.60305  0.57497  1.0000
  C   C1364     1.0  0.06184  0.52177  0.44536  1.0000
  C   C1365     1.0  0.38312  0.91804  0.48346  1.0000
  H   H2360     1.0  0.04235  0.49799  0.48726  1.0000
  H   H2361     1.0  0.11169  0.96664  0.58541  1.0000
  H   H2362     1.0  0.15760  0.97674  0.58420  1.0000
  C   C1366     1.0  0.01239  0.57821  0.46139  1.0000
  C   C1367     1.0  0.49036  0.93902  0.48246  1.0000
  C   C1368     1.0  0.02801  0.66348  0.46981  1.0000
  H   H2363     1.0  0.06844  0.53792  0.49053  1.0000
  H   H2364     1.0  0.12729  0.98493  0.56945  1.0000
  C   C1369     1.0  0.29058  0.90111  0.39443  1.0000
  S   S400      1.0  0.49274  0.98329  0.39521  1.0000
  C   C1370     1.0  0.00435  0.59602  0.45769  1.0000
  C   C1371     1.0  0.01980  0.75777  0.58094  1.0000
  C   C1372     1.0  0.08222  0.62711  0.38750  1.0000
  S   S401      1.0  0.40369  0.95715  0.38855  1.0000
  H   H2365     1.0  0.36060  0.98260  0.55394  1.0000
  H   H2366     1.0  0.14576  0.96253  0.38598  1.0000
  C   C1373     1.0  0.01791  0.80204  0.58333  1.0000
  C   C1374     1.0  0.13842  0.98793  0.57218  1.0000
  H   H2367     1.0  0.00684  0.62446  0.53082  1.0000
  C   C1375     1.0  0.00656  0.64762  0.51560  1.0000
  C   C1376     1.0  0.01378  0.52698  0.43039  1.0000
  C   C1377     1.0  0.07452  0.64699  0.58470  1.0000
  H   H2368     1.0  0.02885  0.65176  0.58234  1.0000
  H   H2369     1.0  0.42200  0.98540  0.44823  1.0000
  C   C1378     1.0  0.00217  0.63132  0.52220  1.0000
  H   H2370     1.0  0.19680  0.96177  0.38787  1.0000
  H   H2371     1.0  0.38758  0.98600  0.55946  1.0000
  C   C1379     1.0  0.45958  0.98547  0.42849  1.0000
  H   H2372     1.0  0.48844  0.98460  0.43653  1.0000
  H   H2373     1.0  0.00333  0.78223  0.57279  1.0000
  H   H2374     1.0  0.00353  0.66919  0.49950  1.0000
  S   S402      1.0  0.06905  0.49085  0.41481  1.0000
  H   H2375     1.0  0.02886  0.80614  0.58554  1.0000
  H   H2376     1.0  0.03026  0.76036  0.58459  1.0000
  H   H2377     1.0  0.00352  0.51753  0.46547  1.0000
  C   C1380     1.0  0.00372  0.56484  0.46214  1.0000
  H   H2378     1.0  0.43200  0.98855  0.42637  1.0000
  H   H2379     1.0  0.00405  0.57257  0.52712  1.0000
  H   H2380     1.0  0.00406  0.51960  0.43745  1.0000
  S   S403      1.0  0.04765  0.49058  0.51457  1.0000
  H   H2381     1.0  0.35987  0.80946  0.70008  1.0000
  C   C1381     1.0  0.11787  0.89896  0.68295  1.0000
  N   N98       1.0  0.25378  0.75749  0.71947  1.0000
  C   C1382     1.0  0.38557  0.75292  0.76164  1.0000
  Fe  Fe201     1.0  0.32589  0.95524  0.59664  1.0000
  S   S404      1.0  0.31374  0.96805  0.61342  1.0000
  H   H2382     1.0  0.29295  0.88230  0.61744  1.0000
  H   H2383     1.0  0.01088  0.76226  0.61649  1.0000
  S   S405      1.0  0.27540  0.96182  0.61205  1.0000
  S   S406      1.0  0.23570  0.69997  0.78257  1.0000
  H   H2384     1.0  0.03589  0.83419  0.65983  1.0000
  C   C1383     1.0  0.17058  0.68853  0.65614  1.0000
  Fe  Fe202     1.0  0.29840  0.94622  0.62110  1.0000
  S   S407      1.0  0.28863  0.93481  0.64182  1.0000
  H   H2385     1.0  0.02695  0.66523  0.61369  1.0000
  S   S408      1.0  0.31246  0.93199  0.60528  1.0000
  H   H2386     1.0  0.30444  0.81040  0.71616  1.0000
  Fe  Fe203     1.0  0.20206  0.74512  0.66282  1.0000
  S   S409      1.0  0.18700  0.75871  0.67868  1.0000
  S   S410      1.0  0.23194  0.74058  0.65542  1.0000
  Fe  Fe204     1.0  0.16760  0.74234  0.65620  1.0000
  S   S411      1.0  0.14974  0.75533  0.67195  1.0000
  S   S412      1.0  0.15964  0.73889  0.63907  1.0000
  Fe  Fe205     1.0  0.16830  0.77424  0.66590  1.0000
  S   S413      1.0  0.16078  0.80397  0.66173  1.0000
  Fe  Fe206     1.0  0.17007  0.73847  0.68353  1.0000
  S   S414      1.0  0.16331  0.72660  0.70442  1.0000
  S   S415      1.0  0.18493  0.76247  0.64950  1.0000
  S   S416      1.0  0.18642  0.72361  0.66829  1.0000
  Fe  Fe207     1.0  0.07973  0.84564  0.64018  1.0000
  S   S417      1.0  0.07901  0.83057  0.66026  1.0000
  Fe  Fe208     1.0  0.05842  0.86672  0.62051  1.0000
  H   H2387     1.0  0.26259  0.71639  0.71081  1.0000
  S   S418      1.0  0.06626  0.83756  0.62819  1.0000
  S   S419      1.0  0.06989  0.87485  0.63392  1.0000
  Fe  Fe209     1.0  0.14946  0.95194  0.63980  1.0000
  S   S420      1.0  0.15773  0.96333  0.65313  1.0000
  S   S421      1.0  0.12497  0.93959  0.64566  1.0000
  Fe  Fe210     1.0  0.18015  0.96140  0.61813  1.0000
  S   S422      1.0  0.19153  0.97324  0.62936  1.0000
  S   S423      1.0  0.19118  0.95842  0.59797  1.0000
  Fe  Fe211     1.0  0.18562  0.94998  0.64498  1.0000
  S   S424      1.0  0.20593  0.93689  0.65705  1.0000
  H   H2388     1.0  0.21595  0.65081  0.78435  1.0000
  C   C1384     1.0  0.25917  0.76716  0.76922  1.0000
  S   S425      1.0  0.17710  0.93673  0.63303  1.0000
  S   S426      1.0  0.15183  0.97590  0.62402  1.0000
  Fe  Fe212     1.0  0.27084  0.80406  0.67707  1.0000
  S   S427      1.0  0.24453  0.81267  0.68968  1.0000
  S   S428      1.0  0.28090  0.77728  0.67195  1.0000
  Fe  Fe213     1.0  0.28279  0.83846  0.67435  1.0000
  S   S429      1.0  0.25758  0.84964  0.68726  1.0000
  S   S430      1.0  0.30579  0.85188  0.66363  1.0000
  Fe  Fe214     1.0  0.26065  0.82202  0.69926  1.0000
  S   S431      1.0  0.25625  0.81247  0.72039  1.0000
  Fe  Fe215     1.0  0.24393  0.83928  0.67646  1.0000
  S   S432      1.0  0.21927  0.85357  0.66868  1.0000
  S   S433      1.0  0.28718  0.81171  0.68740  1.0000
  S   S434      1.0  0.26894  0.82979  0.66285  1.0000
  Fe  Fe216     1.0  0.31320  0.77724  0.77862  1.0000
  S   S435      1.0  0.23386  0.67498  0.76394  1.0000
  H   H2389     1.0  0.15826  0.89526  0.64943  1.0000
  S   S436      1.0  0.37629  0.77394  0.75350  1.0000
  S   S437      1.0  0.25461  0.70795  0.75225  1.0000
  H   H2390     1.0  0.00965  0.82151  0.66468  1.0000
  Fe  Fe217     1.0  0.23150  0.69998  0.74891  1.0000
  S   S438      1.0  0.23189  0.69977  0.72879  1.0000
  Fe  Fe218     1.0  0.25489  0.68473  0.76857  1.0000
  S   S439      1.0  0.21043  0.71627  0.76145  1.0000
  H   H2391     1.0  0.18342  0.81094  0.61558  1.0000
  S   S440      1.0  0.30431  0.83567  0.74710  1.0000
  C   C1385     1.0  0.14650  0.67538  0.62873  1.0000
  C   C1386     1.0  0.09370  0.80399  0.60136  1.0000
  S   S441      1.0  0.05757  0.73068  0.62079  1.0000
  S   S442      1.0  0.02966  0.87841  0.61883  1.0000
  S   S443      1.0  0.09647  0.70581  0.63671  1.0000
  H   H2392     1.0  0.17330  0.70187  0.65140  1.0000
  S   S444      1.0  0.02052  0.70636  0.62219  1.0000
  H   H2393     1.0  0.14132  0.83832  0.67817  1.0000
  H   H2394     1.0  0.19302  0.68868  0.75431  1.0000
  H   H2395     1.0  0.17852  0.66148  0.65396  1.0000
  C   C1387     1.0  0.01878  0.70485  0.59836  1.0000
  Fe  Fe219     1.0  0.08249  0.70522  0.59408  1.0000
  C   C1388     1.0  0.21580  0.50412  0.77521  1.0000
  C   C1389     1.0  0.01496  0.65592  0.58776  1.0000
  H   H2396     1.0  0.13161  0.67889  0.63161  1.0000
  H   H2397     1.0  0.25215  0.49493  0.77332  1.0000
  C   C1390     1.0  0.26215  0.94539  0.67596  1.0000
  C   C1391     1.0  0.19021  0.67525  0.75876  1.0000
  S   S445      1.0  0.10686  0.81629  0.60422  1.0000
  H   H2398     1.0  0.25276  0.74412  0.73904  1.0000
  H   H2399     1.0  0.27882  0.72923  0.70824  1.0000
  C   C1392     1.0  0.25069  0.74200  0.71571  1.0000
  H   H2400     1.0  0.27441  0.77379  0.72829  1.0000
  C   C1393     1.0  0.26862  0.81969  0.72812  1.0000
  C   C1394     1.0  0.27321  0.80898  0.73939  1.0000
  C   C1395     1.0  0.28399  0.81393  0.74534  1.0000
  C   C1396     1.0  0.28979  0.82988  0.74024  1.0000
  C   C1397     1.0  0.28466  0.84092  0.72921  1.0000
  C   C1398     1.0  0.27434  0.83570  0.72302  1.0000
  H   H2401     1.0  0.26864  0.79671  0.74347  1.0000
  H   H2402     1.0  0.28767  0.80548  0.75394  1.0000
  H   H2403     1.0  0.28899  0.85335  0.72531  1.0000
  H   H2404     1.0  0.27070  0.84409  0.71438  1.0000
  C   C1399     1.0  0.20920  0.91379  0.66077  1.0000
  C   C1400     1.0  0.22472  0.90359  0.66492  1.0000
  C   C1401     1.0  0.22802  0.88506  0.66726  1.0000
  C   C1402     1.0  0.21560  0.87671  0.66572  1.0000
  C   C1403     1.0  0.20002  0.88691  0.66166  1.0000
  C   C1404     1.0  0.19681  0.90545  0.65918  1.0000
  H   H2405     1.0  0.23436  0.91001  0.66614  1.0000
  H   H2406     1.0  0.24020  0.87730  0.67018  1.0000
  H   H2407     1.0  0.19038  0.88048  0.66053  1.0000
  H   H2408     1.0  0.18463  0.91326  0.65623  1.0000
  H   H2409     1.0  0.17182  0.65090  0.75573  1.0000
  H   H2410     1.0  0.34523  0.80460  0.69300  1.0000
  C   C1405     1.0  0.11125  0.97373  0.61262  1.0000
  C   C1406     1.0  0.01879  0.86582  0.61385  1.0000
  C   C1407     1.0  0.02797  0.84986  0.61014  1.0000
  C   C1408     1.0  0.01856  0.83946  0.60715  1.0000
  H   H2411     1.0  0.04504  0.74600  0.66065  1.0000
  H   H2412     1.0  0.04227  0.84552  0.60958  1.0000
  H   H2413     1.0  0.02568  0.82712  0.60433  1.0000
  C   C1409     1.0  0.12300  0.92487  0.63716  1.0000
  H   H2414     1.0  0.14038  0.86407  0.65212  1.0000
  H   H2415     1.0  0.12257  0.90535  0.66261  1.0000
  C   C1410     1.0  0.10433  0.90904  0.63208  1.0000
  C   C1411     1.0  0.10635  0.92042  0.63897  1.0000
  H   H2416     1.0  0.09135  0.90604  0.63330  1.0000
  H   H2417     1.0  0.09489  0.92606  0.64556  1.0000
  C   C1412     1.0  0.24525  0.74975  0.66117  1.0000
  C   C1413     1.0  0.23855  0.75754  0.67178  1.0000
  C   C1414     1.0  0.24931  0.76608  0.67527  1.0000
  C   C1415     1.0  0.26686  0.76654  0.66828  1.0000
  C   C1416     1.0  0.27376  0.75792  0.65815  1.0000
  C   C1417     1.0  0.26297  0.74973  0.65454  1.0000
  H   H2418     1.0  0.22506  0.75714  0.67718  1.0000
  H   H2419     1.0  0.24402  0.77234  0.68330  1.0000
  H   H2420     1.0  0.28741  0.75791  0.65287  1.0000
  H   H2421     1.0  0.26833  0.74353  0.64646  1.0000
  C   C1418     1.0  0.18251  0.72066  0.71099  1.0000
  C   C1419     1.0  0.18088  0.72132  0.72364  1.0000
  C   C1420     1.0  0.19604  0.71552  0.72915  1.0000
  C   C1421     1.0  0.21281  0.70878  0.72207  1.0000
  C   C1422     1.0  0.21448  0.70864  0.70934  1.0000
  C   C1423     1.0  0.19943  0.71470  0.70378  1.0000
  H   H2422     1.0  0.16788  0.72635  0.72913  1.0000
  H   H2423     1.0  0.19472  0.71614  0.73886  1.0000
  H   H2424     1.0  0.22745  0.70364  0.70376  1.0000
  H   H2425     1.0  0.20087  0.71429  0.69399  1.0000
  C   C1424     1.0  0.10114  0.82435  0.66241  1.0000
  C   C1425     1.0  0.10693  0.80818  0.67032  1.0000
  C   C1426     1.0  0.12524  0.80204  0.67053  1.0000
  C   C1427     1.0  0.13769  0.81208  0.66281  1.0000
  C   C1428     1.0  0.13176  0.82862  0.65542  1.0000
  C   C1429     1.0  0.11348  0.83484  0.65533  1.0000
  H   H2426     1.0  0.09738  0.80011  0.67593  1.0000
  H   H2427     1.0  0.12971  0.78948  0.67654  1.0000
  H   H2428     1.0  0.14139  0.83626  0.64933  1.0000
  H   H2429     1.0  0.10897  0.84759  0.64953  1.0000
  C   C1430     1.0  0.14078  0.73118  0.63890  1.0000
  C   C1431     1.0  0.13680  0.73258  0.62715  1.0000
  C   C1432     1.0  0.12276  0.72553  0.62639  1.0000
  C   C1433     1.0  0.11279  0.71666  0.63738  1.0000
  C   C1434     1.0  0.11656  0.71549  0.64917  1.0000
  C   C1435     1.0  0.13041  0.72286  0.64995  1.0000
  H   H2430     1.0  0.14483  0.73885  0.61854  1.0000
  H   H2431     1.0  0.12003  0.72645  0.61727  1.0000
  H   H2432     1.0  0.10890  0.70861  0.65772  1.0000
  H   H2433     1.0  0.13335  0.72170  0.65906  1.0000
  C   C1436     1.0  0.17414  0.78640  0.61776  1.0000
  C   C1437     1.0  0.28015  0.64728  0.78170  1.0000
  H   H2434     1.0  0.02946  0.63310  0.61508  1.0000
  H   H2435     1.0  0.34296  0.74073  0.76311  1.0000
  H   H2436     1.0  0.11809  0.96385  0.61978  1.0000
  C   C1438     1.0  0.14864  0.81218  0.61432  1.0000
  C   C1439     1.0  0.07308  0.78381  0.59677  1.0000
  H   H2437     1.0  0.26319  0.78184  0.70998  1.0000
  C   C1440     1.0  0.29307  0.91163  0.64730  1.0000
  C   C1441     1.0  0.30813  0.90072  0.64135  1.0000
  C   C1442     1.0  0.31189  0.88237  0.64640  1.0000
  C   C1443     1.0  0.30034  0.87478  0.65717  1.0000
  C   C1444     1.0  0.28495  0.88563  0.66285  1.0000
  C   C1445     1.0  0.28149  0.90403  0.65805  1.0000
  H   H2438     1.0  0.31719  0.90646  0.63311  1.0000
  H   H2439     1.0  0.32383  0.87403  0.64198  1.0000
  H   H2440     1.0  0.27601  0.87993  0.67118  1.0000
  H   H2441     1.0  0.26977  0.91231  0.66269  1.0000
  H   H2442     1.0  0.16552  0.70065  0.74741  1.0000
  H   H2443     1.0  0.27407  0.93468  0.67384  1.0000
  C   C1446     1.0  0.22449  0.96166  0.59871  1.0000
  C   C1447     1.0  0.08082  0.66095  0.58618  1.0000
  H   H2444     1.0  0.17079  0.63111  0.77581  1.0000
  H   H2445     1.0  0.40090  0.74389  0.74469  1.0000
  H   H2446     1.0  0.18006  0.68776  0.60906  1.0000
  H   H2447     1.0  0.21754  0.97174  0.60411  1.0000
  H   H2448     1.0  0.41379  0.71402  0.75626  1.0000
  H   H2449     1.0  0.17568  0.68465  0.66501  1.0000
  H   H2450     1.0  0.15017  0.68323  0.61905  1.0000
  H   H2451     1.0  0.13030  0.88659  0.64852  1.0000
  C   C1448     1.0  0.15465  0.67932  0.63844  1.0000
  H   H2452     1.0  0.31643  0.80029  0.70323  1.0000
  C   C1449     1.0  0.16293  0.68709  0.74957  1.0000
  C   C1450     1.0  0.31938  0.83575  0.69599  1.0000
  H   H2453     1.0  0.29113  0.90542  0.60953  1.0000
  H   H2454     1.0  0.20585  0.51425  0.75743  1.0000
  H   H2455     1.0  0.09989  0.96921  0.61140  1.0000
  H   H2456     1.0  0.25346  0.98636  0.66349  1.0000
  H   H2457     1.0  0.22956  0.96096  0.64986  1.0000
  S   S446      1.0  0.11666  0.88976  0.61319  1.0000
  C   C1451     1.0  0.26643  0.72585  0.71472  1.0000
  H   H2458     1.0  0.29114  0.75126  0.71243  1.0000
  C   C1452     1.0  0.10012  0.88068  0.66547  1.0000
  N   N99       1.0  0.17044  0.67573  0.76084  1.0000
  H   H2459     1.0  0.15295  0.71274  0.76425  1.0000
  S   S447      1.0  0.35530  0.95489  0.58824  1.0000
  Fe  Fe220     1.0  0.08416  0.71147  0.61947  1.0000
  C   C1453     1.0  0.13972  0.87702  0.65420  1.0000
  H   H2460     1.0  0.15072  0.92041  0.62745  1.0000
  H   H2461     1.0  0.11880  0.79365  0.63342  1.0000
  Fe  Fe221     1.0  0.09146  0.83922  0.61335  1.0000
  N   N100      1.0  0.17477  0.67762  0.63553  1.0000
  N   N101      1.0  0.23752  0.96750  0.66481  1.0000
  H   H2462     1.0  0.25242  0.93903  0.68377  1.0000
  C   C1454     1.0  0.00533  0.75484  0.61196  1.0000
  H   H2463     1.0  0.20216  0.50834  0.78101  1.0000
  H   H2464     1.0  0.34293  0.73665  0.77950  1.0000
  H   H2465     1.0  0.22541  0.95584  0.68411  1.0000
  H   H2466     1.0  0.32398  0.98332  0.63160  1.0000
  H   H2467     1.0  0.22350  0.94590  0.67251  1.0000
  C   C1455     1.0  0.15914  0.93537  0.59555  1.0000
  H   H2468     1.0  0.17033  0.93987  0.58802  1.0000
  C   C1456     1.0  0.00956  0.70516  0.61085  1.0000
  H   H2469     1.0  0.22495  0.50830  0.77920  1.0000
  C   C1457     1.0  0.02606  0.83979  0.65357  1.0000
  C   C1458     1.0  0.31410  0.68819  0.78350  1.0000
  C   C1459     1.0  0.18493  0.79715  0.62122  1.0000
  S   S448      1.0  0.30152  0.80479  0.78205  1.0000
  C   C1460     1.0  0.22311  0.95899  0.67436  1.0000
  H   H2470     1.0  0.18706  0.70742  0.60737  1.0000
  H   H2471     1.0  0.25603  0.64727  0.77638  1.0000
  C   C1461     1.0  0.03011  0.64200  0.60550  1.0000
  H   H2472     1.0  0.19465  0.96350  0.68332  1.0000
  S   S449      1.0  0.05638  0.72484  0.59342  1.0000
  H   H2473     1.0  0.14607  0.68335  0.77458  1.0000
  H   H2474     1.0  0.08469  0.66012  0.59490  1.0000
  H   H2475     1.0  0.16978  0.81405  0.59678  1.0000
  H   H2476     1.0  0.14725  0.76725  0.60144  1.0000
  C   C1462     1.0  0.11378  0.94169  0.59904  1.0000
  C   C1463     1.0  0.26610  0.63983  0.78169  1.0000
  Fe  Fe222     1.0  0.21454  0.69180  0.77693  1.0000
  N   N102      1.0  0.25656  0.90250  0.62570  1.0000
  C   C1464     1.0  0.26459  0.89120  0.63674  1.0000
  C   C1465     1.0  0.25876  0.92118  0.62391  1.0000
  C   C1466     1.0  0.26598  0.89603  0.61366  1.0000
  C   C1467     1.0  0.23705  0.90166  0.62851  1.0000
  C   C1468     1.0  0.26479  0.87127  0.63956  1.0000
  C   C1469     1.0  0.24737  0.93117  0.63437  1.0000
  H   H2477     1.0  0.09468  0.76153  0.60054  1.0000
  H   H2478     1.0  0.27858  0.89261  0.63548  1.0000
  H   H2479     1.0  0.25721  0.89568  0.64563  1.0000
  H   H2480     1.0  0.25567  0.92941  0.61476  1.0000
  H   H2481     1.0  0.27298  0.92136  0.62332  1.0000
  H   H2482     1.0  0.26244  0.88347  0.61377  1.0000
  H   H2483     1.0  0.26145  0.90566  0.60534  1.0000
  H   H2484     1.0  0.23563  0.88798  0.62922  1.0000
  H   H2485     1.0  0.23004  0.90477  0.63791  1.0000
  H   H2486     1.0  0.27157  0.86515  0.63129  1.0000
  H   H2487     1.0  0.27251  0.86450  0.64708  1.0000
  H   H2488     1.0  0.25106  0.86862  0.64333  1.0000
  H   H2489     1.0  0.25027  0.92441  0.64382  1.0000
  H   H2490     1.0  0.25061  0.94440  0.63222  1.0000
  H   H2491     1.0  0.23284  0.93354  0.63476  1.0000
  H   H2492     1.0  0.11322  0.94140  0.60902  1.0000
  C   C1470     1.0  0.24332  0.95730  0.59583  1.0000
  H   H2493     1.0  0.21014  0.64676  0.62172  1.0000
  C   C1471     1.0  0.12919  0.89557  0.66996  1.0000
  N   N103      1.0  0.13254  0.87692  0.66809  1.0000
  H   H2494     1.0  0.23165  0.91062  0.60918  1.0000
  C   C1472     1.0  0.28517  0.76071  0.70476  1.0000
  H   H2495     1.0  0.04151  0.63508  0.59908  1.0000
  H   H2496     1.0  0.16282  0.83896  0.67988  1.0000
  H   H2497     1.0  0.19407  0.69475  0.62689  1.0000
  C   C1473     1.0  0.11894  0.90223  0.62321  1.0000
  H   H2498     1.0  0.11033  0.86800  0.68270  1.0000
  C   C1474     1.0  0.26598  0.76557  0.73580  1.0000
  H   H2499     1.0  0.35814  0.77648  0.71519  1.0000
  C   C1475     1.0  0.35751  0.78204  0.70515  1.0000
  N   N104      1.0  0.33311  0.80880  0.71197  1.0000
  H   H2500     1.0  0.07197  0.82625  0.59778  1.0000
  S   S450      1.0  0.09526  0.72377  0.59923  1.0000
  H   H2501     1.0  0.27345  0.75919  0.74351  1.0000
  H   H2502     1.0  0.21307  0.66962  0.74328  1.0000
  S   S451      1.0  0.32515  0.78592  0.75808  1.0000
  H   H2503     1.0  0.34013  0.83469  0.70528  1.0000
  H   H2504     1.0  0.11543  0.98908  0.59389  1.0000
  H   H2505     1.0  0.32791  0.77279  0.72020  1.0000
  S   S452      1.0  0.33838  0.77498  0.78484  1.0000
  H   H2506     1.0  0.17989  0.66209  0.62120  1.0000
  H   H2507     1.0  0.26913  0.71855  0.72415  1.0000
  H   H2508     1.0  0.21086  0.65480  0.63484  1.0000
  C   C1476     1.0  0.03590  0.65866  0.60605  1.0000
  H   H2509     1.0  0.26705  0.95496  0.67897  1.0000
  H   H2510     1.0  0.24754  0.59079  0.77433  1.0000
  H   H2511     1.0  0.10383  0.89763  0.68436  1.0000
  C   C1477     1.0  0.14580  0.86519  0.67591  1.0000
  H   H2512     1.0  0.19939  0.79081  0.61888  1.0000
  H   H2513     1.0  0.15331  0.79839  0.63841  1.0000
  Fe  Fe223     1.0  0.34954  0.78578  0.76453  1.0000
  H   H2514     1.0  0.31751  0.85042  0.69333  1.0000
  H   H2515     1.0  0.15008  0.66104  0.62863  1.0000
  H   H2516     1.0  0.17765  0.77234  0.62286  1.0000
  H   H2517     1.0  0.08706  0.87843  0.67174  1.0000
  H   H2518     1.0  0.12314  0.81109  0.63850  1.0000
  C   C1478     1.0  0.28664  0.89312  0.61045  1.0000
  H   H2519     1.0  0.26146  0.72271  0.77765  1.0000
  H   H2520     1.0  0.19427  0.67174  0.76804  1.0000
  H   H2521     1.0  0.12270  0.79004  0.64902  1.0000
  H   H2522     1.0  0.05433  0.72689  0.65393  1.0000
  H   H2523     1.0  0.31871  0.83479  0.71546  1.0000
  C   C1479     1.0  0.00981  0.70428  0.58935  1.0000
  C   C1480     1.0  0.00890  0.62728  0.60249  1.0000
  H   H2524     1.0  0.14703  0.90102  0.61484  1.0000
  H   H2525     1.0  0.12390  0.89022  0.69090  1.0000
  H   H2526     1.0  0.14210  0.89959  0.66867  1.0000
  H   H2527     1.0  0.11720  0.91285  0.68331  1.0000
  C   C1481     1.0  0.01059  0.78836  0.59483  1.0000
  H   H2528     1.0  0.01640  0.74749  0.60571  1.0000
  S   S453      1.0  0.07381  0.69124  0.61428  1.0000
  H   H2529     1.0  0.19494  0.67455  0.64629  1.0000
  H   H2530     1.0  0.25841  0.96895  0.63829  1.0000
  C   C1482     1.0  0.25454  0.75090  0.77069  1.0000
  C   C1483     1.0  0.17730  0.69926  0.61344  1.0000
  C   C1484     1.0  0.38872  0.73178  0.78140  1.0000
  S   S454      1.0  0.23596  0.75025  0.76515  1.0000
  H   H2531     1.0  0.25130  0.77927  0.76465  1.0000
  H   H2532     1.0  0.36193  0.72635  0.76874  1.0000
  C   C1485     1.0  0.20489  0.65827  0.62638  1.0000
  H   H2533     1.0  0.21187  0.65175  0.75665  1.0000
  C   C1486     1.0  0.26479  0.73531  0.77657  1.0000
  C   C1487     1.0  0.16127  0.70346  0.77080  1.0000
  C   C1488     1.0  0.39744  0.74052  0.75493  1.0000
  H   H2534     1.0  0.01351  0.67011  0.58764  1.0000
  H   H2535     1.0  0.13380  0.81661  0.61625  1.0000
  N   N105      1.0  0.01277  0.64519  0.60119  1.0000
  H   H2536     1.0  0.21374  0.52972  0.76215  1.0000
  H   H2537     1.0  0.09966  0.94366  0.59820  1.0000
  H   H2538     1.0  0.14764  0.69287  0.63979  1.0000
  C   C1489     1.0  0.20367  0.96980  0.67485  1.0000
  H   H2539     1.0  0.07359  0.63547  0.59235  1.0000
  H   H2540     1.0  0.13333  0.98589  0.60161  1.0000
  H   H2541     1.0  0.17986  0.78639  0.60758  1.0000
  H   H2542     1.0  0.15792  0.87084  0.67398  1.0000
  H   H2543     1.0  0.39354  0.78178  0.77342  1.0000
  H   H2544     1.0  0.35516  0.80796  0.73548  1.0000
  N   N106      1.0  0.13478  0.96420  0.59310  1.0000
  H   H2545     1.0  0.16354  0.70715  0.61290  1.0000
  C   C1490     1.0  0.12265  0.95613  0.58902  1.0000
  H   H2546     1.0  0.16587  0.67650  0.78069  1.0000
  C   C1491     1.0  0.40843  0.79196  0.78344  1.0000
  H   H2547     1.0  0.32776  0.83063  0.68756  1.0000
  C   C1492     1.0  0.06676  0.80209  0.59593  1.0000
  C   C1493     1.0  0.39652  0.79416  0.77401  1.0000
  H   H2548     1.0  0.22981  0.51254  0.75540  1.0000
  Fe  Fe224     1.0  0.23380  0.72259  0.76585  1.0000
  H   H2549     1.0  0.13230  0.78919  0.61351  1.0000
  H   H2550     1.0  0.44136  0.75231  0.78424  1.0000
  C   C1494     1.0  0.17999  0.69442  0.62716  1.0000
  C   C1495     1.0  0.15828  0.88181  0.64852  1.0000
  H   H2551     1.0  0.13994  0.86454  0.68618  1.0000
  C   C1496     1.0  0.20354  0.66235  0.75070  1.0000
  C   C1497     1.0  0.22624  0.91383  0.61868  1.0000
  C   C1498     1.0  0.12409  0.97890  0.59986  1.0000
  C   C1499     1.0  0.26479  0.76830  0.70847  1.0000
  C   C1500     1.0  0.31567  0.78318  0.72179  1.0000
  Fe  Fe225     1.0  0.29184  0.98226  0.60291  1.0000
  C   C1501     1.0  0.15226  0.84578  0.67435  1.0000
  H   H2552     1.0  0.29186  0.88930  0.60111  1.0000
  H   H2553     1.0  0.15833  0.84464  0.66441  1.0000
  C   C1502     1.0  0.34902  0.80199  0.70229  1.0000
  C   C1503     1.0  0.32814  0.82873  0.70766  1.0000
  S   S455      1.0  0.10571  0.84483  0.62598  1.0000
  H   H2554     1.0  0.15124  0.77661  0.63929  1.0000
  H   H2555     1.0  0.31214  0.78436  0.73186  1.0000
  C   C1504     1.0  0.31714  0.80130  0.71278  1.0000
  H   H2556     1.0  0.25346  0.77422  0.73994  1.0000
  H   H2557     1.0  0.03695  0.66829  0.59683  1.0000
  C   C1505     1.0  0.38127  0.74849  0.77486  1.0000
  H   H2558     1.0  0.19752  0.65609  0.74572  1.0000
  C   C1506     1.0  0.24665  0.97963  0.64065  1.0000
  S   S456      1.0  0.27597  0.93690  0.58647  1.0000
  H   H2559     1.0  0.22155  0.98595  0.68650  1.0000
  H   H2560     1.0  0.01711  0.74442  0.58583  1.0000
  H   H2561     1.0  0.10522  0.98570  0.61673  1.0000
  H   H2562     1.0  0.00877  0.84045  0.63508  1.0000
  H   H2563     1.0  0.00819  0.80794  0.65086  1.0000
  H   H2564     1.0  0.16739  0.76228  0.60718  1.0000
  C   C1507     1.0  0.27394  0.76781  0.77366  1.0000
  C   C1508     1.0  0.23604  0.98448  0.68203  1.0000
  H   H2565     1.0  0.14183  0.77019  0.62356  1.0000
  C   C1509     1.0  0.02327  0.61493  0.59459  1.0000
  H   H2566     1.0  0.26603  0.95979  0.65696  1.0000
  C   C1510     1.0  0.21641  0.51556  0.76169  1.0000
  H   H2567     1.0  0.20974  0.66972  0.61953  1.0000
  H   H2568     1.0  0.18043  0.64940  0.63661  1.0000
  H   H2569     1.0  0.40354  0.79950  0.76427  1.0000
  C   C1511     1.0  0.23968  0.98394  0.66789  1.0000
  H   H2570     1.0  0.15152  0.65863  0.76561  1.0000
  H   H2571     1.0  0.25069  0.96428  0.59884  1.0000
  C   C1512     1.0  0.07694  0.81215  0.59840  1.0000
  C   C1513     1.0  0.25810  0.58056  0.77856  1.0000
  N   N107      1.0  0.15401  0.79286  0.62029  1.0000
  H   H2572     1.0  0.37286  0.75820  0.78009  1.0000
  H   H2573     1.0  0.18463  0.68146  0.73314  1.0000
  H   H2574     1.0  0.16141  0.78290  0.59613  1.0000
  N   N108      1.0  0.21578  0.81223  0.65442  1.0000
  C   C1514     1.0  0.20158  0.81597  0.66602  1.0000
  C   C1515     1.0  0.21337  0.82840  0.64390  1.0000
  C   C1516     1.0  0.23384  0.80970  0.65748  1.0000
  C   C1517     1.0  0.21379  0.79577  0.65126  1.0000
  C   C1518     1.0  0.20269  0.80176  0.67837  1.0000
  C   C1519     1.0  0.19444  0.83459  0.64091  1.0000
  C   C1520     1.0  0.25050  0.80471  0.64722  1.0000
  C   C1521     1.0  0.22034  0.79396  0.63731  1.0000
  H   H2575     1.0  0.20163  0.82876  0.66805  1.0000
  H   H2576     1.0  0.18796  0.81758  0.66442  1.0000
  H   H2577     1.0  0.22313  0.82641  0.63496  1.0000
  H   H2578     1.0  0.21635  0.83985  0.64622  1.0000
  H   H2579     1.0  0.23496  0.82184  0.65992  1.0000
  H   H2580     1.0  0.23549  0.79910  0.66598  1.0000
  H   H2581     1.0  0.22086  0.78373  0.65699  1.0000
  H   H2582     1.0  0.19951  0.79452  0.65396  1.0000
  H   H2583     1.0  0.18977  0.80409  0.68533  1.0000
  H   H2584     1.0  0.20500  0.78817  0.67688  1.0000
  H   H2585     1.0  0.21327  0.80269  0.68279  1.0000
  H   H2586     1.0  0.19508  0.84356  0.63141  1.0000
  H   H2587     1.0  0.18863  0.82342  0.64100  1.0000
  H   H2588     1.0  0.18518  0.84227  0.64785  1.0000
  H   H2589     1.0  0.25056  0.81419  0.63800  1.0000
  H   H2590     1.0  0.25212  0.79096  0.64621  1.0000
  H   H2591     1.0  0.26268  0.80472  0.65032  1.0000
  H   H2592     1.0  0.21182  0.80383  0.63119  1.0000
  H   H2593     1.0  0.21942  0.78061  0.63675  1.0000
  H   H2594     1.0  0.23443  0.79508  0.63324  1.0000
  C   C1522     1.0  0.28385  0.75223  0.77984  1.0000
  H   H2595     1.0  0.09909  0.89515  0.66340  1.0000
  H   H2596     1.0  0.35055  0.97817  0.61690  1.0000
  C   C1523     1.0  0.26191  0.75108  0.73103  1.0000
  H   H2597     1.0  0.37177  0.77991  0.69997  1.0000
  H   H2598     1.0  0.15484  0.95737  0.60433  1.0000
  H   H2599     1.0  0.35039  0.77437  0.70199  1.0000
  C   C1524     1.0  0.17028  0.68086  0.73694  1.0000
  H   H2600     1.0  0.28823  0.75433  0.69656  1.0000
  S   S457      1.0  0.34129  0.81404  0.76663  1.0000
  H   H2601     1.0  0.17209  0.70598  0.63128  1.0000
  Fe  Fe226     1.0  0.09515  0.87355  0.61868  1.0000
  C   C1525     1.0  0.00752  0.83604  0.66104  1.0000
  H   H2602     1.0  0.04944  0.65466  0.60830  1.0000
  Fe  Fe227     1.0  0.06796  0.74190  0.60042  1.0000
  H   H2603     1.0  0.16898  0.87194  0.65277  1.0000
  H   H2604     1.0  0.16183  0.88189  0.63823  1.0000
  H   H2605     1.0  0.15589  0.68929  0.65900  1.0000
  H   H2606     1.0  0.15331  0.82056  0.61868  1.0000
  C   C1526     1.0  0.13567  0.90633  0.62164  1.0000
  C   C1527     1.0  0.10014  0.78575  0.60202  1.0000
  H   H2607     1.0  0.38363  0.80370  0.77625  1.0000
  H   H2608     1.0  0.30580  0.83289  0.69807  1.0000
  N   N109      1.0  0.06807  0.76766  0.64185  1.0000
  C   C1528     1.0  0.06897  0.74790  0.64492  1.0000
  C   C1529     1.0  0.08693  0.77016  0.63554  1.0000
  C   C1530     1.0  0.05600  0.77607  0.63251  1.0000
  C   C1531     1.0  0.06078  0.77446  0.65393  1.0000
  C   C1532     1.0  0.05125  0.74163  0.65159  1.0000
  C   C1533     1.0  0.10027  0.76485  0.64441  1.0000
  C   C1534     1.0  0.05192  0.79644  0.62855  1.0000
  C   C1535     1.0  0.06361  0.79297  0.65369  1.0000
  H   H2609     1.0  0.07440  0.74248  0.63615  1.0000
  H   H2610     1.0  0.07846  0.74062  0.65120  1.0000
  H   H2611     1.0  0.08735  0.78398  0.63042  1.0000
  H   H2612     1.0  0.09278  0.76245  0.62791  1.0000
  H   H2613     1.0  0.06167  0.77077  0.62370  1.0000
  H   H2614     1.0  0.04258  0.77271  0.63632  1.0000
  H   H2615     1.0  0.04608  0.77498  0.65705  1.0000
  H   H2616     1.0  0.06675  0.76497  0.66176  1.0000
  H   H2617     1.0  0.27452  0.74100  0.72966  1.0000
  H   H2618     1.0  0.04144  0.74557  0.64540  1.0000
  H   H2619     1.0  0.29243  0.77173  0.70180  1.0000
  H   H2620     1.0  0.11410  0.76417  0.63857  1.0000
  H   H2621     1.0  0.09789  0.77480  0.65020  1.0000
  H   H2622     1.0  0.10009  0.75176  0.65084  1.0000
  H   H2623     1.0  0.04413  0.80054  0.62097  1.0000
  H   H2624     1.0  0.06412  0.80198  0.62456  1.0000
  H   H2625     1.0  0.04332  0.80265  0.63644  1.0000
  H   H2626     1.0  0.05046  0.80218  0.65581  1.0000
  H   H2627     1.0  0.07140  0.79936  0.64466  1.0000
  H   H2628     1.0  0.07071  0.79203  0.66122  1.0000
  S   S458      1.0  0.08286  0.86796  0.60457  1.0000
  H   H2629     1.0  0.11820  0.85636  0.67053  1.0000
  C   C1536     1.0  0.16630  0.65755  0.76381  1.0000
  C   C1537     1.0  0.13776  0.91737  0.62873  1.0000
  Fe  Fe228     1.0  0.31566  0.81339  0.76181  1.0000
  Fe  Fe229     1.0  0.04828  0.71186  0.61377  1.0000
  H   H2630     1.0  0.22635  0.57424  0.78047  1.0000
  H   H2631     1.0  0.22563  0.92804  0.61786  1.0000
  H   H2632     1.0  0.25958  0.77086  0.69976  1.0000
  C   C1538     1.0  0.11552  0.86994  0.67226  1.0000
  H   H2633     1.0  0.10167  0.87662  0.65645  1.0000
  C   C1539     1.0  0.33733  0.80495  0.72489  1.0000
  C   C1540     1.0  0.35289  0.81249  0.72565  1.0000
  H   H2634     1.0  0.34056  0.79057  0.72900  1.0000
  H   H2635     1.0  0.32523  0.81022  0.73169  1.0000
  H   H2636     1.0  0.34961  0.82718  0.72371  1.0000
  H   H2637     1.0  0.36565  0.80761  0.71931  1.0000
  H   H2638     1.0  0.30452  0.77863  0.72026  1.0000
  C   C1541     1.0  0.23564  0.76926  0.72326  1.0000
  C   C1542     1.0  0.22327  0.77477  0.71369  1.0000
  H   H2639     1.0  0.22790  0.76273  0.73243  1.0000
  H   H2640     1.0  0.23714  0.78178  0.72497  1.0000
  H   H2641     1.0  0.23925  0.73679  0.72264  1.0000
  H   H2642     1.0  0.24676  0.74626  0.70636  1.0000
  H   H2643     1.0  0.21835  0.76337  0.71309  1.0000
  H   H2644     1.0  0.21126  0.78469  0.71699  1.0000
  H   H2645     1.0  0.22989  0.78105  0.70415  1.0000
  C   C1543     1.0  0.14727  0.79069  0.63444  1.0000
  C   C1544     1.0  0.08971  0.77561  0.59993  1.0000
  H   H2646     1.0  0.19868  0.96978  0.66652  1.0000
  C   C1545     1.0  0.21472  0.95332  0.59431  1.0000
  Fe  Fe230     1.0  0.16293  0.98585  0.63661  1.0000
  C   C1546     1.0  0.35045  0.98904  0.62136  1.0000
  C   C1547     1.0  0.12679  0.79665  0.63896  1.0000
  H   H2647     1.0  0.18159  0.79723  0.63144  1.0000
  H   H2648     1.0  0.18756  0.64297  0.77445  1.0000
  C   C1548     1.0  0.14532  0.78158  0.61586  1.0000
  C   C1549     1.0  0.15615  0.77320  0.60445  1.0000
  C   C1550     1.0  0.40471  0.72364  0.76146  1.0000
  H   H2649     1.0  0.25376  0.94294  0.65994  1.0000
  H   H2650     1.0  0.02596  0.85416  0.65039  1.0000
  H   H2651     1.0  0.16299  0.69021  0.72976  1.0000
  H   H2652     1.0  0.13844  0.94484  0.61040  1.0000
  H   H2653     1.0  0.15018  0.67024  0.64757  1.0000
  H   H2654     1.0  0.21218  0.91197  0.62172  1.0000
  H   H2655     1.0  0.34206  0.68005  0.77488  1.0000
  C   C1551     1.0  0.15497  0.81734  0.59987  1.0000
  C   C1552     1.0  0.18420  0.66157  0.62992  1.0000
  H   H2656     1.0  0.26961  0.58697  0.77691  1.0000
  H   H2657     1.0  0.24641  0.54721  0.78249  1.0000
  C   C1553     1.0  0.18040  0.67467  0.64792  1.0000
  H   H2658     1.0  0.34009  0.97877  0.64140  1.0000
  Fe  Fe231     1.0  0.29021  0.94908  0.59570  1.0000
  H   H2659     1.0  0.37002  0.97818  0.59855  1.0000
  H   H2660     1.0  0.22000  0.98297  0.65195  1.0000
  C   C1554     1.0  0.17301  0.64442  0.77529  1.0000
  H   H2661     1.0  0.03297  0.70449  0.59567  1.0000
  C   C1555     1.0  0.23251  0.97251  0.65203  1.0000
  H   H2662     1.0  0.12046  0.92832  0.59709  1.0000
  H   H2663     1.0  0.14805  0.68873  0.75172  1.0000
  H   H2664     1.0  0.16809  0.66760  0.73749  1.0000
  H   H2665     1.0  0.37820  0.57094  0.77878  1.0000
  H   H2666     1.0  0.01797  0.60327  0.59494  1.0000
  H   H2667     1.0  0.03564  0.60972  0.59844  1.0000
  H   H2668     1.0  0.00383  0.84178  0.66964  1.0000
  C   C1556     1.0  0.34708  0.73034  0.77123  1.0000
  H   H2669     1.0  0.34351  0.70913  0.76452  1.0000
  H   H2670     1.0  0.17518  0.70560  0.76784  1.0000
  C   C1557     1.0  0.25497  0.95393  0.66377  1.0000
  C   C1558     1.0  0.33815  0.71458  0.77329  1.0000
  H   H2671     1.0  0.03122  0.83336  0.64534  1.0000
  H   H2672     1.0  0.11313  0.77940  0.60423  1.0000
  C   C1559     1.0  0.40035  0.71929  0.77472  1.0000
  H   H2673     1.0  0.36348  0.98481  0.62445  1.0000
  H   H2674     1.0  0.27738  0.78040  0.77253  1.0000
  S   S459      1.0  0.28115  0.66903  0.77352  1.0000
  C   C1560     1.0  0.16054  0.68398  0.77212  1.0000
  S   S460      1.0  0.40948  0.69828  0.78286  1.0000
  H   H2675     1.0  0.42948  0.74232  0.77766  1.0000
  H   H2676     1.0  0.36859  0.69434  0.77534  1.0000
  H   H2677     1.0  0.00546  0.79484  0.60311  1.0000
  H   H2678     1.0  0.37275  0.54401  0.78290  1.0000
  H   H2679     1.0  0.26286  0.56943  0.77357  1.0000
  C   C1561     1.0  0.14643  0.95078  0.60140  1.0000
  H   H2680     1.0  0.15565  0.70705  0.78021  1.0000
  H   H2681     1.0  0.20227  0.98362  0.67552  1.0000
  H   H2682     1.0  0.32364  0.72043  0.77342  1.0000
  H   H2683     1.0  0.16551  0.92551  0.60299  1.0000
  H   H2684     1.0  0.42234  0.79236  0.77785  1.0000
  H   H2685     1.0  0.42970  0.76529  0.77168  1.0000
  C   C1562     1.0  0.22382  0.94069  0.58697  1.0000
  S   S461      1.0  0.05979  0.77143  0.59412  1.0000
  H   H2686     1.0  0.40007  0.56385  0.78301  1.0000
  C   C1563     1.0  0.33494  0.98807  0.63322  1.0000
  H   H2687     1.0  0.15053  0.83191  0.59676  1.0000
  H   H2688     1.0  0.02241  0.77815  0.59717  1.0000
  H   H2689     1.0  0.05392  0.80849  0.59346  1.0000
  H   H2690     1.0  0.00914  0.81194  0.63451  1.0000
  H   H2691     1.0  0.24363  0.97277  0.68763  1.0000
  H   H2692     1.0  0.24068  0.98478  0.63213  1.0000
  C   C1564     1.0  0.33419  0.68466  0.78370  1.0000
  H   H2693     1.0  0.31067  0.69812  0.77501  1.0000
  H   H2694     1.0  0.14865  0.81117  0.59496  1.0000
  H   H2695     1.0  0.00713  0.62004  0.61259  1.0000
  C   C1565     1.0  0.27924  0.73600  0.78130  1.0000
  H   H2696     1.0  0.31088  0.67573  0.78308  1.0000
  H   H2697     1.0  0.15199  0.92846  0.59182  1.0000
  C   C1566     1.0  0.42918  0.75473  0.78043  1.0000
  C   C1567     1.0  0.25246  0.94410  0.58898  1.0000
  C   C1568     1.0  0.36038  0.69483  0.78509  1.0000
  N   N110      1.0  0.34058  0.70009  0.78494  1.0000
  H   H2698     1.0  0.16548  0.64817  0.78440  1.0000
  H   H2699     1.0  0.38261  0.91893  0.97898  1.0000
  Fe  Fe232     1.0  0.03385  0.55455  0.94882  1.0000
  C   C1569     1.0  0.12288  0.53869  0.85752  1.0000
  H   H2700     1.0  0.18550  0.53726  0.80989  1.0000
  Fe  Fe233     1.0  0.04561  0.58101  0.95826  1.0000
  S   S462      1.0  0.19827  0.52461  0.85200  1.0000
  Fe  Fe234     1.0  0.06790  0.56750  0.93446  1.0000
  S   S463      1.0  0.09638  0.55691  0.92471  1.0000
  H   H2701     1.0  0.37183  0.52028  0.81738  1.0000
  S   S464      1.0  0.05889  0.55390  0.95471  1.0000
  Fe  Fe235     1.0  0.42464  0.94060  0.91165  1.0000
  S   S465      1.0  0.40316  0.92501  0.91541  1.0000
  Fe  Fe236     1.0  0.45087  0.90862  0.92255  1.0000
  S   S466      1.0  0.43187  0.89048  0.92746  1.0000
  S   S467      1.0  0.47916  0.89825  0.92521  1.0000
  Fe  Fe237     1.0  0.42572  0.90345  0.90819  1.0000
  S   S468      1.0  0.43154  0.88465  0.89481  1.0000
  Fe  Fe238     1.0  0.41127  0.91317  0.93427  1.0000
  S   S469      1.0  0.44640  0.92028  0.90291  1.0000
  S   S470      1.0  0.43093  0.93021  0.93083  1.0000
  Fe  Fe239     1.0  0.18125  0.58953  0.83297  1.0000
  S   S471      1.0  0.16689  0.60385  0.84869  1.0000
  Fe  Fe240     1.0  0.18673  0.55368  0.85104  1.0000
  S   S472      1.0  0.17342  0.56480  0.86841  1.0000
  H   H2702     1.0  0.17563  0.59305  0.89923  1.0000
  Fe  Fe241     1.0  0.15282  0.58099  0.85720  1.0000
  S   S473      1.0  0.12295  0.58484  0.86565  1.0000
  Fe  Fe242     1.0  0.18844  0.58655  0.85877  1.0000
  S   S474      1.0  0.19959  0.59917  0.86978  1.0000
  S   S475      1.0  0.16504  0.56831  0.84038  1.0000
  S   S476      1.0  0.20382  0.57375  0.84248  1.0000
  C   C1570     1.0  0.37544  0.87912  0.82283  1.0000
  H   H2703     1.0  0.12962  0.52534  0.82763  1.0000
  H   H2704     1.0  0.33815  0.84174  0.86690  1.0000
  S   S477      1.0  0.27575  0.59202  0.80486  1.0000
  Fe  Fe243     1.0  0.37835  0.67833  0.82754  1.0000
  S   S478      1.0  0.40673  0.66955  0.81722  1.0000
  S   S479      1.0  0.35492  0.66441  0.83358  1.0000
  Fe  Fe244     1.0  0.38346  0.71571  0.82518  1.0000
  S   S480      1.0  0.41172  0.71046  0.81413  1.0000
  S   S481      1.0  0.37017  0.74285  0.82894  1.0000
  Fe  Fe245     1.0  0.40163  0.69598  0.80392  1.0000
  H   H2705     1.0  0.10647  0.60790  0.92625  1.0000
  Fe  Fe246     1.0  0.41450  0.68481  0.82842  1.0000
  S   S482      1.0  0.43835  0.67629  0.83779  1.0000
  S   S483      1.0  0.37293  0.70386  0.81349  1.0000
  S   S484      1.0  0.38650  0.69097  0.84022  1.0000
  Fe  Fe247     1.0  0.29535  0.58201  0.81747  1.0000
  S   S485      1.0  0.30178  0.59805  0.82857  1.0000
  C   C1571     1.0  0.11638  0.51136  0.85419  1.0000
  Fe  Fe248     1.0  0.31843  0.54785  0.82819  1.0000
  S   S486      1.0  0.32705  0.56052  0.84050  1.0000
  S   S487      1.0  0.32796  0.51881  0.82786  1.0000
  Fe  Fe249     1.0  0.29818  0.57463  0.84457  1.0000
  S   S488      1.0  0.28398  0.58028  0.86375  1.0000
  Fe  Fe250     1.0  0.33007  0.58297  0.82356  1.0000
  S   S489      1.0  0.35539  0.59386  0.81810  1.0000
  S   S490      1.0  0.28930  0.55986  0.83387  1.0000
  S   S491      1.0  0.32391  0.56900  0.81082  1.0000
  H   H2706     1.0  0.34294  0.85101  0.82429  1.0000
  H   H2707     1.0  0.12233  0.50130  0.84818  1.0000
  H   H2708     1.0  0.41208  0.74763  0.79880  1.0000
  N   N111      1.0  0.37761  0.54197  0.80148  1.0000
  H   H2709     1.0  0.27804  0.74240  0.82679  1.0000
  S   S492      1.0  0.32961  0.80861  0.80508  1.0000
  C   C1572     1.0  0.13756  0.53265  0.83036  1.0000
  C   C1573     1.0  0.00593  0.51453  0.92556  1.0000
  H   H2710     1.0  0.37076  0.78340  0.79234  1.0000
  C   C1574     1.0  0.48736  0.89131  0.97358  1.0000
  H   H2711     1.0  0.08311  0.51032  0.95888  1.0000
  H   H2712     1.0  0.48274  0.91959  0.83300  1.0000
  C   C1575     1.0  0.25926  0.50250  0.84104  1.0000
  Fe  Fe251     1.0  0.40088  0.83945  0.85409  1.0000
  S   S493      1.0  0.41637  0.84773  0.83429  1.0000
  S   S494      1.0  0.38667  0.86124  0.86505  1.0000
  Fe  Fe252     1.0  0.40891  0.80084  0.85185  1.0000
  S   S495      1.0  0.42512  0.80646  0.83213  1.0000
  S   S496      1.0  0.40827  0.77204  0.85951  1.0000
  Fe  Fe253     1.0  0.43683  0.82313  0.83943  1.0000
  S   S497      1.0  0.46667  0.82140  0.83321  1.0000
  Fe  Fe254     1.0  0.40299  0.83016  0.82896  1.0000
  S   S498      1.0  0.39367  0.83776  0.81045  1.0000
  S   S499      1.0  0.42228  0.81575  0.85959  1.0000
  S   S500      1.0  0.38580  0.82359  0.84836  1.0000
  H   H2713     1.0  0.46753  0.95425  0.89930  1.0000
  H   H2714     1.0  0.35823  0.84982  0.86004  1.0000
  C   C1576     1.0  0.49217  0.83311  0.86114  1.0000
  C   C1577     1.0  0.47382  0.83311  0.86415  1.0000
  C   C1578     1.0  0.46599  0.82924  0.85570  1.0000
  C   C1579     1.0  0.47651  0.82513  0.84426  1.0000
  H   H2715     1.0  0.31607  0.71478  0.79505  1.0000
  H   H2716     1.0  0.35299  0.54909  0.79450  1.0000
  H   H2717     1.0  0.46557  0.83648  0.87292  1.0000
  H   H2718     1.0  0.45175  0.82984  0.85795  1.0000
  H   H2719     1.0  0.49130  0.61924  0.83542  1.0000
  H   H2720     1.0  0.46564  0.95568  0.88346  1.0000
  C   C1580     1.0  0.34804  0.81603  0.80629  1.0000
  C   C1581     1.0  0.35179  0.81342  0.81828  1.0000
  C   C1582     1.0  0.36614  0.81949  0.81963  1.0000
  C   C1583     1.0  0.37647  0.82872  0.80903  1.0000
  C   C1584     1.0  0.37275  0.83129  0.79704  1.0000
  C   C1585     1.0  0.35872  0.82478  0.79564  1.0000
  H   H2721     1.0  0.34362  0.80659  0.82655  1.0000
  H   H2722     1.0  0.36895  0.81731  0.82889  1.0000
  H   H2723     1.0  0.49910  0.94633  0.97731  1.0000
  H   H2724     1.0  0.41233  0.52307  0.81254  1.0000
  C   C1586     1.0  0.45390  0.69031  0.83219  1.0000
  C   C1587     1.0  0.45724  0.69929  0.81951  1.0000
  C   C1588     1.0  0.47073  0.70921  0.81497  1.0000
  C   C1589     1.0  0.48123  0.70995  0.82299  1.0000
  C   C1590     1.0  0.47773  0.70120  0.83572  1.0000
  C   C1591     1.0  0.46404  0.69150  0.84031  1.0000
  H   H2725     1.0  0.44983  0.69815  0.81308  1.0000
  H   H2726     1.0  0.47335  0.71596  0.80512  1.0000
  C   C1592     1.0  0.48664  0.85081  0.93450  1.0000
  H   H2727     1.0  0.46137  0.68479  0.85016  1.0000
  C   C1593     1.0  0.33992  0.86494  0.81918  1.0000
  C   C1594     1.0  0.11690  0.50710  0.92536  1.0000
  H   H2728     1.0  0.21531  0.61896  0.79223  1.0000
  H   H2729     1.0  0.48696  0.63360  0.85212  1.0000
  C   C1595     1.0  0.42903  0.97998  0.91384  1.0000
  S   S501      1.0  0.17985  0.50512  0.80702  1.0000
  C   C1596     1.0  0.36559  0.86634  0.83369  1.0000
  C   C1597     1.0  0.36318  0.52131  0.79486  1.0000
  C   C1598     1.0  0.37374  0.54087  0.82554  1.0000
  H   H2730     1.0  0.14204  0.59755  0.88057  1.0000
  C   C1599     1.0  0.38093  0.75068  0.83749  1.0000
  C   C1600     1.0  0.37586  0.76857  0.83824  1.0000
  C   C1601     1.0  0.38455  0.77527  0.84471  1.0000
  C   C1602     1.0  0.39792  0.76396  0.85084  1.0000
  C   C1603     1.0  0.40295  0.74604  0.85014  1.0000
  C   C1604     1.0  0.39465  0.73945  0.84331  1.0000
  H   H2731     1.0  0.36533  0.77731  0.83369  1.0000
  H   H2732     1.0  0.38058  0.78908  0.84523  1.0000
  H   H2733     1.0  0.41333  0.73725  0.85483  1.0000
  H   H2734     1.0  0.39870  0.72564  0.84272  1.0000
  C   C1605     1.0  0.35537  0.64612  0.82749  1.0000
  C   C1606     1.0  0.37153  0.63509  0.82300  1.0000
  C   C1607     1.0  0.37133  0.61935  0.81979  1.0000
  C   C1608     1.0  0.35503  0.61459  0.82098  1.0000
  C   C1609     1.0  0.33887  0.62609  0.82489  1.0000
  C   C1610     1.0  0.33907  0.64175  0.82817  1.0000
  H   H2735     1.0  0.38417  0.63834  0.82244  1.0000
  H   H2736     1.0  0.38390  0.61062  0.81667  1.0000
  H   H2737     1.0  0.32623  0.62274  0.82564  1.0000
  H   H2738     1.0  0.32653  0.65038  0.83148  1.0000
  C   C1611     1.0  0.47678  0.73122  0.86596  1.0000
  H   H2739     1.0  0.32788  0.86653  0.81535  1.0000
  H   H2740     1.0  0.31574  0.90320  0.84236  1.0000
  H   H2741     1.0  0.48181  0.96957  0.90774  1.0000
  H   H2742     1.0  0.33189  0.58791  0.89294  1.0000
  H   H2743     1.0  0.31612  0.57448  0.89533  1.0000
  C   C1612     1.0  0.32575  0.58166  0.88794  1.0000
  H   H2744     1.0  0.12994  0.54621  0.83116  1.0000
  H   H2745     1.0  0.48516  0.88502  0.86572  1.0000
  H   H2746     1.0  0.46550  0.73731  0.87285  1.0000
  H   H2747     1.0  0.24829  0.51177  0.85901  1.0000
  C   C1613     1.0  0.09805  0.50873  0.92317  1.0000
  H   H2748     1.0  0.33612  0.57163  0.88342  1.0000
  H   H2749     1.0  0.46165  0.93459  0.83096  1.0000
  H   H2750     1.0  0.49089  0.78337  0.84761  1.0000
  H   H2751     1.0  0.32128  0.88183  0.83112  1.0000
  H   H2752     1.0  0.42239  0.90055  0.86143  1.0000
  H   H2753     1.0  0.16825  0.63183  0.82078  1.0000
  H   H2754     1.0  0.16846  0.66382  0.81252  1.0000
  C   C1614     1.0  0.22297  0.59293  0.86854  1.0000
  C   C1615     1.0  0.23097  0.60007  0.87516  1.0000
  C   C1616     1.0  0.24968  0.59572  0.87396  1.0000
  C   C1617     1.0  0.26049  0.58454  0.86590  1.0000
  C   C1618     1.0  0.25246  0.57732  0.85937  1.0000
  C   C1619     1.0  0.23374  0.58134  0.86080  1.0000
  H   H2755     1.0  0.22271  0.60897  0.88122  1.0000
  H   H2756     1.0  0.25579  0.60131  0.87907  1.0000
  H   H2757     1.0  0.26060  0.56831  0.85342  1.0000
  H   H2758     1.0  0.22773  0.57542  0.85592  1.0000
  C   C1620     1.0  0.49485  0.91876  0.88761  1.0000
  C   C1621     1.0  0.49219  0.95885  0.88411  1.0000
  H   H2759     1.0  0.09518  0.59744  0.91962  1.0000
  C   C1622     1.0  0.18673  0.50988  0.81905  1.0000
  C   C1623     1.0  0.32771  0.69456  0.80939  1.0000
  C   C1624     1.0  0.45756  0.87048  0.83535  1.0000
  C   C1625     1.0  0.42087  0.79001  0.80766  1.0000
  C   C1626     1.0  0.19412  0.50121  0.83978  1.0000
  C   C1627     1.0  0.05921  0.51794  0.92595  1.0000
  C   C1628     1.0  0.31657  0.51122  0.81958  1.0000
  H   H2760     1.0  0.27147  0.50375  0.83335  1.0000
  C   C1629     1.0  0.47515  0.85535  0.90222  1.0000
  H   H2761     1.0  0.42730  0.91270  0.87068  1.0000
  C   C1630     1.0  0.49025  0.88797  0.85529  1.0000
  H   H2762     1.0  0.41223  0.94941  0.96194  1.0000
  H   H2763     1.0  0.24737  0.52055  0.80689  1.0000
  H   H2764     1.0  0.31428  0.69891  0.81528  1.0000
  C   C1631     1.0  0.20550  0.64678  0.79224  1.0000
  C   C1632     1.0  0.48157  0.93270  0.94504  1.0000
  C   C1633     1.0  0.47491  0.92213  0.94001  1.0000
  C   C1634     1.0  0.01007  0.53788  0.93382  1.0000
  H   H2765     1.0  0.34845  0.89984  0.83658  1.0000
  H   H2766     1.0  0.47240  0.94132  0.95101  1.0000
  H   H2767     1.0  0.46069  0.92250  0.94224  1.0000
  C   C1635     1.0  0.41801  0.87780  0.88751  1.0000
  C   C1636     1.0  0.40006  0.88614  0.88742  1.0000
  C   C1637     1.0  0.39048  0.88090  0.88060  1.0000
  C   C1638     1.0  0.39876  0.86731  0.87385  1.0000
  C   C1639     1.0  0.41664  0.85897  0.87404  1.0000
  C   C1640     1.0  0.42616  0.86417  0.88083  1.0000
  H   H2768     1.0  0.39363  0.89672  0.89247  1.0000
  H   H2769     1.0  0.37662  0.88742  0.88053  1.0000
  H   H2770     1.0  0.42318  0.84849  0.86893  1.0000
  H   H2771     1.0  0.44002  0.85769  0.88079  1.0000
  H   H2772     1.0  0.36960  0.88332  0.81431  1.0000
  C   C1641     1.0  0.14254  0.61791  0.89034  1.0000
  H   H2773     1.0  0.37278  0.86305  0.84154  1.0000
  H   H2774     1.0  0.35085  0.86745  0.81073  1.0000
  C   C1642     1.0  0.49532  0.77729  0.83924  1.0000
  H   H2775     1.0  0.35992  0.67524  0.80343  1.0000
  H   H2776     1.0  0.49363  0.64988  0.86352  1.0000
  H   H2777     1.0  0.25398  0.61708  0.78868  1.0000
  H   H2778     1.0  0.11109  0.50364  0.86373  1.0000
  H   H2779     1.0  0.22183  0.55184  0.81521  1.0000
  C   C1643     1.0  0.10308  0.56404  0.90817  1.0000
  C   C1644     1.0  0.09144  0.57642  0.90102  1.0000
  C   C1645     1.0  0.09758  0.58251  0.88793  1.0000
  C   C1646     1.0  0.11540  0.57637  0.88196  1.0000
  C   C1647     1.0  0.12687  0.56370  0.88910  1.0000
  C   C1648     1.0  0.12072  0.55754  0.90213  1.0000
  H   H2780     1.0  0.07777  0.58148  0.90557  1.0000
  H   H2781     1.0  0.08856  0.59221  0.88247  1.0000
  H   H2782     1.0  0.14046  0.55857  0.88460  1.0000
  H   H2783     1.0  0.12979  0.54796  0.90760  1.0000
  C   C1649     1.0  0.10868  0.59913  0.91959  1.0000
  C   C1650     1.0  0.49056  0.95738  0.91202  1.0000
  C   C1651     1.0  0.01355  0.50777  0.94607  1.0000
  C   C1652     1.0  0.01424  0.52542  0.94462  1.0000
  H   H2784     1.0  0.48282  0.94694  0.91680  1.0000
  H   H2785     1.0  0.48728  0.92816  0.88068  1.0000
  Fe  Fe255     1.0  0.03155  0.59187  0.93383  1.0000
  C   C1653     1.0  0.43648  0.96597  0.97096  1.0000
  H   H2786     1.0  0.39262  0.76932  0.81328  1.0000
  H   H2787     1.0  0.39232  0.95915  0.95551  1.0000
  C   C1654     1.0  0.28013  0.78291  0.81698  1.0000
  H   H2788     1.0  0.43905  0.96395  0.96117  1.0000
  C   C1655     1.0  0.13788  0.61207  0.87983  1.0000
  C   C1656     1.0  0.25161  0.57428  0.79297  1.0000
  H   H2789     1.0  0.37591  0.76068  0.80121  1.0000
  H   H2790     1.0  0.44109  0.97790  0.97082  1.0000
  H   H2791     1.0  0.30007  0.73759  0.81683  1.0000
  C   C1657     1.0  0.45986  0.90687  0.83698  1.0000
  H   H2792     1.0  0.15717  0.61764  0.88759  1.0000
  H   H2793     1.0  0.15051  0.51607  0.86583  1.0000
  C   C1658     1.0  0.30611  0.77684  0.83323  1.0000
  H   H2794     1.0  0.48761  0.72371  0.87113  1.0000
  H   H2795     1.0  0.27158  0.77431  0.82402  1.0000
  H   H2796     1.0  0.44966  0.86056  0.83610  1.0000
  H   H2797     1.0  0.49597  0.85985  0.93228  1.0000
  H   H2798     1.0  0.00455  0.51496  0.98454  1.0000
  C   C1659     1.0  0.31569  0.77029  0.84447  1.0000
  C   C1660     1.0  0.49496  0.82473  0.84135  1.0000
  H   H2799     1.0  0.12330  0.61629  0.87988  1.0000
  H   H2800     1.0  0.38314  0.95310  0.97704  1.0000
  H   H2801     1.0  0.47053  0.78239  0.83311  1.0000
  C   C1661     1.0  0.29837  0.49862  0.80655  1.0000
  C   C1662     1.0  0.40587  0.96079  0.95539  1.0000
  H   H2802     1.0  0.15118  0.50874  0.84027  1.0000
  H   H2803     1.0  0.23988  0.52054  0.79348  1.0000
  H   H2804     1.0  0.26385  0.52362  0.84767  1.0000
  C   C1663     1.0  0.23889  0.52896  0.80015  1.0000
  H   H2805     1.0  0.45088  0.84598  0.91410  1.0000
  C   C1664     1.0  0.41101  0.53332  0.80374  1.0000
  H   H2806     1.0  0.16716  0.60612  0.91543  1.0000
  C   C1665     1.0  0.29865  0.74884  0.83360  1.0000
  N   N112      1.0  0.47096  0.75805  0.84754  1.0000
  C   C1666     1.0  0.46328  0.74723  0.84203  1.0000
  C   C1667     1.0  0.48431  0.74526  0.85486  1.0000
  C   C1668     1.0  0.48039  0.77050  0.83670  1.0000
  C   C1669     1.0  0.45560  0.76822  0.85584  1.0000
  C   C1670     1.0  0.45109  0.75773  0.83264  1.0000
  C   C1671     1.0  0.19497  0.51867  0.83903  1.0000
  H   H2807     1.0  0.21847  0.49522  0.79997  1.0000
  C   C1672     1.0  0.46031  0.77880  0.86365  1.0000
  H   H2808     1.0  0.47430  0.73802  0.83699  1.0000
  H   H2809     1.0  0.45503  0.73874  0.84962  1.0000
  H   H2810     1.0  0.46790  0.84374  0.92747  1.0000
  C   C1673     1.0  0.06947  0.49851  0.92872  1.0000
  H   H2811     1.0  0.49596  0.91600  0.96707  1.0000
  H   H2812     1.0  0.44662  0.77814  0.85000  1.0000
  H   H2813     1.0  0.44654  0.75958  0.86238  1.0000
  H   H2814     1.0  0.45817  0.76606  0.82421  1.0000
  H   H2815     1.0  0.44677  0.74816  0.82915  1.0000
  H   H2816     1.0  0.43868  0.76594  0.83726  1.0000
  H   H2817     1.0  0.19322  0.54499  0.82744  1.0000
  C   C1674     1.0  0.19237  0.53155  0.82810  1.0000
  H   H2818     1.0  0.22469  0.53163  0.80513  1.0000
  H   H2819     1.0  0.10240  0.55283  0.87084  1.0000
  H   H2820     1.0  0.46184  0.79218  0.85798  1.0000
  H   H2821     1.0  0.47235  0.77214  0.86760  1.0000
  H   H2822     1.0  0.44922  0.78036  0.87208  1.0000
  N   N113      1.0  0.32637  0.60519  0.86670  1.0000
  C   C1675     1.0  0.31448  0.62255  0.86183  1.0000
  C   C1676     1.0  0.34186  0.60966  0.86976  1.0000
  C   C1677     1.0  0.31539  0.59574  0.87857  1.0000
  C   C1678     1.0  0.33235  0.59449  0.85655  1.0000
  C   C1679     1.0  0.29670  0.62132  0.85923  1.0000
  C   C1680     1.0  0.35415  0.61950  0.85846  1.0000
  C   C1681     1.0  0.34687  0.57736  0.85849  1.0000
  H   H2823     1.0  0.31093  0.63156  0.86857  1.0000
  H   H2824     1.0  0.32160  0.62972  0.85276  1.0000
  H   H2825     1.0  0.35077  0.59775  0.87417  1.0000
  H   H2826     1.0  0.33675  0.61798  0.87702  1.0000
  H   H2827     1.0  0.30615  0.60540  0.88421  1.0000
  H   H2828     1.0  0.30653  0.58906  0.87614  1.0000
  H   H2829     1.0  0.32074  0.59033  0.85529  1.0000
  H   H2830     1.0  0.33698  0.60264  0.84710  1.0000
  H   H2831     1.0  0.29905  0.61411  0.85159  1.0000
  H   H2832     1.0  0.28787  0.61516  0.86785  1.0000
  H   H2833     1.0  0.28915  0.63491  0.85593  1.0000
  H   H2834     1.0  0.36598  0.62044  0.86158  1.0000
  H   H2835     1.0  0.35937  0.61251  0.85050  1.0000
  H   H2836     1.0  0.34729  0.63332  0.85506  1.0000
  H   H2837     1.0  0.34063  0.56583  0.86362  1.0000
  H   H2838     1.0  0.35701  0.57802  0.86333  1.0000
  H   H2839     1.0  0.35470  0.57489  0.84905  1.0000
  H   H2840     1.0  0.25487  0.56189  0.81815  1.0000
  C   C1682     1.0  0.36895  0.53504  0.81506  1.0000
  H   H2841     1.0  0.45619  0.88030  0.82640  1.0000
  H   H2842     1.0  0.31282  0.75750  0.85048  1.0000
  H   H2843     1.0  0.45822  0.97029  0.93334  1.0000
  H   H2844     1.0  0.13387  0.54552  0.85662  1.0000
  H   H2845     1.0  0.45522  0.84518  0.89790  1.0000
  H   H2846     1.0  0.13083  0.50789  0.87438  1.0000
  H   H2847     1.0  0.38688  0.79203  0.80593  1.0000
  H   H2848     1.0  0.50023  0.88181  0.97434  1.0000
  H   H2849     1.0  0.29442  0.72385  0.83196  1.0000
  H   H2850     1.0  0.19517  0.57345  0.79001  1.0000
  S   S502      1.0  0.19163  0.68237  0.79209  1.0000
  C   C1683     1.0  0.32378  0.89693  0.84973  1.0000
  H   H2851     1.0  0.36762  0.53342  0.83489  1.0000
  H   H2852     1.0  0.43327  0.78815  0.81112  1.0000
  H   H2853     1.0  0.11649  0.58582  0.92317  1.0000
  H   H2854     1.0  0.10289  0.53228  0.84010  1.0000
  C   C1684     1.0  0.15850  0.61896  0.91195  1.0000
  C   C1685     1.0  0.42474  0.90765  0.96162  1.0000
  H   H2855     1.0  0.32386  0.90755  0.85434  1.0000
  H   H2856     1.0  0.27225  0.50222  0.85633  1.0000
  C   C1686     1.0  0.07778  0.51100  0.95052  1.0000
  H   H2857     1.0  0.47760  0.65487  0.84478  1.0000
  C   C1687     1.0  0.42321  0.77494  0.80085  1.0000
  N   N114      1.0  0.23800  0.56267  0.79706  1.0000
  C   C1688     1.0  0.00570  0.53245  0.92432  1.0000
  H   H2858     1.0  0.47291  0.65381  0.81948  1.0000
  H   H2859     1.0  0.36264  0.77786  0.80894  1.0000
  H   H2860     1.0  0.43631  0.77467  0.79394  1.0000
  H   H2861     1.0  0.14778  0.58282  0.91575  1.0000
  H   H2862     1.0  0.44601  0.91236  0.83526  1.0000
  H   H2863     1.0  0.09951  0.50855  0.91304  1.0000
  C   C1689     1.0  0.48708  0.90967  0.97557  1.0000
  H   H2864     1.0  0.49194  0.82343  0.91696  1.0000
  H   H2865     1.0  0.32321  0.86142  0.84987  1.0000
  H   H2866     1.0  0.48334  0.98329  0.95497  1.0000
  H   H2867     1.0  0.31125  0.78870  0.82717  1.0000
  H   H2868     1.0  0.46508  0.97494  0.88854  1.0000
  H   H2869     1.0  0.48528  0.89285  0.96389  1.0000
  H   H2870     1.0  0.44497  0.95446  0.97617  1.0000
  H   H2871     1.0  0.19964  0.56326  0.80523  1.0000
  H   H2872     1.0  0.17372  0.57074  0.90137  1.0000
  H   H2873     1.0  0.01027  0.55164  0.93275  1.0000
  H   H2874     1.0  0.33465  0.76743  0.81567  1.0000
  H   H2875     1.0  0.39378  0.98828  0.95365  1.0000
  H   H2876     1.0  0.41902  0.80331  0.80131  1.0000
  H   H2877     1.0  0.11512  0.59990  0.89978  1.0000
  S   S503      1.0  0.01474  0.61395  0.92216  1.0000
  H   H2878     1.0  0.44915  0.95708  0.91925  1.0000
  C   C1690     1.0  0.34333  0.88885  0.84390  1.0000
  H   H2879     1.0  0.22527  0.59845  0.82342  1.0000
  N   N115      1.0  0.13722  0.60739  0.90360  1.0000
  H   H2880     1.0  0.46534  0.92550  0.84634  1.0000
  H   H2881     1.0  0.30110  0.76473  0.80762  1.0000
  H   H2882     1.0  0.48914  0.66932  0.82471  1.0000
  H   H2883     1.0  0.48493  0.92947  0.90437  1.0000
  H   H2884     1.0  0.16802  0.58657  0.88782  1.0000
  N   N116      1.0  0.23177  0.63711  0.82703  1.0000
  C   C1691     1.0  0.24253  0.65065  0.81879  1.0000
  C   C1692     1.0  0.23712  0.63150  0.83969  1.0000
  C   C1693     1.0  0.21218  0.64618  0.82873  1.0000
  C   C1694     1.0  0.23575  0.62199  0.82042  1.0000
  C   C1695     1.0  0.23742  0.66020  0.80595  1.0000
  C   C1696     1.0  0.25712  0.62286  0.83935  1.0000
  C   C1697     1.0  0.19855  0.63517  0.83738  1.0000
  C   C1698     1.0  0.23180  0.60402  0.82860  1.0000
  H   H2885     1.0  0.24159  0.66115  0.82388  1.0000
  H   H2886     1.0  0.25707  0.64442  0.81641  1.0000
  H   H2887     1.0  0.22940  0.62204  0.84658  1.0000
  H   H2888     1.0  0.23383  0.64309  0.84421  1.0000
  H   H2889     1.0  0.20983  0.65835  0.83245  1.0000
  H   H2890     1.0  0.20804  0.65069  0.81948  1.0000
  H   H2891     1.0  0.22848  0.62575  0.81258  1.0000
  H   H2892     1.0  0.25022  0.61919  0.81584  1.0000
  H   H2893     1.0  0.22482  0.67045  0.80712  1.0000
  H   H2894     1.0  0.24822  0.66711  0.79994  1.0000
  H   H2895     1.0  0.23613  0.65096  0.80066  1.0000
  H   H2896     1.0  0.26595  0.63242  0.83451  1.0000
  H   H2897     1.0  0.25920  0.61813  0.84919  1.0000
  H   H2898     1.0  0.26150  0.61122  0.83488  1.0000
  H   H2899     1.0  0.19826  0.62419  0.83326  1.0000
  H   H2900     1.0  0.18488  0.64378  0.83807  1.0000
  H   H2901     1.0  0.20068  0.63018  0.84718  1.0000
  C   C1699     1.0  0.40505  0.97910  0.95778  1.0000
  H   H2902     1.0  0.22289  0.60448  0.83799  1.0000
  H   H2903     1.0  0.24451  0.59426  0.82981  1.0000
  H   H2904     1.0  0.01623  0.49828  0.95457  1.0000
  C   C1700     1.0  0.11074  0.53925  0.87081  1.0000
  C   C1701     1.0  0.09964  0.52325  0.84936  1.0000
  H   H2905     1.0  0.34782  0.73998  0.80929  1.0000
  H   H2906     1.0  0.46851  0.82872  0.90773  1.0000
  H   H2907     1.0  0.11897  0.53634  0.87802  1.0000
  H   H2908     1.0  0.49105  0.75217  0.85890  1.0000
  H   H2909     1.0  0.11637  0.50807  0.93513  1.0000
  H   H2910     1.0  0.09077  0.53112  0.85630  1.0000
  C   C1702     1.0  0.20567  0.56443  0.79499  1.0000
  N   N117      1.0  0.40304  0.98055  0.97124  1.0000
  N   N118      1.0  0.46029  0.89162  0.84828  1.0000
  C   C1703     1.0  0.44998  0.87904  0.84703  1.0000
  C   C1704     1.0  0.45134  0.89745  0.86062  1.0000
  C   C1705     1.0  0.47937  0.88154  0.84856  1.0000
  C   C1706     1.0  0.42580  0.91479  0.98108  1.0000
  H   H2911     1.0  0.15772  0.62777  0.91829  1.0000
  C   C1707     1.0  0.43192  0.90843  0.86148  1.0000
  C   C1708     1.0  0.47167  0.96069  0.88931  1.0000
  H   H2912     1.0  0.32826  0.68080  0.80906  1.0000
  H   H2913     1.0  0.44918  0.86799  0.85556  1.0000
  H   H2914     1.0  0.43585  0.88571  0.84654  1.0000
  H   H2915     1.0  0.45888  0.90552  0.86292  1.0000
  H   H2916     1.0  0.45131  0.88567  0.86861  1.0000
  H   H2917     1.0  0.47951  0.86753  0.85351  1.0000
  H   H2918     1.0  0.48745  0.88096  0.83881  1.0000
  C   C1709     1.0  0.24662  0.54550  0.79264  1.0000
  H   H2919     1.0  0.02830  0.50827  0.98404  1.0000
  C   C1710     1.0  0.32774  0.75637  0.82106  1.0000
  H   H2920     1.0  0.35409  0.53931  0.81649  1.0000
  H   H2921     1.0  0.33577  0.71794  0.79743  1.0000
  H   H2922     1.0  0.30774  0.78354  0.80814  1.0000
  N   N119      1.0  0.48794  0.85194  0.91089  1.0000
  H   H2923     1.0  0.38830  0.53811  0.82506  1.0000
  H   H2924     1.0  0.27497  0.78702  0.80811  1.0000
  H   H2925     1.0  0.06056  0.53215  0.98370  1.0000
  C   C1711     1.0  0.19220  0.65952  0.79784  1.0000
  C   C1712     1.0  0.16730  0.58479  0.89806  1.0000
  H   H2926     1.0  0.48545  0.70200  0.84205  1.0000
  H   H2927     1.0  0.14099  0.57978  0.90292  1.0000
  S   S504      1.0  0.19128  0.60054  0.81218  1.0000
  H   H2928     1.0  0.31098  0.78022  0.85055  1.0000
  H   H2929     1.0  0.10950  0.62115  0.90353  1.0000
  C   C1713     1.0  0.33305  0.74230  0.81298  1.0000
  H   H2930     1.0  0.14493  0.61859  0.87047  1.0000
  H   H2931     1.0  0.24801  0.51182  0.83698  1.0000
  C   C1714     1.0  0.27803  0.61291  0.79556  1.0000
  C   C1715     1.0  0.23195  0.56016  0.81128  1.0000
  H   H2932     1.0  0.04573  0.51810  0.92470  1.0000
  H   H2933     1.0  0.06296  0.51258  0.95356  1.0000
  H   H2934     1.0  0.13522  0.60956  0.92284  1.0000
  H   H2935     1.0  0.33045  0.76917  0.84115  1.0000
  C   C1716     1.0  0.48500  0.94465  0.98023  1.0000
  H   H2936     1.0  0.29982  0.53675  0.81396  1.0000
  H   H2937     1.0  0.33958  0.89110  0.82111  1.0000
  H   H2938     1.0  0.49528  0.97206  0.88282  1.0000
  H   H2939     1.0  0.06041  0.49121  0.93657  1.0000
  H   H2940     1.0  0.24620  0.58639  0.79704  1.0000
  H   H2941     1.0  0.10160  0.52987  0.87374  1.0000
  C   C1717     1.0  0.30318  0.52287  0.81362  1.0000
  C   C1718     1.0  0.44260  0.97039  0.92032  1.0000
  C   C1719     1.0  0.14766  0.58841  0.90554  1.0000
  C   C1720     1.0  0.44790  0.97799  0.92821  1.0000
  C   C1721     1.0  0.47351  0.64088  0.82633  1.0000
  H   H2942     1.0  0.49543  0.73809  0.84836  1.0000
  H   H2943     1.0  0.33792  0.86423  0.86629  1.0000
  H   H2944     1.0  0.03227  0.53633  0.97732  1.0000
  H   H2945     1.0  0.36809  0.85375  0.83049  1.0000
  C   C1722     1.0  0.24696  0.55202  0.81883  1.0000
  C   C1723     1.0  0.33608  0.87867  0.82749  1.0000
  C   C1724     1.0  0.11747  0.60741  0.90598  1.0000
  S   S505      1.0  0.42205  0.97017  0.90419  1.0000
  H   H2946     1.0  0.37615  0.89086  0.82596  1.0000
  H   H2947     1.0  0.38952  0.87213  0.81979  1.0000
  H   H2948     1.0  0.09072  0.52236  0.92403  1.0000
  H   H2949     1.0  0.40902  0.54654  0.80573  1.0000
  H   H2950     1.0  0.03312  0.55427  0.98307  1.0000
  C   C1725     1.0  0.22234  0.57263  0.79094  1.0000
  C   C1726     1.0  0.37710  0.56149  0.79935  1.0000
  C   C1727     1.0  0.43459  0.90944  0.96968  1.0000
  S   S506      1.0  0.04388  0.56566  0.92829  1.0000
  H   H2951     1.0  0.08114  0.52304  0.94370  1.0000
  H   H2952     1.0  0.13595  0.63219  0.88973  1.0000
  H   H2953     1.0  0.28624  0.75446  0.84003  1.0000
  H   H2954     1.0  0.33003  0.72945  0.81881  1.0000
  H   H2955     1.0  0.25611  0.54014  0.81571  1.0000
  C   C1728     1.0  0.14031  0.50940  0.86500  1.0000
  C   C1729     1.0  0.34352  0.85348  0.86096  1.0000
  C   C1730     1.0  0.18998  0.49680  0.82979  1.0000
  S   S507      1.0  0.02049  0.53139  0.95643  1.0000
  N   N120      1.0  0.30797  0.76348  0.82543  1.0000
  H   H2956     1.0  0.49368  0.83681  0.93707  1.0000
  C   C1731     1.0  0.41664  0.96678  0.97784  1.0000
  H   H2957     1.0  0.12258  0.51837  0.91889  1.0000
  H   H2958     1.0  0.38359  0.56442  0.80592  1.0000
  N   N121      1.0  0.34577  0.87307  0.83828  1.0000
  C   C1732     1.0  0.32979  0.70753  0.79637  1.0000
  H   H2959     1.0  0.43093  0.92064  0.85396  1.0000
  H   H2960     1.0  0.47172  0.86323  0.83480  1.0000
  C   C1733     1.0  0.37436  0.77485  0.80118  1.0000
  H   H2961     1.0  0.30239  0.61266  0.80078  1.0000
  H   H2962     1.0  0.26109  0.54178  0.79298  1.0000
  H   H2963     1.0  0.35154  0.88559  0.85121  1.0000
  H   H2964     1.0  0.26397  0.56725  0.79663  1.0000
  H   H2965     1.0  0.29174  0.78191  0.83731  1.0000
  H   H2966     1.0  0.46740  0.90217  0.82816  1.0000
  C   C1734     1.0  0.00967  0.50228  0.93649  1.0000
  C   C1735     1.0  0.14440  0.52198  0.84238  1.0000
  H   H2967     1.0  0.35564  0.51647  0.80451  1.0000
  H   H2968     1.0  0.40961  0.78968  0.81610  1.0000
  H   H2969     1.0  0.46381  0.64261  0.83534  1.0000
  C   C1736     1.0  0.29419  0.51657  0.80710  1.0000
  H   H2970     1.0  0.24079  0.54799  0.82903  1.0000
  C   C1737     1.0  0.29264  0.73786  0.82666  1.0000
  C   C1738     1.0  0.19178  0.62323  0.80710  1.0000
  C   C1739     1.0  0.39085  0.77842  0.80408  1.0000
  H   H2971     1.0  0.05710  0.52473  0.93374  1.0000
  S   S508      1.0  0.05649  0.59490  0.93843  1.0000
  C   C1740     1.0  0.41181  0.75888  0.79040  1.0000
  H   H2972     1.0  0.36788  0.55509  0.82550  1.0000
  C   C1741     1.0  0.49768  0.92774  0.89726  1.0000
  S   S509      1.0  0.04195  0.58705  0.97756  1.0000
  C   C1742     1.0  0.47665  0.85357  0.92388  1.0000
  H   H2973     1.0  0.23551  0.50052  0.82657  1.0000
  H   H2974     1.0  0.38566  0.72873  0.79162  1.0000
  C   C1743     1.0  0.26098  0.51016  0.85177  1.0000
  H   H2975     1.0  0.41442  0.95966  0.94587  1.0000
  H   H2976     1.0  0.30733  0.73938  0.83991  1.0000
  H   H2977     1.0  0.46702  0.86917  0.90135  1.0000
  H   H2978     1.0  0.36295  0.56894  0.80151  1.0000
  H   H2979     1.0  0.49048  0.90218  0.85184  1.0000
  C   C1744     1.0  0.29333  0.63739  0.78850  1.0000
  H   H2980     1.0  0.46743  0.86684  0.92341  1.0000
  H   H2981     1.0  0.06581  0.52565  0.91691  1.0000
  H   H2982     1.0  0.13047  0.63020  0.91210  1.0000
  C   C1745     1.0  0.07305  0.59470  0.97949  1.0000
  H   H2983     1.0  0.15522  0.52792  0.84309  1.0000
  H   H2984     1.0  0.00791  0.57406  0.98102  1.0000
  C   C1746     1.0  0.48677  0.91096  0.93227  1.0000
  H   H2985     1.0  0.47902  0.98537  0.97127  1.0000
  H   H2986     1.0  0.33406  0.74979  0.82929  1.0000
  C   C1747     1.0  0.39712  0.91624  0.97641  1.0000
  C   C1748     1.0  0.49081  0.64592  0.84577  1.0000
  H   H2987     1.0  0.48706  0.76395  0.82851  1.0000
  H   H2988     1.0  0.28681  0.72393  0.78608  1.0000
  C   C1749     1.0  0.30001  0.77336  0.81406  1.0000
  H   H2989     1.0  0.33799  0.69453  0.81444  1.0000
  N   N122      1.0  0.13057  0.52045  0.85467  1.0000
  C   C1750     1.0  0.18826  0.52715  0.81812  1.0000
  H   H2990     1.0  0.14929  0.53412  0.82236  1.0000
  H   H2991     1.0  0.11498  0.54744  0.85054  1.0000
  H   H2992     1.0  0.31697  0.88716  0.85713  1.0000
  C   C1751     1.0  0.40597  0.91148  0.96477  1.0000
  C   C1752     1.0  0.13941  0.61674  0.91292  1.0000
  H   H2993     1.0  0.44910  0.90678  0.96698  1.0000
  H   H2994     1.0  0.32687  0.74643  0.80463  1.0000
  S   S510      1.0  0.39368  0.91110  0.95391  1.0000
  H   H2995     1.0  0.22493  0.57313  0.81391  1.0000
  C   C1753     1.0  0.20513  0.62871  0.79674  1.0000
  H   H2996     1.0  0.43172  0.90320  0.95297  1.0000
  H   H2997     1.0  0.48696  0.90847  0.89277  1.0000
  H   H2998     1.0  0.16489  0.62525  0.90231  1.0000
  S   S511      1.0  0.01966  0.58055  0.95385  1.0000
  H   H2999     1.0  0.28401  0.52564  0.80245  1.0000
  C   C1754     1.0  0.46803  0.92230  0.83694  1.0000
  H   H3000     1.0  0.46874  0.63219  0.82232  1.0000
  C   C1755     1.0  0.33815  0.85834  0.84801  1.0000
  H   H3001     1.0  0.34234  0.84584  0.84446  1.0000
  N   N123      1.0  0.40829  0.77618  0.79442  1.0000
  H   H3002     1.0  0.07400  0.60206  0.96979  1.0000
  H   H3003     1.0  0.48262  0.85423  0.89247  1.0000
  C   C1756     1.0  0.17880  0.65403  0.80815  1.0000
  C   C1757     1.0  0.46183  0.84292  0.90591  1.0000
  H   H3004     1.0  0.27864  0.79520  0.82027  1.0000
  H   H3005     1.0  0.47267  0.72141  0.86261  1.0000
  C   C1758     1.0  0.17870  0.63593  0.81287  1.0000
  H   H3006     1.0  0.09161  0.51467  0.84810  1.0000
  H   H3007     1.0  0.42498  0.76231  0.80810  1.0000
  N   N124      1.0  0.50176  0.64267  0.83301  1.0000
  C   C1759     1.0  0.29223  0.62022  0.79549  1.0000
  H   H3008     1.0  0.49521  0.66893  0.85075  1.0000
  C   C1760     1.0  0.32100  0.49332  0.81887  1.0000
  H   H3009     1.0  0.47325  0.91746  0.97502  1.0000
  C   C1761     1.0  0.49264  0.63194  0.82851  1.0000
  C   C1762     1.0  0.38423  0.97962  0.97882  1.0000
  H   H3010     1.0  0.21781  0.58632  0.79273  1.0000
  H   H3011     1.0  0.48923  0.87957  0.90571  1.0000
  H   H3012     1.0  0.48013  0.94474  0.97184  1.0000
  H   H3013     1.0  0.49481  0.96082  0.91956  1.0000
  H   H3014     1.0  0.00282  0.54197  0.91585  1.0000
  H   H3015     1.0  0.42411  0.53158  0.79687  1.0000
  H   H3016     1.0  0.47658  0.85384  0.94313  1.0000
  C   C1763     1.0  0.05960  0.58496  0.98507  1.0000
  H   H3017     1.0  0.47608  0.88571  0.98030  1.0000
  H   H3018     1.0  0.41706  0.98386  0.95151  1.0000
  C   C1764     1.0  0.39632  0.53122  0.79791  1.0000
  H   H3019     1.0  0.20853  0.55159  0.79215  1.0000
  C   C1765     1.0  0.37987  0.96109  0.98428  1.0000
  H   H3020     1.0  0.49483  0.95649  0.87436  1.0000
  H   H3021     1.0  0.41439  0.95324  0.97950  1.0000
  H   H3022     1.0  0.30428  0.64309  0.78846  1.0000
  H   H3023     1.0  0.09449  0.60399  0.98250  1.0000
  H   H3024     1.0  0.30529  0.69228  0.79221  1.0000
  H   H3025     1.0  0.37412  0.98730  0.97303  1.0000
  H   H3026     1.0  0.39624  0.51683  0.80062  1.0000
  H   H3027     1.0  0.47675  0.95651  0.98387  1.0000
  C   C1766     1.0  0.40704  0.91789  0.98458  1.0000
  H   H3028     1.0  0.33662  0.67289  0.79140  1.0000
  H   H3029     1.0  0.36664  0.66554  0.78957  1.0000
  C   C1767     1.0  0.36711  0.67674  0.79342  1.0000
  H   H3030     1.0  0.38145  0.67550  0.79338  1.0000
  C   C1768     1.0  0.36647  0.54005  0.79309  1.0000
  C   C1769     1.0  0.26504  0.62265  0.78859  1.0000
  H   H3031     1.0  0.37582  0.51155  0.79255  1.0000
  H   H3032     1.0  0.38067  0.83845  0.78880  1.0000
  H   H3033     1.0  0.50087  0.62824  0.81946  1.0000
  H   H3034     1.0  0.35472  0.52181  0.78826  1.0000
  H   H3035     1.0  0.40128  0.53360  0.78743  1.0000
  H   H3036     1.0  0.12636  0.49484  0.92310  1.0000
  H   H3037     1.0  0.36454  0.70499  0.78809  1.0000
  S   S512      1.0  0.49867  0.72178  0.81681  1.0000
  C   C1770     1.0  0.49852  0.86640  0.90591  1.0000
  N   N125      1.0  0.08782  0.49497  0.93168  1.0000
  C   C1771     1.0  0.38581  0.57036  0.78590  1.0000
  H   H3038     1.0  0.38553  0.58432  0.78585  1.0000
  C   C1772     1.0  0.50004  0.93218  0.94221  1.0000
  H   H3039     1.0  0.49954  0.78770  0.83097  1.0000
  C   C1773     1.0  0.08639  0.49388  0.94553  1.0000
  H   H3040     1.0  0.07051  0.49351  0.92014  1.0000
  H   H3041     1.0  0.40410  0.80448  0.78697  1.0000
  C   C1774     1.0  0.49893  0.65426  0.85321  1.0000
  H   H3042     1.0  0.40085  0.75807  0.78646  1.0000
  Fe  Fe256     1.0  0.32805  0.80322  0.78661  1.0000
  C   C1775     1.0  0.49962  0.83363  0.91099  1.0000
  H   H3043     1.0  0.35585  0.82696  0.78638  1.0000
  S   S513      1.0  0.30179  0.75260  0.78615  1.0000
  H   H3044     1.0  0.22739  0.49349  0.84978  1.0000
  S   S514      1.0  0.50083  0.84068  0.87106  1.0000
  H   H3045     1.0  0.19611  0.49120  0.84823  1.0000
  S   S515      1.0  0.28624  0.49110  0.79871  1.0000
  S   S516      1.0  0.00257  0.50701  0.91332  1.0000
  C   C1776     1.0  0.65538  0.37234  0.14909  1.0000
  Fe  Fe257     1.0  0.56724  0.12696  0.02053  1.0000
  S   S517      1.0  0.54653  0.11221  0.02156  1.0000
  Fe  Fe258     1.0  0.54878  0.13935  0.04533  1.0000
  S   S518      1.0  0.52628  0.12542  0.04844  1.0000
  S   S519      1.0  0.54488  0.16015  0.05682  1.0000
  Fe  Fe259     1.0  0.54770  0.10281  0.04210  1.0000
  S   S520      1.0  0.54371  0.07510  0.05162  1.0000
  Fe  Fe260     1.0  0.52667  0.13565  0.02781  1.0000
  C   C1777     1.0  0.53423  0.04157  0.00368  1.0000
  S   S521      1.0  0.57043  0.11572  0.04073  1.0000
  S   S522      1.0  0.54733  0.15136  0.02497  1.0000
  Fe  Fe261     1.0  0.90376  0.45568  0.02124  1.0000
  C   C1778     1.0  0.50485  0.21388  0.05859  1.0000
  S   S523      1.0  0.87478  0.45712  0.03150  1.0000
  Fe  Fe262     1.0  0.94241  0.43610  0.01737  1.0000
  S   S524      1.0  0.95170  0.45720  0.00131  1.0000
  S   S525      1.0  0.51301  0.24063  0.11095  1.0000
  C   C1779     1.0  0.95399  0.45698  0.05041  1.0000
  Fe  Fe263     1.0  0.92723  0.45856  0.99446  1.0000
  H   H3046     1.0  0.62789  0.15947  0.02453  1.0000
  S   S526      1.0  0.92638  0.45462  0.03011  1.0000
  S   S527      1.0  0.91932  0.43538  0.00950  1.0000
  Fe  Fe264     1.0  0.78862  0.44606  0.10054  1.0000
  S   S528      1.0  0.77587  0.45655  0.11812  1.0000
  S   S529      1.0  0.77391  0.43920  0.08856  1.0000
  Fe  Fe265     1.0  0.82597  0.44743  0.10142  1.0000
  S   S530      1.0  0.81651  0.45738  0.11954  1.0000
  S   S531      1.0  0.85524  0.44454  0.09162  1.0000
  Fe  Fe266     1.0  0.79877  0.43755  0.12598  1.0000
  S   S532      1.0  0.78942  0.42509  0.14661  1.0000
  C   C1780     1.0  0.52601  0.04887  0.01588  1.0000
  H   H3047     1.0  0.81043  0.37098  0.18072  1.0000
  S   S533      1.0  0.81050  0.42562  0.10876  1.0000
  S   S534      1.0  0.80492  0.46694  0.09198  1.0000
  Fe  Fe267     1.0  0.57641  0.24607  0.09240  1.0000
  S   S535      1.0  0.55857  0.24986  0.11106  1.0000
  S   S536      1.0  0.58571  0.26857  0.07736  1.0000
  Fe  Fe268     1.0  0.57624  0.20675  0.09770  1.0000
  S   S537      1.0  0.55866  0.20744  0.11718  1.0000
  S   S538      1.0  0.58668  0.18124  0.09017  1.0000
  Fe  Fe269     1.0  0.54309  0.23277  0.10747  1.0000
  H   H3048     1.0  0.52360  0.03764  0.02402  1.0000
  Fe  Fe270     1.0  0.57596  0.22443  0.11910  1.0000
  S   S539      1.0  0.58141  0.22314  0.13830  1.0000
  S   S540      1.0  0.55943  0.23114  0.08798  1.0000
  S   S541      1.0  0.59506  0.22159  0.10048  1.0000
  H   H3049     1.0  0.61912  0.13841  0.03887  1.0000
  H   H3050     1.0  0.51301  0.05831  0.01567  1.0000
  H   H3051     1.0  0.54979  0.34091  0.07782  1.0000
  S   S542      1.0  0.72104  0.23778  0.17075  1.0000
  Fe  Fe271     1.0  0.65838  0.23827  0.16664  1.0000
  H   H3052     1.0  0.60853  0.15690  0.05235  1.0000
  S   S543      1.0  0.65365  0.22619  0.15181  1.0000
  Fe  Fe272     1.0  0.65818  0.27419  0.17117  1.0000
  S   S544      1.0  0.65355  0.30353  0.16275  1.0000
  H   H3053     1.0  0.54070  0.28440  0.09897  1.0000
  S   S545      1.0  0.67681  0.25744  0.15798  1.0000
  C   C1781     1.0  0.60526  0.00123  0.04416  1.0000
  Fe  Fe273     1.0  0.67485  0.45118  0.12209  1.0000
  S   S546      1.0  0.68487  0.46191  0.13470  1.0000
  S   S547      1.0  0.68996  0.44469  0.10331  1.0000
  Fe  Fe274     1.0  0.63926  0.44798  0.14065  1.0000
  S   S548      1.0  0.64609  0.45908  0.15477  1.0000
  S   S549      1.0  0.61541  0.43499  0.14577  1.0000
  H   H3054     1.0  0.95738  0.45055  0.05974  1.0000
  Fe  Fe275     1.0  0.67316  0.44137  0.15029  1.0000
  S   S550      1.0  0.68802  0.42614  0.16563  1.0000
  S   S551      1.0  0.64769  0.46938  0.12413  1.0000
  S   S552      1.0  0.66568  0.42907  0.13733  1.0000
  Fe  Fe276     1.0  0.59554  0.34518  0.10245  1.0000
  S   S553      1.0  0.57028  0.33956  0.11607  1.0000
  S   S554      1.0  0.61411  0.32672  0.09038  1.0000
  Fe  Fe277     1.0  0.59080  0.38145  0.10842  1.0000
  S   S555      1.0  0.56497  0.37882  0.12260  1.0000
  S   S556      1.0  0.60299  0.40571  0.10245  1.0000
  Fe  Fe278     1.0  0.57946  0.35086  0.12891  1.0000
  S   S557      1.0  0.57746  0.33712  0.14935  1.0000
  Fe  Fe279     1.0  0.55838  0.36788  0.10836  1.0000
  S   S558      1.0  0.53286  0.37729  0.10105  1.0000
  S   S559      1.0  0.60583  0.35430  0.11580  1.0000
  S   S560      1.0  0.58311  0.37270  0.09364  1.0000
  H   H3055     1.0  0.58422  0.17980  0.04411  1.0000
  H   H3056     1.0  0.50606  0.31916  0.08303  1.0000
  S   S561      1.0  0.58997  0.13119  0.00376  1.0000
  H   H3057     1.0  0.58783  0.05226  0.01659  1.0000
  H   H3058     1.0  0.51567  0.18915  0.09443  1.0000
  S   S562      1.0  0.71052  0.34305  0.17358  1.0000
  S   S563      1.0  0.75865  0.31692  0.17441  1.0000
  C   C1782     1.0  0.63747  0.27193  0.13238  1.0000
  H   H3059     1.0  0.53755  0.12717  0.98632  1.0000
  H   H3060     1.0  0.52556  0.03291  0.00335  1.0000
  H   H3061     1.0  0.61730  0.99236  0.03974  1.0000
  H   H3062     1.0  0.99133  0.44500  0.05158  1.0000
  H   H3063     1.0  0.50269  0.33405  0.09295  1.0000
  H   H3064     1.0  0.87340  0.47594  0.10863  1.0000
  H   H3065     1.0  0.62201  0.25934  0.10876  1.0000
  C   C1783     1.0  0.55510  0.42772  0.10944  1.0000
  H   H3066     1.0  0.99356  0.44094  0.99083  1.0000
  H   H3067     1.0  0.52732  0.35367  0.12569  1.0000
  H   H3068     1.0  0.57469  0.00755  0.06861  1.0000
  C   C1784     1.0  0.70223  0.36585  0.17250  1.0000
  H   H3069     1.0  0.54402  0.29179  0.11611  1.0000
  N   N126      1.0  0.53723  0.05496  0.99131  1.0000
  C   C1785     1.0  0.69219  0.40292  0.16870  1.0000
  C   C1786     1.0  0.58824  0.12915  0.98884  1.0000
  C   C1787     1.0  0.69244  0.37552  0.16326  1.0000
  H   H3070     1.0  0.51675  0.21876  0.05853  1.0000
  C   C1788     1.0  0.99648  0.45516  0.05377  1.0000
  H   H3071     1.0  0.53720  0.31701  0.07701  1.0000
  H   H3072     1.0  0.70490  0.39991  0.18408  1.0000
  C   C1789     1.0  0.61163  0.42721  0.13368  1.0000
  C   C1790     1.0  0.61757  0.43469  0.12093  1.0000
  C   C1791     1.0  0.61417  0.42845  0.11144  1.0000
  C   C1792     1.0  0.60572  0.41408  0.11462  1.0000
  C   C1793     1.0  0.59975  0.40659  0.12737  1.0000
  C   C1794     1.0  0.60235  0.41343  0.13687  1.0000
  H   H3073     1.0  0.62439  0.44558  0.11839  1.0000
  H   H3074     1.0  0.61814  0.43476  0.10162  1.0000
  H   H3075     1.0  0.59298  0.39567  0.12991  1.0000
  H   H3076     1.0  0.59728  0.40795  0.14670  1.0000
  C   C1795     1.0  0.53815  0.31767  0.08658  1.0000
  H   H3077     1.0  0.53533  0.05527  0.01800  1.0000
  N   N127      1.0  0.96964  0.48144  0.05037  1.0000
  H   H3078     1.0  0.64833  0.40498  0.17263  1.0000
  H   H3079     1.0  0.99234  0.40297  0.00207  1.0000
  C   C1796     1.0  0.52683  0.29072  0.09760  1.0000
  H   H3080     1.0  0.60772  0.39683  0.16646  1.0000
  H   H3081     1.0  0.54710  0.03235  0.00532  1.0000
  C   C1797     1.0  0.50340  0.06950  0.99353  1.0000
  H   H3082     1.0  0.97656  0.44348  0.02041  1.0000
  C   C1798     1.0  0.63215  0.31314  0.15958  1.0000
  C   C1799     1.0  0.62984  0.32882  0.15037  1.0000
  C   C1800     1.0  0.61295  0.33647  0.14739  1.0000
  C   C1801     1.0  0.59837  0.32841  0.15357  1.0000
  C   C1802     1.0  0.60057  0.31307  0.16309  1.0000
  C   C1803     1.0  0.61747  0.30541  0.16608  1.0000
  H   H3083     1.0  0.64117  0.33489  0.14542  1.0000
  H   H3084     1.0  0.61117  0.34868  0.14041  1.0000
  H   H3085     1.0  0.58926  0.30692  0.16799  1.0000
  H   H3086     1.0  0.61912  0.29349  0.17336  1.0000
  C   C1804     1.0  0.60140  0.22532  0.14149  1.0000
  C   C1805     1.0  0.60087  0.22852  0.15332  1.0000
  C   C1806     1.0  0.61664  0.22923  0.15657  1.0000
  C   C1807     1.0  0.63321  0.22611  0.14816  1.0000
  C   C1808     1.0  0.63372  0.22295  0.13631  1.0000
  C   C1809     1.0  0.61787  0.22295  0.13287  1.0000
  H   H3087     1.0  0.58819  0.23037  0.16007  1.0000
  H   H3088     1.0  0.61604  0.23172  0.16570  1.0000
  H   H3089     1.0  0.64648  0.22064  0.12971  1.0000
  H   H3090     1.0  0.61850  0.22076  0.12365  1.0000
  C   C1810     1.0  0.59302  0.28465  0.08154  1.0000
  C   C1811     1.0  0.60586  0.29312  0.07259  1.0000
  C   C1812     1.0  0.61201  0.30613  0.07538  1.0000
  C   C1813     1.0  0.60481  0.31139  0.08694  1.0000
  C   C1814     1.0  0.59157  0.30328  0.09586  1.0000
  C   C1815     1.0  0.58595  0.28960  0.09328  1.0000
  H   H3091     1.0  0.61131  0.28939  0.06351  1.0000
  H   H3092     1.0  0.62233  0.31222  0.06850  1.0000
  H   H3093     1.0  0.58613  0.30714  0.10487  1.0000
  H   H3094     1.0  0.57603  0.28309  0.10022  1.0000
  Fe  Fe280     1.0  0.69086  0.24433  0.17397  1.0000
  H   H3095     1.0  0.85050  0.48701  0.99652  1.0000
  H   H3096     1.0  0.98734  0.47696  0.06319  1.0000
  H   H3097     1.0  0.65146  0.27266  0.12709  1.0000
  H   H3098     1.0  0.53025  0.46568  0.10949  1.0000
  C   C1816     1.0  0.51472  0.21196  0.10145  1.0000
  H   H3099     1.0  0.62525  0.16893  0.04157  1.0000
  H   H3100     1.0  0.59161  0.19322  0.01341  1.0000
  H   H3101     1.0  0.53445  0.28992  0.07724  1.0000
  H   H3102     1.0  0.52871  0.20812  0.10203  1.0000
  C   C1817     1.0  0.79159  0.40203  0.15197  1.0000
  C   C1818     1.0  0.80406  0.39006  0.14517  1.0000
  C   C1819     1.0  0.80563  0.37171  0.14999  1.0000
  C   C1820     1.0  0.79435  0.36530  0.16139  1.0000
  C   C1821     1.0  0.78163  0.37730  0.16800  1.0000
  C   C1822     1.0  0.78053  0.39558  0.16346  1.0000
  H   H3103     1.0  0.56858  0.11277  0.99576  1.0000
  H   H3104     1.0  0.77087  0.40480  0.16876  1.0000
  C   C1823     1.0  0.75055  0.44120  0.09300  1.0000
  C   C1824     1.0  0.74041  0.44677  0.10409  1.0000
  C   C1825     1.0  0.72174  0.44798  0.10735  1.0000
  C   C1826     1.0  0.71321  0.44366  0.09951  1.0000
  C   C1827     1.0  0.72338  0.43815  0.08843  1.0000
  C   C1828     1.0  0.74198  0.43689  0.08521  1.0000
  H   H3105     1.0  0.74695  0.45005  0.11017  1.0000
  H   H3106     1.0  0.71402  0.45224  0.11589  1.0000
  H   H3107     1.0  0.71691  0.43489  0.08228  1.0000
  H   H3108     1.0  0.74978  0.43262  0.07661  1.0000
  H   H3109     1.0  0.63454  0.19430  0.11032  1.0000
  C   C1829     1.0  0.52615  0.41848  0.11309  1.0000
  H   H3110     1.0  0.59790  0.28386  0.12179  1.0000
  H   H3111     1.0  0.60312  0.01371  0.03689  1.0000
  H   H3112     1.0  0.60468  0.19649  0.12394  1.0000
  H   H3113     1.0  0.50503  0.08021  0.99727  1.0000
  C   C1830     1.0  0.86960  0.45337  0.04823  1.0000
  C   C1831     1.0  0.85162  0.45468  0.05474  1.0000
  C   C1832     1.0  0.84708  0.45179  0.06804  1.0000
  C   C1833     1.0  0.86050  0.44766  0.07494  1.0000
  C   C1834     1.0  0.87849  0.44633  0.06846  1.0000
  C   C1835     1.0  0.88303  0.44915  0.05516  1.0000
  H   H3114     1.0  0.84116  0.45778  0.04948  1.0000
  H   H3115     1.0  0.83321  0.45252  0.07291  1.0000
  H   H3116     1.0  0.88896  0.44301  0.07373  1.0000
  H   H3117     1.0  0.89692  0.44786  0.05031  1.0000
  C   C1836     1.0  0.55372  0.05962  0.04187  1.0000
  C   C1837     1.0  0.56836  0.06248  0.03188  1.0000
  C   C1838     1.0  0.54704  0.04425  0.04408  1.0000
  H   H3118     1.0  0.57366  0.07422  0.03015  1.0000
  H   H3119     1.0  0.53566  0.04203  0.05177  1.0000
  C   C1839     1.0  0.55676  0.16530  0.06627  1.0000
  C   C1840     1.0  0.54972  0.18097  0.07090  1.0000
  C   C1841     1.0  0.55870  0.18597  0.07820  1.0000
  C   C1842     1.0  0.57488  0.17531  0.08104  1.0000
  C   C1843     1.0  0.58189  0.15954  0.07650  1.0000
  C   C1844     1.0  0.57291  0.15454  0.06914  1.0000
  H   H3120     1.0  0.53712  0.18928  0.06893  1.0000
  H   H3121     1.0  0.55300  0.19804  0.08170  1.0000
  H   H3122     1.0  0.59431  0.15111  0.07872  1.0000
  H   H3123     1.0  0.57836  0.14232  0.06583  1.0000
  H   H3124     1.0  0.95728  0.44615  0.04519  1.0000
  H   H3125     1.0  0.81555  0.36247  0.14484  1.0000
  N   N128      1.0  0.52333  0.31043  0.09661  1.0000
  H   H3126     1.0  0.63702  0.25778  0.13415  1.0000
  H   H3127     1.0  0.51780  0.28438  0.10607  1.0000
  C   C1845     1.0  0.55048  0.42980  0.12330  1.0000
  H   H3128     1.0  0.59197  0.17994  0.11500  1.0000
  C   C1846     1.0  0.52515  0.28488  0.08602  1.0000
  H   H3129     1.0  0.99261  0.48754  0.03562  1.0000
  H   H3130     1.0  0.52045  0.20037  0.02224  1.0000
  H   H3131     1.0  0.54204  0.45386  0.09153  1.0000
  H   H3132     1.0  0.51377  0.45199  0.11641  1.0000
  C   C1847     1.0  0.54034  0.30647  0.11420  1.0000
  H   H3133     1.0  0.51585  0.21179  0.03928  1.0000
  H   H3134     1.0  0.62987  0.36571  0.15113  1.0000
  C   C1848     1.0  0.56314  0.42481  0.08262  1.0000
  H   H3135     1.0  0.86156  0.47012  0.98710  1.0000
  H   H3136     1.0  0.86961  0.47669  0.08583  1.0000
  N   N129      1.0  0.71803  0.30171  0.15017  1.0000
  C   C1849     1.0  0.71287  0.32139  0.14510  1.0000
  C   C1850     1.0  0.73377  0.29824  0.15630  1.0000
  C   C1851     1.0  0.70276  0.29495  0.15989  1.0000
  C   C1852     1.0  0.72267  0.29235  0.13936  1.0000
  C   C1853     1.0  0.69516  0.32804  0.14032  1.0000
  C   C1854     1.0  0.75186  0.30053  0.14719  1.0000
  C   C1855     1.0  0.69526  0.30404  0.17130  1.0000
  C   C1856     1.0  0.72909  0.27198  0.14269  1.0000
  H   H3137     1.0  0.71181  0.32892  0.15236  1.0000
  H   H3138     1.0  0.72358  0.32590  0.13707  1.0000
  H   H3139     1.0  0.73596  0.28471  0.16233  1.0000
  H   H3140     1.0  0.73106  0.30717  0.16298  1.0000
  H   H3141     1.0  0.69147  0.29589  0.15547  1.0000
  H   H3142     1.0  0.70686  0.28053  0.16374  1.0000
  H   H3143     1.0  0.71073  0.29460  0.13526  1.0000
  H   H3144     1.0  0.73268  0.29797  0.13125  1.0000
  H   H3145     1.0  0.68330  0.32553  0.14796  1.0000
  H   H3146     1.0  0.69306  0.34263  0.13680  1.0000
  H   H3147     1.0  0.69552  0.32225  0.13232  1.0000
  H   H3148     1.0  0.77408  0.24026  0.18380  1.0000
  H   H3149     1.0  0.76211  0.29829  0.15286  1.0000
  H   H3150     1.0  0.75683  0.29057  0.14115  1.0000
  H   H3151     1.0  0.68979  0.31842  0.16845  1.0000
  H   H3152     1.0  0.70545  0.30193  0.17696  1.0000
  H   H3153     1.0  0.68395  0.29818  0.17768  1.0000
  H   H3154     1.0  0.71753  0.26533  0.14566  1.0000
  H   H3155     1.0  0.73680  0.26726  0.15027  1.0000
  H   H3156     1.0  0.73839  0.26734  0.13430  1.0000
  C   C1857     1.0  0.73229  0.24678  0.17826  1.0000
  H   H3157     1.0  0.95597  0.48065  0.03631  1.0000
  H   H3158     1.0  0.60028  0.12928  0.04782  1.0000
  H   H3159     1.0  0.51590  0.18272  0.01755  1.0000
  S   S564      1.0  0.96229  0.41186  0.02411  1.0000
  H   H3160     1.0  0.51055  0.46923  0.10320  1.0000
  H   H3161     1.0  0.55843  0.19451  0.01870  1.0000
  H   H3162     1.0  0.62485  0.40880  0.17350  1.0000
  H   H3163     1.0  0.91879  0.48867  0.03616  1.0000
  C   C1858     1.0  0.52274  0.31371  0.10933  1.0000
  C   C1859     1.0  0.50983  0.19326  0.02308  1.0000
  H   H3164     1.0  0.56282  0.43802  0.10370  1.0000
  H   H3165     1.0  0.64259  0.26288  0.09824  1.0000
  H   H3166     1.0  0.62251  0.28445  0.14901  1.0000
  H   H3167     1.0  0.64535  0.28513  0.10741  1.0000
  C   C1860     1.0  0.51521  0.36663  0.10962  1.0000
  H   H3168     1.0  0.53237  0.40422  0.11604  1.0000
  H   H3169     1.0  0.61046  0.31027  0.11865  1.0000
  H   H3170     1.0  0.97652  0.46561  0.03603  1.0000
  H   H3171     1.0  0.55169  0.31201  0.10765  1.0000
  C   C1861     1.0  0.98123  0.41524  0.02776  1.0000
  H   H3172     1.0  0.62203  0.34750  0.17114  1.0000
  S   S565      1.0  0.57941  0.02023  0.01581  1.0000
  H   H3173     1.0  0.85367  0.47074  0.10655  1.0000
  N   N130      1.0  0.53981  0.42815  0.10360  1.0000
  C   C1862     1.0  0.61042  0.13531  0.14242  1.0000
  C   C1863     1.0  0.54204  0.07125  0.99265  1.0000
  C   C1864     1.0  0.60654  0.13572  0.03814  1.0000
  C   C1865     1.0  0.56949  0.03486  0.02623  1.0000
  H   H3174     1.0  0.58510  0.17440  0.01198  1.0000
  H   H3175     1.0  0.59713  0.13801  0.14880  1.0000
  H   H3176     1.0  0.52092  0.19192  0.05037  1.0000
  H   H3177     1.0  0.57141  0.06774  0.98716  1.0000
  H   H3178     1.0  0.51251  0.11063  0.02326  1.0000
  H   H3179     1.0  0.60433  0.16357  0.15771  1.0000
  H   H3180     1.0  0.58060  0.18652  0.13873  1.0000
  C   C1866     1.0  0.55475  0.03202  0.03615  1.0000
  H   H3181     1.0  0.61654  0.14516  0.01109  1.0000
  H   H3182     1.0  0.50691  0.17432  0.06833  1.0000
  S   S566      1.0  0.79664  0.34229  0.16733  1.0000
  H   H3183     1.0  0.62345  0.29064  0.10452  1.0000
  H   H3184     1.0  0.58537  0.00003  0.08144  1.0000
  H   H3185     1.0  0.56272  0.43120  0.12567  1.0000
  H   H3186     1.0  0.66370  0.36295  0.15547  1.0000
  H   H3187     1.0  0.75697  0.22786  0.17409  1.0000
  H   H3188     1.0  0.62122  0.18034  0.01514  1.0000
  C   C1867     1.0  0.70135  0.39314  0.17827  1.0000
  H   H3189     1.0  0.53994  0.44162  0.12505  1.0000
  Fe  Fe281     1.0  0.73334  0.33311  0.18381  1.0000
  H   H3190     1.0  0.59175  0.29212  0.14342  1.0000
  H   H3191     1.0  0.51234  0.30768  0.11678  1.0000
  S   S567      1.0  0.67447  0.22336  0.18159  1.0000
  Fe  Fe282     1.0  0.65718  0.47879  0.13795  1.0000
  H   H3192     1.0  0.56499  0.41492  0.10937  1.0000
  H   H3193     1.0  0.54625  0.14380  0.99764  1.0000
  C   C1868     1.0  0.59557  0.27836  0.14194  1.0000
  H   H3194     1.0  0.63738  0.26388  0.15247  1.0000
  C   C1869     1.0  0.59274  0.15199  0.03291  1.0000
  H   H3195     1.0  0.65375  0.37469  0.17242  1.0000
  H   H3196     1.0  0.58060  0.15359  0.04066  1.0000
  H   H3197     1.0  0.54146  0.33897  0.09440  1.0000
  C   C1870     1.0  0.63702  0.31110  0.11979  1.0000
  N   N131      1.0  0.62869  0.37298  0.16864  1.0000
  H   H3198     1.0  0.61003  0.12561  0.03228  1.0000
  H   H3199     1.0  0.58282  0.27411  0.14326  1.0000
  H   H3200     1.0  0.61286  0.16674  0.00063  1.0000
  C   C1871     1.0  0.58626  0.18127  0.01904  1.0000
  C   C1872     1.0  0.61748  0.16718  0.01914  1.0000
  C   C1873     1.0  0.86346  0.47874  0.99264  1.0000
  H   H3201     1.0  0.60866  0.17842  0.05351  1.0000
  H   H3202     1.0  0.51182  0.41365  0.10023  1.0000
  C   C1874     1.0  0.58836  0.99334  0.04782  1.0000
  C   C1875     1.0  0.99275  0.40052  0.03338  1.0000
  H   H3203     1.0  0.56103  0.07936  0.99976  1.0000
  H   H3204     1.0  0.87589  0.48357  0.06486  1.0000
  H   H3205     1.0  0.56327  0.05580  0.00286  1.0000
  H   H3206     1.0  0.54654  0.41775  0.12994  1.0000
  C   C1876     1.0  0.98540  0.43203  0.02477  1.0000
  H   H3207     1.0  0.65716  0.34606  0.17876  1.0000
  C   C1877     1.0  0.62043  0.30256  0.12455  1.0000
  H   H3208     1.0  0.55159  0.30940  0.08779  1.0000
  H   H3209     1.0  0.51415  0.17429  0.04010  1.0000
  H   H3210     1.0  0.52782  0.16192  0.99584  1.0000
  N   N132      1.0  0.59881  0.16932  0.02740  1.0000
  H   H3211     1.0  0.63364  0.32401  0.12263  1.0000
  H   H3212     1.0  0.64097  0.31381  0.10928  1.0000
  H   H3213     1.0  0.61398  0.30532  0.13408  1.0000
  H   H3214     1.0  0.56608  0.99159  0.08219  1.0000
  C   C1878     1.0  0.63205  0.28135  0.11087  1.0000
  H   H3215     1.0  0.77290  0.37252  0.17675  1.0000
  H   H3216     1.0  0.60925  0.26244  0.12855  1.0000
  H   H3217     1.0  0.51525  0.10965  0.99160  1.0000
  H   H3218     1.0  0.64633  0.32832  0.18124  1.0000
  Fe  Fe283     1.0  0.77288  0.33234  0.18096  1.0000
  H   H3219     1.0  0.74047  0.47309  0.12821  1.0000
  C   C1879     1.0  0.98625  0.41000  0.99374  1.0000
  H   H3220     1.0  0.56613  0.19823  0.03112  1.0000
  H   H3221     1.0  0.68968  0.36876  0.15713  1.0000
  N   N133      1.0  0.66825  0.40740  0.09214  1.0000
  C   C1880     1.0  0.65398  0.41825  0.08491  1.0000
  C   C1881     1.0  0.67008  0.38813  0.09225  1.0000
  C   C1882     1.0  0.68609  0.41251  0.08600  1.0000
  C   C1883     1.0  0.66272  0.41076  0.10537  1.0000
  C   C1884     1.0  0.65182  0.43857  0.08216  1.0000
  C   C1885     1.0  0.65445  0.37954  0.10082  1.0000
  C   C1886     1.0  0.69344  0.41093  0.07205  1.0000
  C   C1887     1.0  0.67549  0.40019  0.11436  1.0000
  H   H3222     1.0  0.65630  0.41448  0.07565  1.0000
  H   H3223     1.0  0.64062  0.41537  0.09008  1.0000
  H   H3224     1.0  0.68276  0.37986  0.09497  1.0000
  H   H3225     1.0  0.67124  0.38633  0.08253  1.0000
  H   H3226     1.0  0.68553  0.42630  0.08651  1.0000
  H   H3227     1.0  0.69661  0.40421  0.09127  1.0000
  H   H3228     1.0  0.66178  0.42492  0.10517  1.0000
  H   H3229     1.0  0.64888  0.40879  0.11004  1.0000
  H   H3230     1.0  0.64822  0.44377  0.09092  1.0000
  H   H3231     1.0  0.66396  0.44301  0.07589  1.0000
  H   H3232     1.0  0.64063  0.44490  0.07713  1.0000
  H   H3233     1.0  0.65679  0.36578  0.09952  1.0000
  H   H3234     1.0  0.65351  0.37863  0.11100  1.0000
  H   H3235     1.0  0.64138  0.38665  0.09831  1.0000
  H   H3236     1.0  0.68439  0.41960  0.06581  1.0000
  H   H3237     1.0  0.69615  0.39704  0.07099  1.0000
  H   H3238     1.0  0.70646  0.41527  0.06860  1.0000
  H   H3239     1.0  0.68607  0.40741  0.11350  1.0000
  H   H3240     1.0  0.68202  0.38672  0.11277  1.0000
  H   H3241     1.0  0.66760  0.39838  0.12425  1.0000
  H   H3242     1.0  0.51858  0.32810  0.10926  1.0000
  H   H3243     1.0  0.57685  0.00430  0.04995  1.0000
  H   H3244     1.0  0.51906  0.13429  0.99808  1.0000
  H   H3245     1.0  0.52138  0.42336  0.12201  1.0000
  H   H3246     1.0  0.58383  0.17941  0.16086  1.0000
  H   H3247     1.0  0.75114  0.31409  0.14123  1.0000
  H   H3248     1.0  0.68006  0.40136  0.15417  1.0000
  H   H3249     1.0  0.55275  0.40398  0.09682  1.0000
  S   S568      1.0  0.63872  0.25599  0.17909  1.0000
  H   H3250     1.0  0.62612  0.15437  0.14101  1.0000
  H   H3251     1.0  0.60783  0.00475  0.05231  1.0000
  C   C1888     1.0  0.53151  0.44691  0.09803  1.0000
  H   H3252     1.0  0.59977  0.19239  0.03351  1.0000
  H   H3253     1.0  0.64285  0.25235  0.11442  1.0000
  H   H3254     1.0  0.56808  0.16652  0.12946  1.0000
  H   H3255     1.0  0.61945  0.12675  0.14875  1.0000
  H   H3256     1.0  0.57722  0.15591  0.11641  1.0000
  C   C1889     1.0  0.59660  0.16669  0.12087  1.0000
  H   H3257     1.0  0.62794  0.14818  0.12688  1.0000
  C   C1890     1.0  0.58028  0.15783  0.12499  1.0000
  H   H3258     1.0  0.56074  0.17721  0.03237  1.0000
  H   H3259     1.0  0.58831  0.14801  0.02566  1.0000
  C   C1891     1.0  0.57640  0.04999  0.02424  1.0000
  N   N134      1.0  0.60447  0.16862  0.13117  1.0000
  C   C1892     1.0  0.60929  0.38266  0.17147  1.0000
  H   H3260     1.0  0.65438  0.33876  0.16545  1.0000
  H   H3261     1.0  0.60700  0.15927  0.11416  1.0000
  C   C1893     1.0  0.59588  0.17598  0.15340  1.0000
  C   C1894     1.0  0.70614  0.37463  0.18027  1.0000
  H   H3262     1.0  0.86848  0.46974  0.00100  1.0000
  H   H3263     1.0  0.50257  0.09437  0.06570  1.0000
  H   H3264     1.0  0.60299  0.18703  0.15083  1.0000
  H   H3265     1.0  0.55875  0.43833  0.07713  1.0000
  C   C1895     1.0  0.50731  0.20121  0.09717  1.0000
  H   H3266     1.0  0.53716  0.41852  0.08792  1.0000
  N   N135      1.0  0.62418  0.28312  0.12445  1.0000
  C   C1896     1.0  0.62848  0.18244  0.11325  1.0000
  C   C1897     1.0  0.59778  0.17859  0.03771  1.0000
  H   H3267     1.0  0.62245  0.18258  0.10536  1.0000
  H   H3268     1.0  0.63477  0.15597  0.00324  1.0000
  C   C1898     1.0  0.58970  0.17382  0.14209  1.0000
  C   C1899     1.0  0.61437  0.18362  0.12575  1.0000
  C   C1900     1.0  0.60678  0.27675  0.12859  1.0000
  C   C1901     1.0  0.62032  0.15825  0.00795  1.0000
  C   C1902     1.0  0.56683  0.18808  0.02585  1.0000
  H   H3269     1.0  0.51549  0.27437  0.13891  1.0000
  H   H3270     1.0  0.58080  0.16421  0.14608  1.0000
  H   H3271     1.0  0.81274  0.39493  0.13635  1.0000
  H   H3272     1.0  0.62163  0.18484  0.13258  1.0000
  H   H3273     1.0  0.58265  0.14468  0.13136  1.0000
  H   H3274     1.0  0.63962  0.17071  0.11437  1.0000
  C   C1903     1.0  0.61783  0.15205  0.13526  1.0000
  H   H3275     1.0  0.93930  0.46258  0.05191  1.0000
  C   C1904     1.0  0.53865  0.33709  0.08574  1.0000
  S   S569      1.0  0.90969  0.47874  0.00540  1.0000
  C   C1905     1.0  0.62938  0.35379  0.17527  1.0000
  C   C1906     1.0  0.52734  0.13906  0.98866  1.0000
  C   C1907     1.0  0.63492  0.37495  0.15446  1.0000
  C   C1908     1.0  0.00126  0.43390  0.02726  1.0000
  C   C1909     1.0  0.61101  0.16993  0.04660  1.0000
  C   C1910     1.0  0.54757  0.41824  0.09296  1.0000
  C   C1911     1.0  0.51587  0.35565  0.12157  1.0000
  H   H3276     1.0  0.57482  0.42425  0.08649  1.0000
  H   H3277     1.0  0.64070  0.40512  0.15899  1.0000
  C   C1912     1.0  0.57664  0.11958  0.98746  1.0000
  C   C1913     1.0  0.50977  0.20323  0.04810  1.0000
  C   C1914     1.0  0.96462  0.47144  0.04271  1.0000
  C   C1915     1.0  0.68727  0.39402  0.16144  1.0000
  H   H3278     1.0  0.60240  0.26921  0.14939  1.0000
  H   H3279     1.0  0.52881  0.27017  0.08773  1.0000
  C   C1916     1.0  0.72393  0.26155  0.18372  1.0000
  H   H3280     1.0  0.94550  0.48096  0.06516  1.0000
  C   C1917     1.0  0.98104  0.46922  0.05938  1.0000
  Fe  Fe284     1.0  0.93357  0.47580  0.01322  1.0000
  H   H3281     1.0  0.70984  0.26712  0.18412  1.0000
  H   H3282     1.0  0.54917  0.02056  0.03762  1.0000
  H   H3283     1.0  0.64862  0.30296  0.12389  1.0000
  C   C1918     1.0  0.63556  0.27641  0.14529  1.0000
  H   H3284     1.0  0.53837  0.31045  0.12332  1.0000
  H   H3285     1.0  0.65865  0.36715  0.14031  1.0000
  C   C1919     1.0  0.75043  0.23931  0.17823  1.0000
  H   H3286     1.0  0.60984  0.12766  0.13568  1.0000
  N   N136      1.0  0.74557  0.39538  0.13757  1.0000
  C   C1920     1.0  0.75792  0.37836  0.14246  1.0000
  C   C1921     1.0  0.75478  0.40257  0.12424  1.0000
  C   C1922     1.0  0.72852  0.39072  0.13724  1.0000
  C   C1923     1.0  0.74189  0.40780  0.14642  1.0000
  C   C1924     1.0  0.75027  0.36734  0.15542  1.0000
  C   C1925     1.0  0.77310  0.40689  0.12286  1.0000
  C   C1926     1.0  0.71411  0.40593  0.13191  1.0000
  C   C1927     1.0  0.73571  0.42784  0.14109  1.0000
  H   H3287     1.0  0.76238  0.36947  0.13558  1.0000
  H   H3288     1.0  0.77042  0.38110  0.14352  1.0000
  H   H3289     1.0  0.74646  0.41473  0.11968  1.0000
  H   H3290     1.0  0.75694  0.39304  0.11808  1.0000
  H   H3291     1.0  0.73163  0.38023  0.13170  1.0000
  H   H3292     1.0  0.72171  0.38509  0.14693  1.0000
  H   H3293     1.0  0.73170  0.40396  0.15511  1.0000
  H   H3294     1.0  0.75423  0.40657  0.14980  1.0000
  H   H3295     1.0  0.74463  0.37535  0.16279  1.0000
  H   H3296     1.0  0.74006  0.36067  0.15478  1.0000
  H   H3297     1.0  0.76130  0.35661  0.15866  1.0000
  H   H3298     1.0  0.77255  0.41543  0.12928  1.0000
  H   H3299     1.0  0.78370  0.39472  0.12436  1.0000
  H   H3300     1.0  0.77728  0.41415  0.11300  1.0000
  H   H3301     1.0  0.70848  0.41572  0.13806  1.0000
  H   H3302     1.0  0.70272  0.40034  0.13191  1.0000
  H   H3303     1.0  0.71891  0.41249  0.12198  1.0000
  H   H3304     1.0  0.72491  0.43366  0.14842  1.0000
  H   H3305     1.0  0.73024  0.43126  0.13249  1.0000
  H   H3306     1.0  0.74683  0.43480  0.13931  1.0000
  C   C1928     1.0  0.63495  0.26280  0.10814  1.0000
  H   H3307     1.0  0.64641  0.28300  0.14493  1.0000
  H   H3308     1.0  0.97278  0.46212  0.06793  1.0000
  H   H3309     1.0  0.56803  0.41590  0.07578  1.0000
  H   H3310     1.0  0.53194  0.07766  0.99997  1.0000
  C   C1929     1.0  0.56053  0.06824  0.99581  1.0000
  Fe  Fe285     1.0  0.79435  0.47553  0.11049  1.0000
  H   H3311     1.0  0.58246  0.38477  0.16884  1.0000
  C   C1930     1.0  0.76014  0.24638  0.18367  1.0000
  H   H3312     1.0  0.71989  0.46751  0.13757  1.0000
  H   H3313     1.0  0.51605  0.26135  0.12786  1.0000
  H   H3314     1.0  0.65954  0.38526  0.14617  1.0000
  C   C1931     1.0  0.72679  0.47871  0.13300  1.0000
  H   H3315     1.0  0.82119  0.38728  0.18152  1.0000
  C   C1932     1.0  0.59568  0.37536  0.16775  1.0000
  H   H3316     1.0  0.50241  0.16042  0.05969  1.0000
  C   C1933     1.0  0.53732  0.15155  0.99104  1.0000
  C   C1934     1.0  0.50900  0.41940  0.10867  1.0000
  C   C1935     1.0  0.64805  0.34141  0.17503  1.0000
  H   H3317     1.0  0.96381  0.39714  0.99810  1.0000
  H   H3318     1.0  0.96472  0.48861  0.99053  1.0000
  H   H3319     1.0  0.59347  0.36250  0.17406  1.0000
  C   C1936     1.0  0.50268  0.18455  0.03695  1.0000
  H   H3320     1.0  0.55172  0.99526  0.06594  1.0000
  C   C1937     1.0  0.86123  0.48137  0.10454  1.0000
  H   H3321     1.0  0.72734  0.48451  0.14078  1.0000
  H   H3322     1.0  0.51121  0.28885  0.08452  1.0000
  H   H3323     1.0  0.62911  0.38857  0.14963  1.0000
  C   C1938     1.0  0.63927  0.38093  0.17419  1.0000
  H   H3324     1.0  0.73125  0.48333  0.10001  1.0000
  S   S570      1.0  0.54043  0.99205  0.02563  1.0000
  H   H3325     1.0  0.52613  0.34647  0.08372  1.0000
  C   C1939     1.0  0.63808  0.40108  0.16945  1.0000
  H   H3326     1.0  0.52582  0.25140  0.14130  1.0000
  H   H3327     1.0  0.98960  0.38754  0.03572  1.0000
  H   H3328     1.0  0.97546  0.42069  0.99740  1.0000
  C   C1940     1.0  0.51431  0.26134  0.13798  1.0000
  H   H3329     1.0  0.59965  0.37400  0.15773  1.0000
  Fe  Fe286     1.0  0.56798  0.99705  0.01636  1.0000
  C   C1941     1.0  0.97719  0.39668  0.99153  1.0000
  H   H3330     1.0  0.98530  0.38298  0.99352  1.0000
  C   C1942     1.0  0.52111  0.45896  0.10743  1.0000
  H   H3331     1.0  0.75410  0.48332  0.09392  1.0000
  C   C1943     1.0  0.50562  0.31969  0.09292  1.0000
  C   C1944     1.0  0.57842  0.99561  0.07584  1.0000
  H   H3332     1.0  0.60459  0.38279  0.18176  1.0000
  H   H3333     1.0  0.52259  0.44731  0.09173  1.0000
  H   H3334     1.0  0.81065  0.48919  0.12623  1.0000
  H   H3335     1.0  0.83959  0.48415  0.08286  1.0000
  H   H3336     1.0  0.63484  0.37838  0.18472  1.0000
  H   H3337     1.0  0.56480  0.04081  0.98607  1.0000
  H   H3338     1.0  0.71322  0.48452  0.11780  1.0000
  C   C1945     1.0  0.86688  0.48840  0.09011  1.0000
  C   C1946     1.0  0.50398  0.22746  0.10511  1.0000
  S   S571      1.0  0.56752  0.99195  0.99776  1.0000
  H   H3339     1.0  0.55285  0.99175  0.05045  1.0000
  H   H3340     1.0  0.54238  0.02169  0.98585  1.0000
  H   H3341     1.0  0.62247  0.35283  0.18543  1.0000
  H   H3342     1.0  0.72685  0.09241  0.32075  1.0000
  H   H3343     1.0  0.74757  0.08493  0.31061  1.0000
  H   H3344     1.0  0.90977  0.27086  0.29307  1.0000
  Fe  Fe287     1.0  0.70364  0.19921  0.26611  1.0000
  S   S572      1.0  0.68651  0.22455  0.27101  1.0000
  S   S573      1.0  0.70353  0.19149  0.24818  1.0000
  Fe  Fe288     1.0  0.71920  0.18975  0.28977  1.0000
  S   S574      1.0  0.70273  0.21432  0.29639  1.0000
  S   S575      1.0  0.73676  0.17300  0.30307  1.0000
  Fe  Fe289     1.0  0.68046  0.20806  0.29070  1.0000
  S   S576      1.0  0.65163  0.21067  0.30125  1.0000
  Fe  Fe290     1.0  0.71090  0.22765  0.27608  1.0000
  S   S577      1.0  0.72274  0.25205  0.26871  1.0000
  S   S578      1.0  0.69630  0.18243  0.28555  1.0000
  S   S579      1.0  0.72865  0.20339  0.26975  1.0000
  Fe  Fe291     1.0  0.80130  0.08590  0.30556  1.0000
  S   S580      1.0  0.80158  0.09402  0.32318  1.0000
  S   S581      1.0  0.79032  0.10403  0.28895  1.0000
  Fe  Fe292     1.0  0.82096  0.04792  0.31411  1.0000
  S   S582      1.0  0.82365  0.05335  0.33204  1.0000
  S   S583      1.0  0.83133  0.01985  0.31113  1.0000
  Fe  Fe293     1.0  0.79479  0.06755  0.33322  1.0000
  S   S584      1.0  0.77352  0.06018  0.35041  1.0000
  Fe  Fe294     1.0  0.83030  0.07933  0.32020  1.0000
  S   S585      1.0  0.85385  0.09184  0.31821  1.0000
  S   S586      1.0  0.79189  0.06088  0.31586  1.0000
  S   S587      1.0  0.83032  0.07237  0.30205  1.0000
  Fe  Fe295     1.0  0.87551  0.17205  0.33410  1.0000
  S   S588      1.0  0.90142  0.16612  0.32023  1.0000
  S   S589      1.0  0.85598  0.15367  0.34295  1.0000
  Fe  Fe296     1.0  0.88040  0.20907  0.33297  1.0000
  S   S590      1.0  0.90646  0.20633  0.31866  1.0000
  Fe  Fe297     1.0  0.89281  0.19369  0.30943  1.0000
  S   S591      1.0  0.89606  0.19767  0.28844  1.0000
  Fe  Fe298     1.0  0.91284  0.17915  0.33077  1.0000
  S   S592      1.0  0.94069  0.16665  0.33437  1.0000
  S   S593      1.0  0.86603  0.19887  0.32257  1.0000
  Fe  Fe299     1.0  0.79733  0.27555  0.28794  1.0000
  S   S594      1.0  0.80750  0.28697  0.26748  1.0000
  S   S595      1.0  0.78315  0.25275  0.29561  1.0000
  Fe  Fe300     1.0  0.81553  0.29742  0.29746  1.0000
  S   S596      1.0  0.82700  0.31088  0.27773  1.0000
  S   S597      1.0  0.82261  0.29597  0.31603  1.0000
  Fe  Fe301     1.0  0.80001  0.31271  0.27379  1.0000
  S   S598      1.0  0.78601  0.33803  0.26271  1.0000
  Fe  Fe302     1.0  0.83342  0.28410  0.27312  1.0000
  S   S599      1.0  0.85972  0.27318  0.26124  1.0000
  S   S600      1.0  0.78779  0.30151  0.29409  1.0000
  S   S601      1.0  0.82391  0.27041  0.29297  1.0000
  H   H3345     1.0  0.69508  0.08069  0.30673  1.0000
  H   H3346     1.0  0.71750  0.07922  0.30770  1.0000
  S   S602      1.0  0.73138  0.31406  0.20259  1.0000
  Fe  Fe303     1.0  0.74792  0.32958  0.20696  1.0000
  S   S603      1.0  0.73861  0.33995  0.22493  1.0000
  H   H3347     1.0  0.92554  0.35108  0.38256  1.0000
  H   H3348     1.0  0.93857  0.25163  0.31146  1.0000
  H   H3349     1.0  0.73322  0.04502  0.32396  1.0000
  Fe  Fe304     1.0  0.63740  0.11875  0.34241  1.0000
  S   S604      1.0  0.64634  0.11220  0.36074  1.0000
  S   S605      1.0  0.61931  0.14496  0.33619  1.0000
  Fe  Fe305     1.0  0.65697  0.08263  0.33623  1.0000
  S   S606      1.0  0.66808  0.07321  0.35389  1.0000
  S   S607      1.0  0.66085  0.06760  0.32106  1.0000
  Fe  Fe306     1.0  0.64030  0.08544  0.36351  1.0000
  H   H3350     1.0  0.98004  0.32920  0.36657  1.0000
  Fe  Fe307     1.0  0.67309  0.10076  0.34951  1.0000
  S   S608      1.0  0.69724  0.11076  0.34902  1.0000
  S   S609      1.0  0.62892  0.09299  0.34605  1.0000
  S   S610      1.0  0.66432  0.10910  0.33099  1.0000
  H   H3351     1.0  0.99763  0.24290  0.30843  1.0000
  H   H3352     1.0  0.80547  0.00298  0.33734  1.0000
  C   C1947     1.0  0.83917  0.35149  0.37570  1.0000
  H   H3353     1.0  0.62288  0.19578  0.25829  1.0000
  H   H3354     1.0  0.89800  0.26808  0.27767  1.0000
  S   S611      1.0  0.88970  0.35913  0.34559  1.0000
  H   H3355     1.0  0.81948  0.27011  0.35446  1.0000
  S   S612      1.0  0.90393  0.32719  0.32962  1.0000
  H   H3356     1.0  0.69854  0.08876  0.31893  1.0000
  Fe  Fe308     1.0  0.91610  0.34315  0.33724  1.0000
  S   S613      1.0  0.94042  0.35370  0.32564  1.0000
  Fe  Fe309     1.0  0.87755  0.34099  0.33966  1.0000
  S   S614      1.0  0.85446  0.35166  0.32951  1.0000
  C   C1948     1.0  0.89233  0.28150  0.27978  1.0000
  C   C1949     1.0  0.86640  0.31508  0.29004  1.0000
  H   H3357     1.0  0.81691  0.34787  0.23637  1.0000
  N   N137      1.0  0.62806  0.00588  0.35777  1.0000
  S   S615      1.0  0.97561  0.37495  0.36209  1.0000
  C   C1950     1.0  0.99272  0.20843  0.31422  1.0000
  S   S616      1.0  0.97892  0.21136  0.35375  1.0000
  C   C1951     1.0  0.63704  0.19264  0.25942  1.0000
  H   H3358     1.0  0.63561  0.15982  0.27475  1.0000
  H   H3359     1.0  0.74540  0.10292  0.31754  1.0000
  C   C1952     1.0  0.94999  0.36065  0.33535  1.0000
  C   C1953     1.0  0.94016  0.36306  0.34736  1.0000
  C   C1954     1.0  0.94797  0.36793  0.35534  1.0000
  C   C1955     1.0  0.96586  0.36981  0.35157  1.0000
  C   C1956     1.0  0.97574  0.36739  0.33955  1.0000
  C   C1957     1.0  0.96771  0.36306  0.33137  1.0000
  H   H3360     1.0  0.92644  0.36135  0.35046  1.0000
  H   H3361     1.0  0.94007  0.37007  0.36445  1.0000
  H   H3362     1.0  0.98951  0.36900  0.33650  1.0000
  H   H3363     1.0  0.97531  0.36132  0.32203  1.0000
  H   H3364     1.0  0.77843  0.99084  0.34327  1.0000
  H   H3365     1.0  0.69608  0.01104  0.28500  1.0000
  C   C1958     1.0  0.68802  0.00909  0.32967  1.0000
  C   C1959     1.0  0.69101  0.02091  0.33567  1.0000
  C   C1960     1.0  0.68269  0.03891  0.33309  1.0000
  C   C1961     1.0  0.67155  0.04517  0.32436  1.0000
  C   C1962     1.0  0.66890  0.03341  0.31813  1.0000
  C   C1963     1.0  0.67703  0.01536  0.32085  1.0000
  H   H3366     1.0  0.69951  0.01609  0.34250  1.0000
  H   H3367     1.0  0.68504  0.04794  0.33776  1.0000
  H   H3368     1.0  0.66034  0.03825  0.31133  1.0000
  H   H3369     1.0  0.80264  0.27656  0.33772  1.0000
  Fe  Fe310     1.0  0.65637  0.24259  0.19333  1.0000
  C   C1964     1.0  0.77340  0.33753  0.25213  1.0000
  C   C1965     1.0  0.77725  0.32357  0.24584  1.0000
  C   C1966     1.0  0.76716  0.32435  0.23699  1.0000
  C   C1967     1.0  0.75289  0.33879  0.23482  1.0000
  C   C1968     1.0  0.74888  0.35238  0.24139  1.0000
  C   C1969     1.0  0.75928  0.35193  0.24979  1.0000
  H   H3370     1.0  0.78820  0.31243  0.24756  1.0000
  H   H3371     1.0  0.77013  0.31365  0.23208  1.0000
  H   H3372     1.0  0.73777  0.36348  0.23985  1.0000
  H   H3373     1.0  0.75623  0.36273  0.25461  1.0000
  C   C1970     1.0  0.83151  0.31177  0.31935  1.0000
  C   C1971     1.0  0.84032  0.30662  0.32948  1.0000
  C   C1972     1.0  0.84781  0.31862  0.33243  1.0000
  C   C1973     1.0  0.84600  0.33610  0.32553  1.0000
  C   C1974     1.0  0.83695  0.34138  0.31550  1.0000
  C   C1975     1.0  0.82990  0.32919  0.31231  1.0000
  H   H3374     1.0  0.84149  0.29325  0.33504  1.0000
  H   H3375     1.0  0.85466  0.31443  0.34022  1.0000
  H   H3376     1.0  0.83544  0.35493  0.31016  1.0000
  H   H3377     1.0  0.82300  0.33336  0.30454  1.0000
  C   C1976     1.0  0.95112  0.17888  0.34007  1.0000
  C   C1977     1.0  0.96978  0.17408  0.33916  1.0000
  C   C1978     1.0  0.97848  0.18388  0.34336  1.0000
  C   C1979     1.0  0.96850  0.19832  0.34873  1.0000
  C   C1980     1.0  0.94977  0.20281  0.34995  1.0000
  C   C1981     1.0  0.94114  0.19332  0.34543  1.0000
  H   H3378     1.0  0.97757  0.16288  0.33505  1.0000
  C   C1982     1.0  0.62673  0.20197  0.27957  1.0000
  H   H3379     1.0  0.94194  0.21386  0.35422  1.0000
  H   H3380     1.0  0.92674  0.19703  0.34629  1.0000
  C   C1983     1.0  0.88696  0.21915  0.28106  1.0000
  C   C1984     1.0  0.87625  0.23146  0.28824  1.0000
  C   C1985     1.0  0.86834  0.24837  0.28218  1.0000
  C   C1986     1.0  0.87113  0.25296  0.26895  1.0000
  C   C1987     1.0  0.88241  0.24084  0.26177  1.0000
  C   C1988     1.0  0.89016  0.22389  0.26783  1.0000
  H   H3381     1.0  0.87393  0.22785  0.29846  1.0000
  H   H3382     1.0  0.86030  0.25789  0.28774  1.0000
  H   H3383     1.0  0.88473  0.24438  0.25154  1.0000
  H   H3384     1.0  0.89859  0.21441  0.26226  1.0000
  H   H3385     1.0  0.70415  0.13918  0.32730  1.0000
  C   C1989     1.0  0.89930  0.23980  0.34099  1.0000
  C   C1990     1.0  0.91015  0.24997  0.34261  1.0000
  H   H3386     1.0  0.90524  0.22684  0.33887  1.0000
  H   H3387     1.0  0.92442  0.24471  0.34181  1.0000
  C   C1991     1.0  0.81635  0.00909  0.30861  1.0000
  C   C1992     1.0  0.96263  0.42127  0.36153  1.0000
  C   C1993     1.0  0.63258  0.21992  0.27432  1.0000
  C   C1994     1.0  0.58558  0.10667  0.36967  1.0000
  C   C1995     1.0  0.79103  0.00946  0.30013  1.0000
  C   C1996     1.0  0.80182  0.01857  0.30301  1.0000
  H   H3388     1.0  0.64200  0.20502  0.25503  1.0000
  H   H3389     1.0  0.73140  0.01189  0.34369  1.0000
  H   H3390     1.0  0.78006  0.01684  0.29555  1.0000
  H   H3391     1.0  0.79925  0.03288  0.30053  1.0000
  C   C1997     1.0  0.85346  0.10962  0.32484  1.0000
  C   C1998     1.0  0.86675  0.11969  0.31935  1.0000
  C   C1999     1.0  0.86726  0.13366  0.32451  1.0000
  C   C2000     1.0  0.85481  0.13732  0.33548  1.0000
  C   C2001     1.0  0.84147  0.12732  0.34095  1.0000
  C   C2002     1.0  0.84066  0.11364  0.33558  1.0000
  H   H3392     1.0  0.87672  0.11664  0.31104  1.0000
  H   H3393     1.0  0.87753  0.14132  0.32015  1.0000
  H   H3394     1.0  0.83183  0.13001  0.34947  1.0000
  H   H3395     1.0  0.83047  0.10587  0.33996  1.0000
  C   C2003     1.0  0.75229  0.07410  0.34983  1.0000
  C   C2004     1.0  0.73671  0.06746  0.35585  1.0000
  C   C2005     1.0  0.71967  0.07839  0.35522  1.0000
  C   C2006     1.0  0.71821  0.09624  0.34915  1.0000
  C   C2007     1.0  0.73377  0.10298  0.34345  1.0000
  C   C2008     1.0  0.75079  0.09183  0.34349  1.0000
  H   H3396     1.0  0.73780  0.05390  0.36106  1.0000
  H   H3397     1.0  0.70768  0.07325  0.35987  1.0000
  H   H3398     1.0  0.73268  0.11687  0.33897  1.0000
  H   H3399     1.0  0.76273  0.09711  0.33899  1.0000
  C   C2009     1.0  0.74077  0.25087  0.27549  1.0000
  C   C2010     1.0  0.75244  0.26258  0.26975  1.0000
  C   C2011     1.0  0.76552  0.26328  0.27585  1.0000
  C   C2012     1.0  0.76726  0.25194  0.28755  1.0000
  C   C2013     1.0  0.75627  0.23957  0.29293  1.0000
  C   C2014     1.0  0.74302  0.23908  0.28694  1.0000
  H   H3400     1.0  0.75114  0.27133  0.26069  1.0000
  H   H3401     1.0  0.77416  0.27266  0.27151  1.0000
  H   H3402     1.0  0.75768  0.23061  0.30191  1.0000
  H   H3403     1.0  0.73425  0.22985  0.29139  1.0000
  C   C2015     1.0  0.68816  0.20462  0.23868  1.0000
  C   C2016     1.0  0.69062  0.20237  0.22631  1.0000
  C   C2017     1.0  0.67832  0.21234  0.21868  1.0000
  C   C2018     1.0  0.66321  0.22433  0.22350  1.0000
  C   C2019     1.0  0.66084  0.22670  0.23582  1.0000
  C   C2020     1.0  0.67335  0.21703  0.24333  1.0000
  H   H3404     1.0  0.70207  0.19286  0.22259  1.0000
  H   H3405     1.0  0.87756  0.28343  0.28183  1.0000
  H   H3406     1.0  0.64924  0.23603  0.23957  1.0000
  H   H3407     1.0  0.67125  0.21894  0.25279  1.0000
  C   C2021     1.0  0.75168  0.15422  0.29868  1.0000
  C   C2022     1.0  0.75692  0.15232  0.28609  1.0000
  C   C2023     1.0  0.76911  0.13696  0.28303  1.0000
  C   C2024     1.0  0.77571  0.12348  0.29260  1.0000
  C   C2025     1.0  0.77007  0.12537  0.30515  1.0000
  C   C2026     1.0  0.75834  0.14079  0.30816  1.0000
  H   H3408     1.0  0.75172  0.16271  0.27875  1.0000
  H   H3409     1.0  0.77330  0.13543  0.27330  1.0000
  H   H3410     1.0  0.77418  0.11471  0.31264  1.0000
  H   H3411     1.0  0.75384  0.14204  0.31795  1.0000
  C   C2027     1.0  0.64372  0.19195  0.31124  1.0000
  C   C2028     1.0  0.62523  0.19387  0.31622  1.0000
  C   C2029     1.0  0.61807  0.17936  0.32383  1.0000
  C   C2030     1.0  0.62931  0.16275  0.32673  1.0000
  C   C2031     1.0  0.64790  0.16075  0.32190  1.0000
  C   C2032     1.0  0.65511  0.17533  0.31408  1.0000
  H   H3412     1.0  0.61637  0.20666  0.31412  1.0000
  H   H3413     1.0  0.60374  0.18106  0.32753  1.0000
  H   H3414     1.0  0.65672  0.14804  0.32422  1.0000
  H   H3415     1.0  0.66943  0.17377  0.31044  1.0000
  H   H3416     1.0  0.81762  0.22593  0.29189  1.0000
  C   C2033     1.0  0.87865  0.30808  0.29968  1.0000
  C   C2034     1.0  0.89713  0.28491  0.31253  1.0000
  H   H3417     1.0  0.87388  0.31409  0.28029  1.0000
  H   H3418     1.0  0.87488  0.11466  0.35419  1.0000
  H   H3419     1.0  0.62377  0.15139  0.29661  1.0000
  H   H3420     1.0  0.68243  0.16563  0.26917  1.0000
  C   C2035     1.0  0.86006  0.00255  0.28179  1.0000
  H   H3421     1.0  0.88775  0.28865  0.32125  1.0000
  H   H3422     1.0  0.89623  0.29111  0.27086  1.0000
  N   N138      1.0  0.96495  0.23459  0.31223  1.0000
  H   H3423     1.0  0.95229  0.12280  0.32810  1.0000
  H   H3424     1.0  0.70894  0.15056  0.31131  1.0000
  H   H3425     1.0  0.65674  0.18495  0.28453  1.0000
  S   S617      1.0  0.88759  0.18267  0.34582  1.0000
  H   H3426     1.0  0.87810  0.28614  0.34912  1.0000
  H   H3427     1.0  0.83333  0.26477  0.34004  1.0000
  H   H3428     1.0  0.98194  0.32809  0.32138  1.0000
  H   H3429     1.0  0.60859  0.02255  0.34689  1.0000
  H   H3430     1.0  0.91914  0.29012  0.31805  1.0000
  H   H3431     1.0  0.95223  0.42968  0.35625  1.0000
  C   C2036     1.0  0.65683  0.18313  0.27501  1.0000
  C   C2037     1.0  0.66846  0.16440  0.27407  1.0000
  C   C2038     1.0  0.81966  0.99053  0.31166  1.0000
  H   H3432     1.0  0.00185  0.33112  0.32482  1.0000
  H   H3433     1.0  0.90297  0.27057  0.31533  1.0000
  C   C2039     1.0  0.88406  0.27326  0.34685  1.0000
  C   C2040     1.0  0.71661  0.29454  0.28738  1.0000
  H   H3434     1.0  0.78563  0.38257  0.21452  1.0000
  H   H3435     1.0  0.75858  0.31756  0.27666  1.0000
  H   H3436     1.0  0.79400  0.26203  0.35165  1.0000
  H   H3437     1.0  0.74780  0.99252  0.36557  1.0000
  H   H3438     1.0  0.97262  0.21118  0.30420  1.0000
  C   C2041     1.0  0.77734  0.00482  0.33790  1.0000
  H   H3439     1.0  0.88910  0.31616  0.29611  1.0000
  H   H3440     1.0  0.80917  0.99541  0.25972  1.0000
  H   H3441     1.0  0.94390  0.21690  0.30296  1.0000
  H   H3442     1.0  0.98945  0.46167  0.38217  1.0000
  C   C2042     1.0  0.70960  0.34337  0.26937  1.0000
  H   H3443     1.0  0.85482  0.01443  0.28606  1.0000
  H   H3444     1.0  0.62571  0.00244  0.32868  1.0000
  H   H3445     1.0  0.99500  0.21044  0.32298  1.0000
  C   C2043     1.0  0.92725  0.08459  0.35721  1.0000
  C   C2044     1.0  0.97375  0.24572  0.30021  1.0000
  H   H3446     1.0  0.98191  0.39743  0.37636  1.0000
  C   C2045     1.0  0.57339  0.14648  0.36402  1.0000
  H   H3447     1.0  0.97788  0.46260  0.37036  1.0000
  H   H3448     1.0  0.95618  0.43475  0.37688  1.0000
  C   C2046     1.0  0.99594  0.32179  0.32230  1.0000
  S   S618      1.0  0.76460  0.26965  0.19572  1.0000
  H   H3449     1.0  0.96055  0.26133  0.33348  1.0000
  H   H3450     1.0  0.88144  0.10003  0.34358  1.0000
  H   H3451     1.0  0.73366  0.01874  0.29820  1.0000
  C   C2047     1.0  0.95872  0.25941  0.32451  1.0000
  N   N139      1.0  0.98491  0.42441  0.37346  1.0000
  H   H3452     1.0  0.98920  0.25741  0.35522  1.0000
  C   C2048     1.0  0.81412  0.37701  0.37429  1.0000
  H   H3453     1.0  0.62846  0.04157  0.34218  1.0000
  C   C2049     1.0  0.59807  0.14859  0.37262  1.0000
  C   C2050     1.0  0.73395  0.26929  0.18854  1.0000
  H   H3454     1.0  0.97934  0.23595  0.32592  1.0000
  H   H3455     1.0  0.93504  0.13004  0.34802  1.0000
  H   H3456     1.0  0.92620  0.23601  0.30193  1.0000
  H   H3457     1.0  0.93728  0.11037  0.32739  1.0000
  H   H3458     1.0  0.94421  0.38059  0.37999  1.0000
  S   S619      1.0  0.91870  0.32302  0.35520  1.0000
  N   N140      1.0  0.75851  0.01553  0.34112  1.0000
  H   H3459     1.0  0.79805  0.36490  0.23315  1.0000
  H   H3460     1.0  0.79075  0.01275  0.34990  1.0000
  Fe  Fe311     1.0  0.90448  0.30803  0.34822  1.0000
  H   H3461     1.0  0.91558  0.14984  0.35836  1.0000
  H   H3462     1.0  0.97537  0.23979  0.29197  1.0000
  H   H3463     1.0  0.62913  0.02371  0.32797  1.0000
  H   H3464     1.0  0.87061  0.31190  0.30871  1.0000
  H   H3465     1.0  0.89525  0.14966  0.36996  1.0000
  S   S620      1.0  0.91658  0.27941  0.34704  1.0000
  H   H3466     1.0  0.60573  0.02258  0.36806  1.0000
  H   H3467     1.0  0.60539  0.11320  0.37613  1.0000
  Fe  Fe312     1.0  0.89142  0.33785  0.36321  1.0000
  N   N141      1.0  0.80587  0.24977  0.33537  1.0000
  C   C2051     1.0  0.69325  0.99756  0.28823  1.0000
  H   H3468     1.0  0.84117  0.99587  0.25365  1.0000
  H   H3469     1.0  0.77089  0.99398  0.36375  1.0000
  H   H3470     1.0  0.77729  0.36330  0.22279  1.0000
  C   C2052     1.0  0.83899  0.37290  0.35551  1.0000
  H   H3471     1.0  0.83444  0.33981  0.36132  1.0000
  H   H3472     1.0  0.62540  0.22882  0.28101  1.0000
  C   C2053     1.0  0.81376  0.22095  0.35210  1.0000
  H   H3473     1.0  0.79117  0.24913  0.32172  1.0000
  C   C2054     1.0  0.00133  0.42181  0.36296  1.0000
  H   H3474     1.0  0.55059  0.16330  0.37454  1.0000
  H   H3475     1.0  0.93803  0.23029  0.32140  1.0000
  C   C2055     1.0  0.61041  0.14154  0.38224  1.0000
  H   H3476     1.0  0.97077  0.27112  0.34868  1.0000
  H   H3477     1.0  0.80115  0.33741  0.22492  1.0000
  C   C2056     1.0  0.90662  0.14104  0.36469  1.0000
  S   S621      1.0  0.67378  0.26260  0.18648  1.0000
  S   S622      1.0  0.88566  0.34269  0.38319  1.0000
  H   H3478     1.0  0.94414  0.26385  0.32477  1.0000
  H   H3479     1.0  0.64402  0.04528  0.34950  1.0000
  H   H3480     1.0  0.98639  0.32998  0.34468  1.0000
  C   C2057     1.0  0.81116  0.35759  0.22857  1.0000
  C   C2058     1.0  0.83104  0.33886  0.37171  1.0000
  H   H3481     1.0  0.95785  0.23204  0.33256  1.0000
  H   H3482     1.0  0.69137  0.32551  0.27824  1.0000
  H   H3483     1.0  0.00162  0.28197  0.35459  1.0000
  N   N142      1.0  0.63780  0.18690  0.27325  1.0000
  H   H3484     1.0  0.99422  0.44944  0.35143  1.0000
  H   H3485     1.0  0.64712  0.21861  0.27351  1.0000
  C   C2059     1.0  0.73801  0.04501  0.33239  1.0000
  H   H3486     1.0  0.78842  0.33813  0.20783  1.0000
  C   C2060     1.0  0.91868  0.10276  0.36096  1.0000
  C   C2061     1.0  0.88630  0.10479  0.35021  1.0000
  H   H3487     1.0  0.60692  0.15037  0.36295  1.0000
  H   H3488     1.0  0.77283  0.38131  0.19563  1.0000
  S   S623      1.0  0.62385  0.07044  0.38078  1.0000
  N   N143      1.0  0.81142  0.15235  0.30882  1.0000
  C   C2062     1.0  0.81448  0.13379  0.30681  1.0000
  C   C2063     1.0  0.80320  0.15179  0.32270  1.0000
  C   C2064     1.0  0.82952  0.15734  0.30537  1.0000
  C   C2065     1.0  0.79922  0.16448  0.30034  1.0000
  C   C2066     1.0  0.82492  0.13052  0.29359  1.0000
  C   C2067     1.0  0.78436  0.14743  0.32743  1.0000
  C   C2068     1.0  0.83127  0.17212  0.31108  1.0000
  C   C2069     1.0  0.79193  0.18374  0.30209  1.0000
  H   H3489     1.0  0.82186  0.12400  0.31382  1.0000
  H   H3490     1.0  0.80154  0.12985  0.30835  1.0000
  H   H3491     1.0  0.80198  0.16446  0.32536  1.0000
  H   H3492     1.0  0.81215  0.14189  0.32861  1.0000
  H   H3493     1.0  0.83997  0.14565  0.30842  1.0000
  H   H3494     1.0  0.83396  0.16133  0.29490  1.0000
  H   H3495     1.0  0.80620  0.16548  0.29022  1.0000
  H   H3496     1.0  0.78754  0.15881  0.30095  1.0000
  H   H3497     1.0  0.83883  0.13261  0.29134  1.0000
  H   H3498     1.0  0.82610  0.11641  0.29351  1.0000
  H   H3499     1.0  0.81775  0.13856  0.28601  1.0000
  H   H3500     1.0  0.77957  0.14803  0.33761  1.0000
  H   H3501     1.0  0.77443  0.15720  0.32233  1.0000
  H   H3502     1.0  0.78447  0.13382  0.32686  1.0000
  H   H3503     1.0  0.84461  0.17557  0.30666  1.0000
  H   H3504     1.0  0.83097  0.16745  0.32139  1.0000
  H   H3505     1.0  0.82095  0.18438  0.30944  1.0000
  H   H3506     1.0  0.80115  0.19243  0.29602  1.0000
  H   H3507     1.0  0.78915  0.18516  0.31199  1.0000
  H   H3508     1.0  0.77866  0.18879  0.29936  1.0000
  H   H3509     1.0  0.73845  0.05900  0.33161  1.0000
  C   C2070     1.0  0.77302  0.26549  0.33389  1.0000
  C   C2071     1.0  0.98687  0.43578  0.38153  1.0000
  H   H3510     1.0  0.81087  0.22496  0.36131  1.0000
  C   C2072     1.0  0.79237  0.25844  0.32705  1.0000
  H   H3511     1.0  0.82796  0.37101  0.35193  1.0000
  C   C2073     1.0  0.96570  0.23964  0.32406  1.0000
  H   H3512     1.0  0.59129  0.16225  0.37365  1.0000
  H   H3513     1.0  0.81379  0.00690  0.26964  1.0000
  C   C2074     1.0  0.81039  0.37993  0.18673  1.0000
  H   H3514     1.0  0.78762  0.23615  0.35047  1.0000
  C   C2075     1.0  0.81508  0.33276  0.19628  1.0000
  H   H3515     1.0  0.84260  0.01169  0.26890  1.0000
  H   H3516     1.0  0.64476  0.00393  0.33348  1.0000
  H   H3517     1.0  0.72755  0.28092  0.19247  1.0000
  C   C2076     1.0  0.80641  0.39699  0.37053  1.0000
  C   C2077     1.0  0.00177  0.43596  0.35046  1.0000
  S   S624      1.0  0.74762  0.35006  0.18882  1.0000
  H   H3518     1.0  0.60479  0.12313  0.36011  1.0000
  H   H3519     1.0  0.74649  0.00028  0.28457  1.0000
  C   C2078     1.0  0.78357  0.37004  0.21320  1.0000
  C   C2079     1.0  0.72340  0.01234  0.29727  1.0000
  H   H3520     1.0  0.57801  0.11121  0.36198  1.0000
  H   H3521     1.0  0.84596  0.39036  0.33721  1.0000
  H   H3522     1.0  0.99288  0.18022  0.34248  1.0000
  C   C2080     1.0  0.61434  0.00904  0.36969  1.0000
  H   H3523     1.0  0.81025  0.37306  0.38479  1.0000
  C   C2081     1.0  0.63042  0.00995  0.33370  1.0000
  C   C2082     1.0  0.99244  0.24886  0.29972  1.0000
  H   H3524     1.0  0.69208  0.99291  0.28008  1.0000
  C   C2083     1.0  0.63323  0.03795  0.35114  1.0000
  H   H3525     1.0  0.82710  0.24739  0.35338  1.0000
  H   H3526     1.0  0.96489  0.20706  0.32092  1.0000
  H   H3527     1.0  0.64575  0.18544  0.24109  1.0000
  C   C2084     1.0  0.81438  0.36970  0.19974  1.0000
  C   C2085     1.0  0.84455  0.39024  0.34736  1.0000
  H   H3528     1.0  0.82818  0.36139  0.19791  1.0000
  H   H3529     1.0  0.99662  0.29389  0.32699  1.0000
  H   H3530     1.0  0.72792  0.04143  0.34108  1.0000
  H   H3531     1.0  0.61822  0.15162  0.38129  1.0000
  H   H3532     1.0  0.64011  0.16308  0.29653  1.0000
  H   H3533     1.0  0.81533  0.37976  0.20454  1.0000
  H   H3534     1.0  0.73585  0.99680  0.32693  1.0000
  H   H3535     1.0  0.58192  0.14848  0.35424  1.0000
  H   H3536     1.0  0.66938  0.15617  0.28366  1.0000
  H   H3537     1.0  0.95770  0.34990  0.38165  1.0000
  C   C2086     1.0  0.64816  0.17970  0.25084  1.0000
  H   H3538     1.0  0.77228  0.27604  0.33880  1.0000
  H   H3539     1.0  0.82045  0.36675  0.22398  1.0000
  H   H3540     1.0  0.67478  0.00633  0.31612  1.0000
  H   H3541     1.0  0.72739  0.01096  0.27786  1.0000
  N   N144      1.0  0.82756  0.22441  0.26532  1.0000
  C   C2087     1.0  0.83350  0.20452  0.26723  1.0000
  C   C2088     1.0  0.80737  0.22905  0.26941  1.0000
  C   C2089     1.0  0.83386  0.23247  0.25155  1.0000
  C   C2090     1.0  0.85398  0.19702  0.26537  1.0000
  C   C2091     1.0  0.79674  0.22638  0.26066  1.0000
  C   C2092     1.0  0.82828  0.25285  0.24762  1.0000
  H   H3542     1.0  0.82717  0.19792  0.27686  1.0000
  H   H3543     1.0  0.82884  0.19959  0.26058  1.0000
  H   H3544     1.0  0.80260  0.24299  0.27061  1.0000
  H   H3545     1.0  0.80273  0.22109  0.27898  1.0000
  H   H3546     1.0  0.84880  0.22950  0.24887  1.0000
  H   H3547     1.0  0.82994  0.22639  0.24516  1.0000
  H   H3548     1.0  0.86124  0.20156  0.25556  1.0000
  H   H3549     1.0  0.86003  0.20012  0.27213  1.0000
  H   H3550     1.0  0.85652  0.18233  0.26712  1.0000
  H   H3551     1.0  0.79847  0.23577  0.25135  1.0000
  H   H3552     1.0  0.80036  0.21260  0.25926  1.0000
  H   H3553     1.0  0.78218  0.22912  0.26511  1.0000
  H   H3554     1.0  0.83799  0.25934  0.24923  1.0000
  H   H3555     1.0  0.72562  0.13236  0.31771  1.0000
  H   H3556     1.0  0.82784  0.25668  0.23741  1.0000
  H   H3557     1.0  0.73306  0.12467  0.27620  1.0000
  H   H3558     1.0  0.74618  0.29848  0.26814  1.0000
  H   H3559     1.0  0.74788  0.30195  0.28871  1.0000
  H   H3560     1.0  0.73669  0.32518  0.28557  1.0000
  C   C2093     1.0  0.87264  0.27783  0.30710  1.0000
  C   C2094     1.0  0.87929  0.25756  0.30879  1.0000
  H   H3561     1.0  0.86265  0.28159  0.30109  1.0000
  H   H3562     1.0  0.86454  0.28053  0.31645  1.0000
  H   H3563     1.0  0.88711  0.25356  0.29986  1.0000
  H   H3564     1.0  0.88743  0.25186  0.31609  1.0000
  H   H3565     1.0  0.86745  0.25129  0.31204  1.0000
  H   H3566     1.0  0.62886  0.22674  0.26509  1.0000
  H   H3567     1.0  0.85461  0.30890  0.29274  1.0000
  H   H3568     1.0  0.89156  0.37746  0.36789  1.0000
  C   C2095     1.0  0.75720  0.03342  0.33218  1.0000
  C   C2096     1.0  0.62887  0.17132  0.27920  1.0000
  N   N145      1.0  0.72204  0.24630  0.22782  1.0000
  C   C2097     1.0  0.74059  0.23598  0.22950  1.0000
  C   C2098     1.0  0.72320  0.26554  0.22318  1.0000
  C   C2099     1.0  0.71743  0.23991  0.21786  1.0000
  C   C2100     1.0  0.70891  0.24287  0.24030  1.0000
  C   C2101     1.0  0.74330  0.21560  0.23269  1.0000
  C   C2102     1.0  0.72879  0.27362  0.23218  1.0000
  C   C2103     1.0  0.69966  0.24955  0.21372  1.0000
  C   C2104     1.0  0.69099  0.25672  0.24223  1.0000
  H   H3569     1.0  0.75092  0.23953  0.22078  1.0000
  H   H3570     1.0  0.74435  0.23936  0.23730  1.0000
  H   H3571     1.0  0.71055  0.27423  0.22092  1.0000
  H   H3572     1.0  0.73305  0.26733  0.21405  1.0000
  H   H3573     1.0  0.72838  0.24043  0.20918  1.0000
  H   H3574     1.0  0.71640  0.22576  0.22119  1.0000
  H   H3575     1.0  0.70553  0.22973  0.24200  1.0000
  H   H3576     1.0  0.71528  0.24186  0.24825  1.0000
  H   H3577     1.0  0.73293  0.21085  0.24081  1.0000
  H   H3578     1.0  0.74359  0.21045  0.22437  1.0000
  H   H3579     1.0  0.75652  0.20967  0.23534  1.0000
  H   H3580     1.0  0.72684  0.28819  0.22864  1.0000
  H   H3581     1.0  0.72066  0.27116  0.24195  1.0000
  H   H3582     1.0  0.74326  0.26864  0.23232  1.0000
  H   H3583     1.0  0.69845  0.24360  0.20619  1.0000
  H   H3584     1.0  0.69906  0.26382  0.20956  1.0000
  H   H3585     1.0  0.68791  0.24750  0.22154  1.0000
  H   H3586     1.0  0.67970  0.24974  0.24641  1.0000
  H   H3587     1.0  0.68759  0.26612  0.23361  1.0000
  H   H3588     1.0  0.69081  0.26426  0.24926  1.0000
  C   C2105     1.0  0.90022  0.28356  0.29040  1.0000
  H   H3589     1.0  0.82809  0.22047  0.34757  1.0000
  S   S625      1.0  0.86678  0.23408  0.34020  1.0000
  N   N146      1.0  0.91234  0.11805  0.35080  1.0000
  C   C2106     1.0  0.80065  0.23300  0.34376  1.0000
  H   H3590     1.0  0.93781  0.32890  0.38520  1.0000
  H   H3591     1.0  0.79683  0.26986  0.31975  1.0000
  N   N147      1.0  0.71306  0.11826  0.30182  1.0000
  C   C2107     1.0  0.71150  0.13481  0.29143  1.0000
  C   C2108     1.0  0.70349  0.12396  0.31412  1.0000
  C   C2109     1.0  0.70340  0.10588  0.29961  1.0000
  C   C2110     1.0  0.73269  0.10997  0.30126  1.0000
  C   C2111     1.0  0.71899  0.13229  0.27767  1.0000
  C   C2112     1.0  0.71122  0.13726  0.31761  1.0000
  C   C2113     1.0  0.70382  0.08774  0.30890  1.0000
  C   C2114     1.0  0.73797  0.09695  0.31330  1.0000
  H   H3592     1.0  0.69723  0.14202  0.29211  1.0000
  H   H3593     1.0  0.71885  0.14421  0.29246  1.0000
  H   H3594     1.0  0.70295  0.11262  0.32229  1.0000
  H   H3595     1.0  0.68916  0.13024  0.31393  1.0000
  H   H3596     1.0  0.68902  0.11240  0.29970  1.0000
  H   H3597     1.0  0.70921  0.10256  0.29014  1.0000
  H   H3598     1.0  0.73827  0.10291  0.29329  1.0000
  H   H3599     1.0  0.74035  0.12054  0.29902  1.0000
  H   H3600     1.0  0.71038  0.12612  0.27460  1.0000
  H   H3601     1.0  0.71903  0.14555  0.27124  1.0000
  H   H3602     1.0  0.80765  0.40143  0.36016  1.0000
  H   H3603     1.0  0.62094  0.00870  0.37736  1.0000
  C   C2115     1.0  0.74535  0.31405  0.28123  1.0000
  C   C2116     1.0  0.98837  0.31634  0.35059  1.0000
  H   H3604     1.0  0.83049  0.24612  0.27209  1.0000
  H   H3605     1.0  0.81466  0.25836  0.25260  1.0000
  C   C2117     1.0  0.98777  0.28545  0.35294  1.0000
  H   H3606     1.0  0.91366  0.13123  0.37177  1.0000
  H   H3607     1.0  0.76682  0.25475  0.34061  1.0000
  N   N148      1.0  0.80128  0.35853  0.20811  1.0000
  C   C2118     1.0  0.83211  0.22335  0.28741  1.0000
  H   H3608     1.0  0.99212  0.26329  0.29759  1.0000
  H   H3609     1.0  0.98026  0.30613  0.37120  1.0000
  C   C2119     1.0  0.83559  0.23154  0.27310  1.0000
  H   H3610     1.0  0.85033  0.22987  0.26956  1.0000
  H   H3611     1.0  0.83878  0.22968  0.29195  1.0000
  C   C2120     1.0  0.80532  0.26265  0.34322  1.0000
  C   C2121     1.0  0.88075  0.24628  0.34244  1.0000
  N   N149      1.0  0.98435  0.30361  0.34448  1.0000
  H   H3612     1.0  0.76197  0.02727  0.35540  1.0000
  H   H3613     1.0  0.84217  0.39496  0.36952  1.0000
  H   H3614     1.0  0.94687  0.29849  0.33735  1.0000
  H   H3615     1.0  0.83797  0.20897  0.28954  1.0000
  H   H3616     1.0  0.59298  0.99701  0.36835  1.0000
  H   H3617     1.0  0.74475  0.01615  0.31962  1.0000
  H   H3618     1.0  0.96487  0.25905  0.29808  1.0000
  H   H3619     1.0  0.83474  0.40234  0.34946  1.0000
  H   H3620     1.0  0.75712  0.38460  0.20998  1.0000
  H   H3621     1.0  0.76521  0.04136  0.33424  1.0000
  C   C2122     1.0  0.98512  0.26996  0.34847  1.0000
  H   H3622     1.0  0.97872  0.28518  0.36245  1.0000
  H   H3623     1.0  0.86086  0.32945  0.28973  1.0000
  C   C2123     1.0  0.97301  0.21511  0.31288  1.0000
  H   H3624     1.0  0.96786  0.44568  0.36252  1.0000
  H   H3625     1.0  0.96947  0.29162  0.32964  1.0000
  C   C2124     1.0  0.56105  0.16455  0.36569  1.0000
  H   H3626     1.0  0.61233  0.20441  0.27916  1.0000
  C   C2125     1.0  0.79825  0.34601  0.20137  1.0000
  H   H3627     1.0  0.85071  0.36231  0.35276  1.0000
  C   C2126     1.0  0.73745  0.31061  0.27120  1.0000
  H   H3628     1.0  0.73967  0.32127  0.26270  1.0000
  C   C2127     1.0  0.75674  0.00138  0.36494  1.0000
  C   C2128     1.0  0.87318  0.26299  0.34541  1.0000
  C   C2129     1.0  0.96500  0.30928  0.34331  1.0000
  C   C2130     1.0  0.95981  0.30284  0.33322  1.0000
  H   H3629     1.0  0.76464  0.27156  0.32667  1.0000
  C   C2131     1.0  0.59607  0.12034  0.36973  1.0000
  H   H3630     1.0  0.97423  0.41564  0.35462  1.0000
  H   H3631     1.0  0.66428  0.19290  0.26809  1.0000
  H   H3632     1.0  0.72736  0.28249  0.28617  1.0000
  C   C2132     1.0  0.82235  0.26084  0.34803  1.0000
  C   C2133     1.0  0.81643  0.99372  0.26731  1.0000
  H   H3633     1.0  0.95722  0.31400  0.32510  1.0000
  H   H3634     1.0  0.87179  0.00534  0.27409  1.0000
  N   N150      1.0  0.58501  0.13736  0.37356  1.0000
  C   C2134     1.0  0.84475  0.38059  0.37385  1.0000
  H   H3635     1.0  0.82065  0.32282  0.20403  1.0000
  N   N151      1.0  0.88709  0.28854  0.30207  1.0000
  H   H3636     1.0  0.65280  0.01443  0.34723  1.0000
  H   H3637     1.0  0.99636  0.19386  0.31493  1.0000
  H   H3638     1.0  0.96103  0.32399  0.34104  1.0000
  H   H3639     1.0  0.89297  0.14313  0.34999  1.0000
  H   H3640     1.0  0.51411  0.06640  0.38355  1.0000
  H   H3641     1.0  0.56419  0.13813  0.36412  1.0000
  H   H3642     1.0  0.73982  0.02518  0.35711  1.0000
  H   H3643     1.0  0.66278  0.17815  0.24998  1.0000
  C   C2135     1.0  0.62739  0.16459  0.29363  1.0000
  H   H3644     1.0  0.68029  0.21040  0.20919  1.0000
  C   C2136     1.0  0.76859  0.37503  0.20567  1.0000
  H   H3645     1.0  0.99363  0.26836  0.33908  1.0000
  H   H3646     1.0  0.94779  0.23751  0.29202  1.0000
  C   C2137     1.0  0.96771  0.43241  0.36876  1.0000
  C   C2138     1.0  0.79478  0.99087  0.30279  1.0000
  H   H3647     1.0  0.81730  0.23668  0.31207  1.0000
  H   H3648     1.0  0.95610  0.30499  0.35259  1.0000
  H   H3649     1.0  0.71705  0.34935  0.27363  1.0000
  C   C2139     1.0  0.89913  0.13227  0.35712  1.0000
  C   C2140     1.0  0.90263  0.11308  0.34284  1.0000
  H   H3650     1.0  0.72049  0.28879  0.26514  1.0000
  H   H3651     1.0  0.86448  0.99138  0.28929  1.0000
  S   S626      1.0  0.64670  0.23595  0.21462  1.0000
  H   H3652     1.0  0.88771  0.12696  0.36391  1.0000
  H   H3653     1.0  0.85886  0.26800  0.34669  1.0000
  H   H3654     1.0  0.92861  0.10608  0.36485  1.0000
  S   S627      1.0  0.87712  0.32073  0.35798  1.0000
  H   H3655     1.0  0.76332  0.03189  0.32225  1.0000
  H   H3656     1.0  0.91150  0.10374  0.33698  1.0000
  H   H3657     1.0  0.89782  0.12498  0.33577  1.0000
  H   H3658     1.0  0.96625  0.26807  0.31662  1.0000
  H   H3659     1.0  0.71869  0.29891  0.29539  1.0000
  H   H3660     1.0  0.70747  0.32670  0.25086  1.0000
  H   H3661     1.0  0.95015  0.10319  0.33986  1.0000
  H   H3662     1.0  0.79210  0.35328  0.19312  1.0000
  H   H3663     1.0  0.69677  0.35312  0.26857  1.0000
  H   H3664     1.0  0.82557  0.21919  0.32454  1.0000
  H   H3665     1.0  0.71208  0.02335  0.29481  1.0000
  C   C2141     1.0  0.82667  0.23252  0.31859  1.0000
  C   C2142     1.0  0.60125  0.99624  0.37510  1.0000
  H   H3666     1.0  0.62237  0.04286  0.35878  1.0000
  C   C2143     1.0  0.79235  0.01204  0.33992  1.0000
  H   H3667     1.0  0.88963  0.09326  0.35787  1.0000
  H   H3668     1.0  0.82714  0.25863  0.32018  1.0000
  H   H3669     1.0  0.82300  0.33967  0.21608  1.0000
  N   N152      1.0  0.71810  0.30883  0.27539  1.0000
  C   C2144     1.0  0.97691  0.31817  0.36388  1.0000
  H   H3670     1.0  0.61654  0.17350  0.29900  1.0000
  H   H3671     1.0  0.55380  0.16971  0.35780  1.0000
  H   H3672     1.0  0.79783  0.22480  0.33823  1.0000
  H   H3673     1.0  0.59534  0.09434  0.36775  1.0000
  H   H3674     1.0  0.84046  0.23131  0.31260  1.0000
  H   H3675     1.0  0.83266  0.00077  0.28415  1.0000
  H   H3676     1.0  0.95666  0.41032  0.36821  1.0000
  H   H3677     1.0  0.75320  0.00529  0.37423  1.0000
  H   H3678     1.0  0.71889  0.00438  0.30675  1.0000
  H   H3679     1.0  0.67986  0.99851  0.29477  1.0000
  C   C2145     1.0  0.75406  0.01830  0.35449  1.0000
  C   C2146     1.0  0.71304  0.30257  0.26555  1.0000
  H   H3680     1.0  0.61020  0.99953  0.34886  1.0000
  C   C2147     1.0  0.88949  0.37761  0.37779  1.0000
  C   C2148     1.0  0.94086  0.23156  0.30159  1.0000
  C   C2149     1.0  0.94525  0.23741  0.31224  1.0000
  H   H3681     1.0  0.64430  0.16667  0.25388  1.0000
  H   H3682     1.0  0.62699  0.19858  0.28981  1.0000
  H   H3683     1.0  0.96231  0.32162  0.36409  1.0000
  H   H3684     1.0  0.88968  0.40542  0.37421  1.0000
  C   C2150     1.0  0.82405  0.24613  0.32668  1.0000
  H   H3685     1.0  0.83503  0.24121  0.33188  1.0000
  C   C2151     1.0  0.90258  0.26676  0.34546  1.0000
  C   C2152     1.0  0.92776  0.12613  0.34236  1.0000
  H   H3686     1.0  0.92262  0.13853  0.33586  1.0000
  C   C2153     1.0  0.71634  0.31335  0.25188  1.0000
  H   H3687     1.0  0.68691  0.29964  0.29289  1.0000
  H   H3688     1.0  0.73064  0.31400  0.24810  1.0000
  S   S628      1.0  0.77452  0.31302  0.19957  1.0000
  C   C2154     1.0  0.69861  0.28839  0.29217  1.0000
  H   H3689     1.0  0.66425  0.15713  0.26871  1.0000
  H   H3690     1.0  0.70514  0.32700  0.28790  1.0000
  C   C2155     1.0  0.91291  0.29427  0.30965  1.0000
  H   H3691     1.0  0.61496  0.17470  0.27752  1.0000
  C   C2156     1.0  0.94246  0.11463  0.33406  1.0000
  H   H3692     1.0  0.69832  0.27975  0.30178  1.0000
  H   H3693     1.0  0.71689  0.34252  0.25960  1.0000
  H   H3694     1.0  0.90879  0.29352  0.28596  1.0000
  H   H3695     1.0  0.92359  0.29048  0.30155  1.0000
  H   H3696     1.0  0.90848  0.30887  0.30811  1.0000
  H   H3697     1.0  0.71283  0.36721  0.18786  1.0000
  H   H3698     1.0  0.81227  0.20703  0.35398  1.0000
  H   H3699     1.0  0.57663  0.10281  0.37896  1.0000
  H   H3700     1.0  0.85790  0.39090  0.34842  1.0000
  N   N153      1.0  0.83407  0.37093  0.36977  1.0000
  Fe  Fe313     1.0  0.75794  0.29918  0.19362  1.0000
  C   C2157     1.0  0.80928  0.34739  0.21927  1.0000
  H   H3701     1.0  0.80655  0.37036  0.37062  1.0000
  C   C2158     1.0  0.70538  0.32579  0.27819  1.0000
  H   H3702     1.0  0.69854  0.30212  0.26809  1.0000
  H   H3703     1.0  0.69725  0.28017  0.28607  1.0000
  H   H3704     1.0  0.71295  0.30654  0.24571  1.0000
  H   H3705     1.0  0.78095  0.00389  0.32779  1.0000
  C   C2159     1.0  0.98296  0.40654  0.38191  1.0000
  H   H3706     1.0  0.64687  0.01615  0.36323  1.0000
  H   H3707     1.0  0.94022  0.07907  0.36031  1.0000
  H   H3708     1.0  0.85404  0.34682  0.37350  1.0000
  H   H3709     1.0  0.62038  0.12939  0.38038  1.0000
  C   C2160     1.0  0.74554  0.00561  0.33996  1.0000
  C   C2161     1.0  0.73162  0.00194  0.28650  1.0000
  H   H3710     1.0  0.93018  0.08474  0.34700  1.0000
  H   H3711     1.0  0.79182  0.39969  0.37486  1.0000
  H   H3712     1.0  0.56851  0.17470  0.36512  1.0000
  C   C2162     1.0  0.84510  0.99975  0.27658  1.0000
  C   C2163     1.0  0.99744  0.30383  0.33187  1.0000
  H   H3713     1.0  0.76329  0.36327  0.20627  1.0000
  C   C2164     1.0  0.61837  0.00961  0.34716  1.0000
  H   H3714     1.0  0.79339  0.02521  0.33371  1.0000
  H   H3715     1.0  0.85936  0.37562  0.37037  1.0000
  C   C2165     1.0  0.64105  0.01791  0.35488  1.0000
  H   H3716     1.0  0.81256  0.40504  0.37409  1.0000
  H   H3717     1.0  0.90729  0.10051  0.36917  1.0000
  H   H3718     1.0  0.59175  0.00012  0.38370  1.0000
  C   C2166     1.0  0.74674  0.00338  0.32651  1.0000
  H   H3719     1.0  0.91857  0.07493  0.36231  1.0000
  C   C2167     1.0  0.75205  0.26152  0.18866  1.0000
  H   H3720     1.0  0.82560  0.33950  0.18965  1.0000
  H   H3721     1.0  0.99735  0.43159  0.34342  1.0000
  C   C2168     1.0  0.98917  0.45474  0.37489  1.0000
  H   H3722     1.0  0.81628  0.34098  0.37519  1.0000
  H   H3723     1.0  0.83673  0.32499  0.37607  1.0000
  C   C2169     1.0  0.88849  0.39345  0.38140  1.0000
  H   H3724     1.0  0.74757  0.99195  0.34588  1.0000
  H   H3725     1.0  0.81124  0.32521  0.19083  1.0000
  H   H3726     1.0  0.79769  0.38997  0.18758  1.0000
  H   H3727     1.0  0.75963  0.99471  0.32295  1.0000
  H   H3728     1.0  0.50467  0.05789  0.42147  1.0000
  C   C2170     1.0  0.53028  0.06246  0.50627  1.0000
  H   H3729     1.0  0.63625  0.05221  0.46617  1.0000
  S   S629      1.0  0.89181  0.41062  0.54652  1.0000
  S   S630      1.0  0.92186  0.42968  0.51613  1.0000
  Fe  Fe314     1.0  0.55172  0.11260  0.55165  1.0000
  S   S631      1.0  0.56831  0.13250  0.53957  1.0000
  Fe  Fe315     1.0  0.58070  0.08134  0.54504  1.0000
  S   S632      1.0  0.59930  0.09833  0.53228  1.0000
  S   S633      1.0  0.58773  0.05195  0.54736  1.0000
  Fe  Fe316     1.0  0.59116  0.11339  0.54794  1.0000
  S   S634      1.0  0.61611  0.11813  0.55192  1.0000
  Fe  Fe317     1.0  0.57511  0.11558  0.52512  1.0000
  S   S635      1.0  0.57669  0.12549  0.50392  1.0000
  S   S636      1.0  0.57386  0.09498  0.56118  1.0000
  S   S637      1.0  0.55733  0.09708  0.53676  1.0000
  S   S638      1.0  0.58450  0.03259  0.49726  1.0000
  H   H3730     1.0  0.89632  0.37587  0.56265  1.0000
  S   S639      1.0  0.92176  0.44628  0.54025  1.0000
  C   C2171     1.0  0.95075  0.40310  0.57083  1.0000
  H   H3731     1.0  0.92888  0.38702  0.54715  1.0000
  H   H3732     1.0  0.95519  0.44873  0.48239  1.0000
  C   C2172     1.0  0.50388  0.05048  0.51839  1.0000
  C   C2173     1.0  0.63652  0.05413  0.54662  1.0000
  H   H3733     1.0  0.60365  0.06135  0.48572  1.0000
  H   H3734     1.0  0.83513  0.34906  0.38621  1.0000
  H   H3735     1.0  0.50934  0.06264  0.53721  1.0000
  C   C2174     1.0  0.51075  0.11403  0.55054  1.0000
  H   H3736     1.0  0.93880  0.40398  0.57874  1.0000
  Fe  Fe318     1.0  0.89821  0.45260  0.42098  1.0000
  S   S640      1.0  0.87666  0.43668  0.42831  1.0000
  Fe  Fe319     1.0  0.92810  0.41956  0.41966  1.0000
  S   S641      1.0  0.90935  0.40080  0.42723  1.0000
  S   S642      1.0  0.95806  0.41135  0.41482  1.0000
  Fe  Fe320     1.0  0.89277  0.42013  0.41386  1.0000
  H   H3737     1.0  0.52050  0.01713  0.53826  1.0000
  Fe  Fe321     1.0  0.89513  0.41875  0.44091  1.0000
  S   S643      1.0  0.88958  0.40939  0.46218  1.0000
  S   S644      1.0  0.91272  0.43781  0.40551  1.0000
  S   S645      1.0  0.91548  0.43559  0.43437  1.0000
  H   H3738     1.0  0.50391  0.01750  0.49324  1.0000
  Fe  Fe322     1.0  0.53010  0.08296  0.44296  1.0000
  S   S646      1.0  0.52536  0.05572  0.44610  1.0000
  Fe  Fe323     1.0  0.52844  0.10791  0.45944  1.0000
  S   S647      1.0  0.52070  0.10861  0.48015  1.0000
  S   S648      1.0  0.55046  0.08683  0.45183  1.0000
  H   H3739     1.0  0.90169  0.25166  0.58441  1.0000
  H   H3740     1.0  0.56437  0.00757  0.46385  1.0000
  C   C2175     1.0  0.99227  0.44185  0.41298  1.0000
  H   H3741     1.0  0.66248  0.02501  0.55302  1.0000
  H   H3742     1.0  0.76739  0.99483  0.57006  1.0000
  H   H3743     1.0  0.62908  0.09322  0.46132  1.0000
  H   H3744     1.0  0.90382  0.46720  0.44109  1.0000
  C   C2176     1.0  0.94390  0.43296  0.45466  1.0000
  C   C2177     1.0  0.54765  0.03195  0.41114  1.0000
  C   C2178     1.0  0.54041  0.02182  0.42274  1.0000
  C   C2179     1.0  0.53348  0.02924  0.43343  1.0000
  C   C2180     1.0  0.53450  0.04659  0.43270  1.0000
  C   C2181     1.0  0.54281  0.05635  0.42132  1.0000
  C   C2182     1.0  0.54924  0.04910  0.41050  1.0000
  S   S649      1.0  0.89322  0.48266  0.41696  1.0000
  H   H3745     1.0  0.52746  0.02143  0.44228  1.0000
  C   C2183     1.0  0.96679  0.42939  0.41459  1.0000
  C   C2184     1.0  0.95566  0.44629  0.41423  1.0000
  C   C2185     1.0  0.96268  0.46079  0.41372  1.0000
  C   C2186     1.0  0.98100  0.45861  0.41306  1.0000
  C   C2187     1.0  0.62088  0.09324  0.39606  1.0000
  C   C2188     1.0  0.98512  0.42719  0.41402  1.0000
  H   H3746     1.0  0.94163  0.44830  0.41424  1.0000
  H   H3747     1.0  0.95384  0.47358  0.41410  1.0000
  H   H3748     1.0  0.58069  0.04853  0.45427  1.0000
  H   H3749     1.0  0.86630  0.43716  0.49343  1.0000
  H   H3750     1.0  0.53974  0.06017  0.48661  1.0000
  C   C2189     1.0  0.91045  0.27449  0.58514  1.0000
  C   C2190     1.0  0.98024  0.36667  0.56418  1.0000
  H   H3751     1.0  0.92287  0.37600  0.38805  1.0000
  C   C2191     1.0  0.88470  0.36270  0.39985  1.0000
  C   C2192     1.0  0.88426  0.37840  0.40342  1.0000
  H   H3752     1.0  0.63745  0.01077  0.54779  1.0000
  H   H3753     1.0  0.92943  0.36945  0.41542  1.0000
  H   H3754     1.0  0.88280  0.35091  0.40708  1.0000
  H   H3755     1.0  0.88193  0.37867  0.41333  1.0000
  H   H3756     1.0  0.52203  0.07580  0.50301  1.0000
  H   H3757     1.0  0.63694  0.07529  0.52918  1.0000
  H   H3758     1.0  0.54783  0.03853  0.52195  1.0000
  H   H3759     1.0  0.95835  0.37336  0.40679  1.0000
  H   H3760     1.0  0.89705  0.42871  0.56396  1.0000
  H   H3761     1.0  0.97976  0.43233  0.45139  1.0000
  C   C2193     1.0  0.89637  0.40303  0.56182  1.0000
  H   H3762     1.0  0.99557  0.48693  0.50353  1.0000
  H   H3763     1.0  0.94154  0.39850  0.39669  1.0000
  C   C2194     1.0  0.59777  0.04887  0.43589  1.0000
  C   C2195     1.0  0.75037  0.14593  0.57737  1.0000
  C   C2196     1.0  0.76864  0.14347  0.57717  1.0000
  C   C2197     1.0  0.57753  0.00061  0.43839  1.0000
  C   C2198     1.0  0.97914  0.42073  0.47129  1.0000
  H   H3764     1.0  0.74462  0.15569  0.56997  1.0000
  H   H3765     1.0  0.77686  0.15132  0.56962  1.0000
  H   H3766     1.0  0.57769  0.99873  0.42890  1.0000
  C   C2199     1.0  0.58661  0.03780  0.51092  1.0000
  C   C2200     1.0  0.59052  0.02437  0.52133  1.0000
  C   C2201     1.0  0.59091  0.02869  0.53254  1.0000
  C   C2202     1.0  0.58777  0.04646  0.53325  1.0000
  C   C2203     1.0  0.58465  0.05983  0.52265  1.0000
  C   C2204     1.0  0.58378  0.05551  0.51159  1.0000
  H   H3767     1.0  0.59322  0.01062  0.52080  1.0000
  H   H3768     1.0  0.59348  0.01825  0.54068  1.0000
  H   H3769     1.0  0.58266  0.07355  0.52297  1.0000
  H   H3770     1.0  0.58041  0.06596  0.50375  1.0000
  C   C2205     1.0  0.55993  0.12248  0.49746  1.0000
  C   C2206     1.0  0.56102  0.12759  0.48431  1.0000
  C   C2207     1.0  0.54878  0.12381  0.47887  1.0000
  C   C2208     1.0  0.53521  0.11516  0.48659  1.0000
  C   C2209     1.0  0.53356  0.11092  0.49973  1.0000
  C   C2210     1.0  0.54591  0.11449  0.50513  1.0000
  H   H3771     1.0  0.57147  0.13430  0.47832  1.0000
  H   H3772     1.0  0.54992  0.12746  0.46871  1.0000
  H   H3773     1.0  0.52279  0.10471  0.50579  1.0000
  H   H3774     1.0  0.54443  0.11113  0.51524  1.0000
  C   C2211     1.0  0.62063  0.11797  0.56659  1.0000
  C   C2212     1.0  0.63858  0.11536  0.56745  1.0000
  H   H3775     1.0  0.97593  0.47158  0.49283  1.0000
  H   H3776     1.0  0.64834  0.06458  0.58428  1.0000
  C   C2213     1.0  0.59975  0.01696  0.46584  1.0000
  H   H3777     1.0  0.99048  0.35431  0.56303  1.0000
  H   H3778     1.0  0.64925  0.11302  0.55931  1.0000
  H   H3779     1.0  0.87909  0.00430  0.58305  1.0000
  C   C2214     1.0  0.93544  0.37794  0.38954  1.0000
  H   H3780     1.0  0.97218  0.33926  0.41063  1.0000
  C   C2215     1.0  0.89737  0.44938  0.48157  1.0000
  C   C2216     1.0  0.90354  0.43120  0.48590  1.0000
  C   C2217     1.0  0.90133  0.41891  0.47985  1.0000
  C   C2218     1.0  0.89330  0.42476  0.46931  1.0000
  C   C2219     1.0  0.88784  0.44294  0.46470  1.0000
  C   C2220     1.0  0.88977  0.45518  0.47086  1.0000
  H   H3781     1.0  0.90973  0.42660  0.49400  1.0000
  H   H3782     1.0  0.90583  0.40485  0.48330  1.0000
  H   H3783     1.0  0.88169  0.44758  0.45655  1.0000
  H   H3784     1.0  0.54304  0.05863  0.53458  1.0000
  H   H3785     1.0  0.91881  0.39496  0.40253  1.0000
  H   H3786     1.0  0.64090  0.05205  0.55564  1.0000
  C   C2221     1.0  0.84205  0.42984  0.49380  1.0000
  C   C2222     1.0  0.97815  0.44771  0.52265  1.0000
  C   C2223     1.0  0.96745  0.45823  0.53115  1.0000
  C   C2224     1.0  0.97508  0.46852  0.53566  1.0000
  C   C2225     1.0  0.94644  0.39737  0.56012  1.0000
  S   S650      1.0  0.53499  0.12970  0.44276  1.0000
  H   H3787     1.0  0.95330  0.45850  0.53428  1.0000
  C   C2226     1.0  0.96066  0.46501  0.45010  1.0000
  N   N154      1.0  0.85561  0.42664  0.51309  1.0000
  H   H3788     1.0  0.91790  0.35905  0.40939  1.0000
  C   C2227     1.0  0.56296  0.02149  0.45830  1.0000
  H   H3789     1.0  0.72776  0.02899  0.58369  1.0000
  C   C2228     1.0  0.61012  0.06598  0.47567  1.0000
  C   C2229     1.0  0.64083  0.04150  0.52796  1.0000
  H   H3790     1.0  0.90206  0.15636  0.58125  1.0000
  N   N155      1.0  0.96042  0.45083  0.46207  1.0000
  H   H3791     1.0  0.62620  0.15660  0.58452  1.0000
  Fe  Fe324     1.0  0.54481  0.99771  0.40336  1.0000
  H   H3792     1.0  0.59728  0.06312  0.43506  1.0000
  H   H3793     1.0  0.92487  0.33755  0.42671  1.0000
  H   H3794     1.0  0.59778  0.04748  0.42631  1.0000
  C   C2230     1.0  0.59630  0.01263  0.45428  1.0000
  C   C2231     1.0  0.91170  0.48768  0.44587  1.0000
  H   H3795     1.0  0.96884  0.41296  0.47269  1.0000
  H   H3796     1.0  0.83465  0.44384  0.49283  1.0000
  H   H3797     1.0  0.56836  0.16101  0.38907  1.0000
  H   H3798     1.0  0.62692  0.04908  0.52729  1.0000
  S   S651      1.0  0.92598  0.47085  0.51102  1.0000
  H   H3799     1.0  0.83319  0.46237  0.52805  1.0000
  Fe  Fe325     1.0  0.90727  0.45658  0.50800  1.0000
  H   H3800     1.0  0.59083  0.06823  0.39910  1.0000
  C   C2232     1.0  0.94421  0.44294  0.46455  1.0000
  H   H3801     1.0  0.54018  0.00822  0.42355  1.0000
  H   H3802     1.0  0.96680  0.47643  0.54240  1.0000
  C   C2233     1.0  0.99651  0.44738  0.51873  1.0000
  H   H3803     1.0  0.65111  0.15295  0.56803  1.0000
  H   H3804     1.0  0.67112  0.19896  0.57893  1.0000
  H   H3805     1.0  0.97072  0.48949  0.44277  1.0000
  H   H3806     1.0  0.83647  0.39357  0.51545  1.0000
  H   H3807     1.0  0.55216  0.02330  0.45317  1.0000
  C   C2234     1.0  0.93161  0.35848  0.41051  1.0000
  H   H3808     1.0  0.85311  0.44774  0.53184  1.0000
  H   H3809     1.0  0.94764  0.47474  0.45036  1.0000
  H   H3810     1.0  0.90428  0.41749  0.58527  1.0000
  H   H3811     1.0  0.64832  0.19709  0.57147  1.0000
  S   S652      1.0  0.55932  0.99986  0.49356  1.0000
  H   H3812     1.0  0.94440  0.47917  0.48356  1.0000
  H   H3813     1.0  0.98717  0.35410  0.40480  1.0000
  H   H3814     1.0  0.67868  0.13252  0.56306  1.0000
  H   H3815     1.0  0.54227  0.07776  0.52148  1.0000
  H   H3816     1.0  0.53505  0.02709  0.51784  1.0000
  H   H3817     1.0  0.00159  0.40823  0.53539  1.0000
  C   C2235     1.0  0.84114  0.44862  0.52820  1.0000
  H   H3818     1.0  0.98686  0.46990  0.43910  1.0000
  C   C2236     1.0  0.85890  0.42667  0.49919  1.0000
  H   H3819     1.0  0.94591  0.37049  0.53983  1.0000
  C   C2237     1.0  0.64289  0.11561  0.57877  1.0000
  H   H3820     1.0  0.57143  0.14419  0.40301  1.0000
  S   S653      1.0  0.88261  0.41459  0.39837  1.0000
  C   C2238     1.0  0.58118  0.04372  0.44577  1.0000
  H   H3821     1.0  0.65678  0.11319  0.57931  1.0000
  C   C2239     1.0  0.72986  0.00308  0.58059  1.0000
  H   H3822     1.0  0.84520  0.41170  0.53156  1.0000
  H   H3823     1.0  0.68223  0.06173  0.57249  1.0000
  H   H3824     1.0  0.91600  0.47915  0.45422  1.0000
  H   H3825     1.0  0.52146  0.03559  0.54425  1.0000
  C   C2240     1.0  0.84416  0.41386  0.52152  1.0000
  C   C2241     1.0  0.61228  0.07365  0.57471  1.0000
  C   C2242     1.0  0.55464  0.03387  0.46779  1.0000
  H   H3826     1.0  0.61869  0.18030  0.58316  1.0000
  C   C2243     1.0  0.90269  0.40837  0.58030  1.0000
  H   H3827     1.0  0.98195  0.47438  0.45446  1.0000
  H   H3828     1.0  0.93903  0.38648  0.56471  1.0000
  H   H3829     1.0  0.58179  0.12179  0.39271  1.0000
  H   H3830     1.0  0.98028  0.40362  0.55496  1.0000
  C   C2244     1.0  0.87339  0.42290  0.51686  1.0000
  H   H3831     1.0  0.61207  0.00768  0.46842  1.0000
  H   H3832     1.0  0.58597  0.08365  0.46049  1.0000
  H   H3833     1.0  0.94410  0.32984  0.41586  1.0000
  H   H3834     1.0  0.62341  0.08049  0.56942  1.0000
  H   H3835     1.0  0.59491  0.99856  0.45722  1.0000
  H   H3836     1.0  0.83315  0.44913  0.51146  1.0000
  H   H3837     1.0  0.51937  0.05322  0.39792  1.0000
  C   C2245     1.0  0.97592  0.47522  0.44649  1.0000
  C   C2246     1.0  0.95483  0.39512  0.53791  1.0000
  Fe  Fe326     1.0  0.90748  0.47213  0.52991  1.0000
  H   H3838     1.0  0.89841  0.40400  0.51870  1.0000
  H   H3839     1.0  0.90438  0.36452  0.58372  1.0000
  C   C2247     1.0  0.58080  0.01926  0.43695  1.0000
  N   N156      1.0  0.60364  0.08573  0.47161  1.0000
  H   H3840     1.0  0.61837  0.02744  0.54590  1.0000
  H   H3841     1.0  0.00050  0.38538  0.53947  1.0000
  C   C2248     1.0  0.66629  0.18819  0.55516  1.0000
  C   C2249     1.0  0.94028  0.38489  0.53908  1.0000
  C   C2250     1.0  0.68460  0.05291  0.58134  1.0000
  S   S654      1.0  0.88745  0.45999  0.52612  1.0000
  N   N157      1.0  0.96208  0.39201  0.54966  1.0000
  H   H3842     1.0  0.62993  0.09105  0.44070  1.0000
  C   C2251     1.0  0.96140  0.36552  0.39935  1.0000
  H   H3843     1.0  0.62157  0.05766  0.54885  1.0000
  C   C2252     1.0  0.99352  0.48784  0.49392  1.0000
  C   C2253     1.0  0.97668  0.34950  0.40243  1.0000
  H   H3844     1.0  0.83288  0.42093  0.49942  1.0000
  H   H3845     1.0  0.60885  0.01273  0.44682  1.0000
  H   H3846     1.0  0.59147  0.09097  0.49048  1.0000
  H   H3847     1.0  0.65766  0.01667  0.52248  1.0000
  C   C2254     1.0  0.62569  0.02338  0.56363  1.0000
  H   H3848     1.0  0.67868  0.04651  0.54198  1.0000
  H   H3849     1.0  0.57448  0.06683  0.48207  1.0000
  H   H3850     1.0  0.63372  0.09579  0.39039  1.0000
  H   H3851     1.0  0.98330  0.34347  0.39404  1.0000
  H   H3852     1.0  0.97247  0.45990  0.47383  1.0000
  C   C2255     1.0  0.65260  0.18473  0.56774  1.0000
  S   S655      1.0  0.98966  0.47676  0.41258  1.0000
  C   C2256     1.0  0.64217  0.07117  0.53798  1.0000
  C   C2257     1.0  0.97042  0.37258  0.55312  1.0000
  H   H3853     1.0  0.99005  0.40074  0.52704  1.0000
  H   H3854     1.0  0.63610  0.08218  0.54312  1.0000
  C   C2258     1.0  0.60175  0.09512  0.48204  1.0000
  S   S656      1.0  0.69128  0.99263  0.55828  1.0000
  H   H3855     1.0  0.61791  0.11138  0.40797  1.0000
  H   H3856     1.0  0.61490  0.03486  0.56595  1.0000
  H   H3857     1.0  0.83268  0.43968  0.53498  1.0000
  H   H3858     1.0  0.97032  0.40778  0.38928  1.0000
  H   H3859     1.0  0.88507  0.46922  0.46740  1.0000
  C   C2259     1.0  0.53430  0.07074  0.53017  1.0000
  Fe  Fe327     1.0  0.93874  0.44419  0.52091  1.0000
  C   C2260     1.0  0.53395  0.05206  0.49577  1.0000
  C   C2261     1.0  0.63104  0.02447  0.54919  1.0000
  H   H3860     1.0  0.68926  0.13830  0.57306  1.0000
  C   C2262     1.0  0.93716  0.34141  0.42016  1.0000
  C   C2263     1.0  0.67999  0.03633  0.58485  1.0000
  H   H3861     1.0  0.96179  0.39359  0.57482  1.0000
  Fe  Fe328     1.0  0.57804  0.00569  0.50280  1.0000
  H   H3862     1.0  0.82971  0.41975  0.52143  1.0000
  H   H3863     1.0  0.84807  0.01646  0.58244  1.0000
  H   H3864     1.0  0.97965  0.36766  0.54476  1.0000
  S   S657      1.0  0.96857  0.43536  0.51659  1.0000
  C   C2264     1.0  0.61870  0.05686  0.58430  1.0000
  C   C2265     1.0  0.61858  0.09248  0.48726  1.0000
  H   H3865     1.0  0.91730  0.17416  0.58254  1.0000
  H   H3866     1.0  0.58878  0.01482  0.47423  1.0000
  C   C2266     1.0  0.99336  0.46863  0.53144  1.0000
  N   N158      1.0  0.65866  0.16908  0.57774  1.0000
  C   C2267     1.0  0.51766  0.06686  0.52773  1.0000
  C   C2268     1.0  0.77538  0.99445  0.57690  1.0000
  H   H3867     1.0  0.56910  0.05188  0.44206  1.0000
  C   C2269     1.0  0.67579  0.16992  0.58082  1.0000
  C   C2270     1.0  0.63063  0.05881  0.47435  1.0000
  H   H3868     1.0  0.52960  0.07969  0.53697  1.0000
  H   H3869     1.0  0.93469  0.38973  0.53039  1.0000
  H   H3870     1.0  0.96210  0.45926  0.44180  1.0000
  N   N159      1.0  0.58039  0.02436  0.44906  1.0000
  C   C2271     1.0  0.84809  0.39531  0.51840  1.0000
  H   H3871     1.0  0.93147  0.42762  0.45773  1.0000
  C   C2272     1.0  0.66177  0.02841  0.54288  1.0000
  H   H3872     1.0  0.96904  0.41775  0.54328  1.0000
  H   H3873     1.0  0.84974  0.38491  0.52710  1.0000
  H   H3874     1.0  0.67889  0.19031  0.55646  1.0000
  C   C2273     1.0  0.89813  0.38497  0.56755  1.0000
  H   H3875     1.0  0.64050  0.18327  0.56518  1.0000
  C   C2274     1.0  0.61562  0.09402  0.45980  1.0000
  H   H3876     1.0  0.83861  0.99945  0.58039  1.0000
  H   H3877     1.0  0.64354  0.03004  0.51187  1.0000
  H   H3878     1.0  0.94900  0.40947  0.53482  1.0000
  C   C2275     1.0  0.97553  0.40365  0.54654  1.0000
  H   H3879     1.0  0.94564  0.34355  0.42582  1.0000
  C   C2276     1.0  0.51455  0.12253  0.53779  1.0000
  Fe  Fe329     1.0  0.90354  0.43400  0.53469  1.0000
  C   C2277     1.0  0.59521  0.09892  0.41333  1.0000
  H   H3880     1.0  0.68958  0.02893  0.53360  1.0000
  H   H3881     1.0  0.54277  0.02930  0.47447  1.0000
  H   H3882     1.0  0.74693  0.02209  0.57231  1.0000
  Fe  Fe330     1.0  0.51581  0.12208  0.43464  1.0000
  C   C2278     1.0  0.99843  0.39645  0.38874  1.0000
  N   N160      1.0  0.52132  0.05386  0.51935  1.0000
  C   C2279     1.0  0.95915  0.45825  0.47338  1.0000
  H   H3883     1.0  0.59308  0.12289  0.57666  1.0000
  C   C2280     1.0  0.61195  0.10199  0.40603  1.0000
  H   H3884     1.0  0.54413  0.06951  0.42076  1.0000
  Fe  Fe331     1.0  0.55544  0.10803  0.43439  1.0000
  H   H3885     1.0  0.97497  0.43690  0.38949  1.0000
  S   S658      1.0  0.52234  0.11656  0.56108  1.0000
  H   H3886     1.0  0.56720  0.08724  0.48781  1.0000
  H   H3887     1.0  0.99248  0.41184  0.46900  1.0000
  H   H3888     1.0  0.55521  0.05684  0.40161  1.0000
  S   S659      1.0  0.89807  0.46520  0.48958  1.0000
  H   H3889     1.0  0.95530  0.42145  0.45381  1.0000
  H   H3890     1.0  0.60664  0.09155  0.44352  1.0000
  C   C2281     1.0  0.51298  0.08139  0.39696  1.0000
  H   H3891     1.0  0.63366  0.01755  0.52655  1.0000
  H   H3892     1.0  0.62014  0.01133  0.56835  1.0000
  H   H3893     1.0  0.60280  0.13907  0.39217  1.0000
  H   H3894     1.0  0.94345  0.44183  0.44522  1.0000
  C   C2282     1.0  0.67542  0.18641  0.58553  1.0000
  H   H3895     1.0  0.93173  0.45341  0.46514  1.0000
  C   C2283     1.0  0.61324  0.08114  0.39348  1.0000
  H   H3896     1.0  0.93637  0.40878  0.55622  1.0000
  H   H3897     1.0  0.59398  0.01971  0.43023  1.0000
  H   H3898     1.0  0.52463  0.13052  0.53445  1.0000
  C   C2284     1.0  0.52863  0.02685  0.53755  1.0000
  H   H3899     1.0  0.84683  0.36565  0.39329  1.0000
  H   H3900     1.0  0.88136  0.43292  0.51093  1.0000
  H   H3901     1.0  0.66588  0.01523  0.54030  1.0000
  H   H3902     1.0  0.63851  0.06861  0.47362  1.0000
  H   H3903     1.0  0.66039  0.20051  0.54895  1.0000
  H   H3904     1.0  0.92328  0.33733  0.39842  1.0000
  H   H3905     1.0  0.57067  0.02891  0.43191  1.0000
  H   H3906     1.0  0.60574  0.05889  0.47014  1.0000
  H   H3907     1.0  0.62162  0.07180  0.44995  1.0000
  H   H3908     1.0  0.88899  0.40118  0.50691  1.0000
  H   H3909     1.0  0.97068  0.36394  0.57342  1.0000
  C   C2285     1.0  0.61850  0.08646  0.44795  1.0000
  S   S660      1.0  0.50757  0.10210  0.45200  1.0000
  C   C2286     1.0  0.57075  0.08143  0.47935  1.0000
  C   C2287     1.0  0.56598  0.14778  0.39429  1.0000
  H   H3910     1.0  0.60759  0.06978  0.56759  1.0000
  C   C2288     1.0  0.67970  0.14378  0.56663  1.0000
  H   H3911     1.0  0.54958  0.04760  0.46292  1.0000
  H   H3912     1.0  0.85426  0.45502  0.50849  1.0000
  H   H3913     1.0  0.54397  0.03948  0.49745  1.0000
  H   H3914     1.0  0.57485  0.08406  0.41650  1.0000
  H   H3915     1.0  0.99850  0.40248  0.39650  1.0000
  H   H3916     1.0  0.93474  0.15677  0.57021  1.0000
  H   H3917     1.0  0.96762  0.37389  0.39045  1.0000
  H   H3918     1.0  0.59701  0.10966  0.47886  1.0000
  C   C2289     1.0  0.66093  0.15181  0.57383  1.0000
  H   H3919     1.0  0.61523  0.10080  0.49441  1.0000
  S   S661      1.0  0.53678  0.10251  0.42473  1.0000
  S   S662      1.0  0.58381  0.11103  0.42515  1.0000
  H   H3920     1.0  0.56229  0.12755  0.38647  1.0000
  S   S663      1.0  0.56371  0.99535  0.52242  1.0000
  H   H3921     1.0  0.65678  0.07034  0.53570  1.0000
  C   C2290     1.0  0.53381  0.03673  0.52369  1.0000
  C   C2291     1.0  0.90485  0.48084  0.43838  1.0000
  H   H3922     1.0  0.60206  0.03054  0.46393  1.0000
  H   H3923     1.0  0.55816  0.08461  0.47589  1.0000
  H   H3924     1.0  0.95392  0.41650  0.56750  1.0000
  H   H3925     1.0  0.86776  0.41429  0.49674  1.0000
  C   C2292     1.0  0.64424  0.02535  0.52202  1.0000
  C   C2293     1.0  0.89865  0.41472  0.56822  1.0000
  C   C2294     1.0  0.88706  0.36228  0.38705  1.0000
  C   C2295     1.0  0.60696  0.12079  0.57722  1.0000
  H   H3926     1.0  0.97844  0.42448  0.48025  1.0000
  H   H3927     1.0  0.64978  0.05021  0.52157  1.0000
  C   C2296     1.0  0.59675  0.07766  0.40103  1.0000
  H   H3928     1.0  0.98937  0.44287  0.45894  1.0000
  H   H3929     1.0  0.57998  0.10378  0.46581  1.0000
  C   C2297     1.0  0.67679  0.03860  0.53587  1.0000
  H   H3930     1.0  0.61054  0.04131  0.43868  1.0000
  N   N161      1.0  0.64285  0.03738  0.54149  1.0000
  C   C2298     1.0  0.94569  0.47604  0.47427  1.0000
  C   C2299     1.0  0.58528  0.08927  0.46868  1.0000
  H   H3931     1.0  0.56395  0.03420  0.47344  1.0000
  C   C2300     1.0  0.58766  0.08665  0.41086  1.0000
  H   H3932     1.0  0.61006  0.10855  0.45717  1.0000
  H   H3933     1.0  0.62994  0.09684  0.47989  1.0000
  C   C2301     1.0  0.99276  0.39897  0.53653  1.0000
  H   H3934     1.0  0.92768  0.13564  0.57635  1.0000
  H   H3935     1.0  0.93678  0.48866  0.53265  1.0000
  H   H3936     1.0  0.87961  0.39395  0.52371  1.0000
  C   C2302     1.0  0.93025  0.39532  0.39430  1.0000
  H   H3937     1.0  0.62258  0.07859  0.49234  1.0000
  C   C2303     1.0  0.73876  0.01737  0.58183  1.0000
  H   H3938     1.0  0.96565  0.39149  0.52980  1.0000
  H   H3939     1.0  0.67471  0.04717  0.52665  1.0000
  H   H3940     1.0  0.71533  0.00862  0.58085  1.0000
  C   C2304     1.0  0.97756  0.43704  0.46027  1.0000
  H   H3941     1.0  0.98793  0.37618  0.56438  1.0000
  H   H3942     1.0  0.52764  0.08101  0.39430  1.0000
  H   H3943     1.0  0.76712  0.02982  0.58013  1.0000
  H   H3944     1.0  0.63723  0.02263  0.56768  1.0000
  H   H3945     1.0  0.84641  0.42720  0.48406  1.0000
  Fe  Fe332     1.0  0.67491  0.00152  0.57591  1.0000
  C   C2305     1.0  0.84607  0.44524  0.51462  1.0000
  H   H3946     1.0  0.94246  0.43368  0.47396  1.0000
  H   H3947     1.0  0.92556  0.40646  0.38676  1.0000
  H   H3948     1.0  0.95994  0.36454  0.55595  1.0000
  H   H3949     1.0  0.95073  0.13639  0.57045  1.0000
  C   C2306     1.0  0.88579  0.39396  0.39422  1.0000
  H   H3950     1.0  0.87140  0.42410  0.52679  1.0000
  S   S664      1.0  0.51757  0.99579  0.41539  1.0000
  H   H3951     1.0  0.93212  0.47563  0.47356  1.0000
  H   H3952     1.0  0.73558  0.99942  0.57122  1.0000
  S   S665      1.0  0.66893  0.03073  0.57535  1.0000
  C   C2307     1.0  0.88552  0.40440  0.51637  1.0000
  H   H3953     1.0  0.50856  0.08203  0.40707  1.0000
  H   H3954     1.0  0.50649  0.09390  0.39130  1.0000
  H   H3955     1.0  0.86026  0.39223  0.51107  1.0000
  H   H3956     1.0  0.99385  0.41420  0.41431  1.0000
  H   H3957     1.0  0.54353  0.06475  0.50628  1.0000
  S   S666      1.0  0.55350  0.02354  0.39741  1.0000
  S   S667      1.0  0.51662  0.99540  0.51689  1.0000
  H   H3958     1.0  0.63304  0.04825  0.48284  1.0000
  C   C2308     1.0  0.50357  0.01299  0.48482  1.0000
  H   H3959     1.0  0.51775  0.00772  0.48051  1.0000
  H   H3960     1.0  0.68725  0.16921  0.57254  1.0000
  H   H3961     1.0  0.95041  0.48712  0.46688  1.0000
  H   H3962     1.0  0.65796  0.14119  0.58235  1.0000
  C   C2309     1.0  0.84162  0.37924  0.38824  1.0000
  C   C2310     1.0  0.93280  0.34089  0.38935  1.0000
  H   H3963     1.0  0.50337  0.03869  0.47292  1.0000
  H   H3964     1.0  0.96806  0.48191  0.50603  1.0000
  H   H3965     1.0  0.68556  0.15321  0.55841  1.0000
  H   H3966     1.0  0.52156  0.04940  0.49456  1.0000
  H   H3967     1.0  0.50956  0.07971  0.52360  1.0000
  H   H3968     1.0  0.54107  0.01952  0.54100  1.0000
  C   C2311     1.0  0.94892  0.34657  0.39118  1.0000
  H   H3969     1.0  0.60085  0.08300  0.57920  1.0000
  C   C2312     1.0  0.93788  0.14310  0.57583  1.0000
  H   H3970     1.0  0.90463  0.28297  0.57733  1.0000
  H   H3971     1.0  0.56422  0.99883  0.44439  1.0000
  H   H3972     1.0  0.78285  0.00529  0.57331  1.0000
  H   H3973     1.0  0.99649  0.38279  0.39327  1.0000
  C   C2313     1.0  0.57380  0.13283  0.38674  1.0000
  H   H3974     1.0  0.66920  0.17743  0.55000  1.0000
  N   N162      1.0  0.94444  0.36171  0.39788  1.0000
  C   C2314     1.0  0.50521  0.12092  0.52934  1.0000
  H   H3975     1.0  0.98450  0.48661  0.47109  1.0000
  H   H3976     1.0  0.82735  0.38389  0.39259  1.0000
  H   H3977     1.0  0.95695  0.33442  0.39611  1.0000
  H   H3978     1.0  0.50639  0.03826  0.51469  1.0000
  H   H3979     1.0  0.50809  0.12780  0.51953  1.0000
  H   H3980     1.0  0.55120  0.14907  0.39758  1.0000
  C   C2315     1.0  0.50962  0.06493  0.39402  1.0000
  H   H3981     1.0  0.84928  0.38791  0.38983  1.0000
  C   C2316     1.0  0.90271  0.37853  0.57947  1.0000
  H   H3982     1.0  0.98037  0.40518  0.58494  1.0000
  C   C2317     1.0  0.97466  0.48408  0.49581  1.0000
  H   H3983     1.0  0.51342  0.03182  0.38972  1.0000
  H   H3984     1.0  0.63096  0.04901  0.57910  1.0000
  H   H3985     1.0  0.99879  0.42972  0.38586  1.0000
  Fe  Fe333     1.0  0.69359  0.19451  0.66919  1.0000
  S   S668      1.0  0.71056  0.17702  0.68283  1.0000
  S   S669      1.0  0.67893  0.18723  0.65712  1.0000
  Fe  Fe334     1.0  0.70301  0.22817  0.67128  1.0000
  S   S670      1.0  0.72114  0.21352  0.68461  1.0000
  S   S671      1.0  0.69826  0.25750  0.66332  1.0000
  Fe  Fe335     1.0  0.73089  0.19367  0.67223  1.0000
  S   S672      1.0  0.76050  0.18457  0.66475  1.0000
  Fe  Fe336     1.0  0.69925  0.19844  0.69411  1.0000
  S   S673      1.0  0.69264  0.19236  0.71546  1.0000
  S   S674      1.0  0.71474  0.20974  0.65790  1.0000
  S   S675      1.0  0.68024  0.21451  0.68152  1.0000
  S   S676      1.0  0.80153  0.09413  0.61832  1.0000
  S   S677      1.0  0.82933  0.09887  0.63416  1.0000
  Fe  Fe337     1.0  0.83047  0.08416  0.61929  1.0000
  H   H3986     1.0  0.76940  0.24785  0.67470  1.0000
  Fe  Fe338     1.0  0.80098  0.11020  0.63190  1.0000
  S   S678      1.0  0.77731  0.11168  0.64818  1.0000
  Fe  Fe339     1.0  0.91977  0.20872  0.62301  1.0000
  S   S679      1.0  0.93261  0.21793  0.63476  1.0000
  S   S680      1.0  0.91289  0.22385  0.60440  1.0000
  Fe  Fe340     1.0  0.91590  0.17432  0.64196  1.0000
  S   S681      1.0  0.92883  0.18046  0.65552  1.0000
  S   S682      1.0  0.90610  0.14880  0.64583  1.0000
  Fe  Fe341     1.0  0.91182  0.20776  0.65102  1.0000
  S   S683      1.0  0.89905  0.22590  0.66459  1.0000
  Fe  Fe342     1.0  0.94875  0.19023  0.63820  1.0000
  S   S684      1.0  0.97880  0.18751  0.63519  1.0000
  S   S685      1.0  0.89734  0.20095  0.63895  1.0000
  S   S686      1.0  0.93745  0.18158  0.62500  1.0000
  Fe  Fe343     1.0  0.80390  0.30456  0.67839  1.0000
  S   S687      1.0  0.81028  0.28112  0.69407  1.0000
  S   S688      1.0  0.81905  0.32632  0.66855  1.0000
  Fe  Fe344     1.0  0.76930  0.29510  0.67790  1.0000
  S   S689      1.0  0.77269  0.27092  0.69328  1.0000
  S   S690      1.0  0.74631  0.30581  0.66804  1.0000
  Fe  Fe345     1.0  0.78080  0.28800  0.70276  1.0000
  S   S691      1.0  0.76699  0.28932  0.72297  1.0000
  Fe  Fe346     1.0  0.80158  0.26627  0.68310  1.0000
  S   S692      1.0  0.81443  0.23969  0.67809  1.0000
  S   S693      1.0  0.77514  0.31262  0.68805  1.0000
  S   S694      1.0  0.79752  0.28925  0.66684  1.0000
  Fe  Fe347     1.0  0.69374  0.25898  0.77273  1.0000
  S   S695      1.0  0.67130  0.27892  0.76511  1.0000
  S   S696      1.0  0.72019  0.26720  0.76752  1.0000
  H   H3987     1.0  0.78345  0.05139  0.65142  1.0000
  H   H3988     1.0  0.68886  0.35920  0.78151  1.0000
  H   H3989     1.0  0.71622  0.18769  0.61746  1.0000
  Fe  Fe348     1.0  0.66492  0.25574  0.76088  1.0000
  S   S697      1.0  0.65831  0.25757  0.74218  1.0000
  H   H3990     1.0  0.79485  0.33895  0.68912  1.0000
  S   S698      1.0  0.68894  0.23643  0.76685  1.0000
  H   H3991     1.0  0.79190  0.38690  0.71021  1.0000
  S   S699      1.0  0.78836  0.33928  0.74900  1.0000
  Fe  Fe349     1.0  0.91836  0.35273  0.60688  1.0000
  S   S700      1.0  0.92996  0.34095  0.62430  1.0000
  H   H3992     1.0  0.78580  0.33203  0.70548  1.0000
  Fe  Fe350     1.0  0.92407  0.31698  0.60048  1.0000
  S   S701      1.0  0.93657  0.30234  0.61700  1.0000
  C   C2318     1.0  0.58911  0.06333  0.60787  1.0000
  Fe  Fe351     1.0  0.91421  0.31995  0.62785  1.0000
  S   S702      1.0  0.90253  0.30459  0.64694  1.0000
  Fe  Fe352     1.0  0.95108  0.32447  0.61195  1.0000
  S   S703      1.0  0.98081  0.31956  0.61040  1.0000
  S   S704      1.0  0.90047  0.33323  0.61159  1.0000
  S   S705      1.0  0.94069  0.33765  0.59430  1.0000
  H   H3993     1.0  0.94836  0.12323  0.61269  1.0000
  C   C2319     1.0  0.94234  0.26285  0.65469  1.0000
  H   H3994     1.0  0.82551  0.01456  0.59018  1.0000
  H   H3995     1.0  0.97614  0.36876  0.62186  1.0000
  H   H3996     1.0  0.51250  0.32778  0.77831  1.0000
  Fe  Fe353     1.0  0.73766  0.38362  0.76937  1.0000
  C   C2320     1.0  0.70605  0.17069  0.61061  1.0000
  H   H3997     1.0  0.77932  0.06745  0.62600  1.0000
  H   H3998     1.0  0.79687  0.04381  0.60336  1.0000
  H   H3999     1.0  0.81601  0.31550  0.69951  1.0000
  H   H4000     1.0  0.93208  0.27295  0.64997  1.0000
  H   H4001     1.0  0.70463  0.46181  0.78515  1.0000
  H   H4002     1.0  0.96521  0.27750  0.66077  1.0000
  S   S706      1.0  0.70350  0.05402  0.61113  1.0000
  N   N163      1.0  0.94136  0.26627  0.66747  1.0000
  S   S707      1.0  0.68794  0.11102  0.64648  1.0000
  H   H4003     1.0  0.77429  0.22529  0.68271  1.0000
  H   H4004     1.0  0.89075  0.99191  0.59521  1.0000
  H   H4005     1.0  0.62641  0.01546  0.61260  1.0000
  S   S708      1.0  0.66844  0.09210  0.62410  1.0000
  H   H4006     1.0  0.95984  0.38867  0.61920  1.0000
  H   H4007     1.0  0.88233  0.01858  0.60112  1.0000
  H   H4008     1.0  0.76960  0.21196  0.63814  1.0000
  H   H4009     1.0  0.76246  0.08737  0.62535  1.0000
  H   H4010     1.0  0.71277  0.14243  0.63228  1.0000
  H   H4011     1.0  0.74928  0.18537  0.62612  1.0000
  C   C2321     1.0  0.73368  0.16453  0.63561  1.0000
  H   H4012     1.0  0.67836  0.28907  0.70680  1.0000
  H   H4013     1.0  0.94247  0.29797  0.64801  1.0000
  C   C2322     1.0  0.79556  0.33972  0.69867  1.0000
  H   H4014     1.0  0.69395  0.31653  0.75991  1.0000
  C   C2323     1.0  0.98008  0.23594  0.61794  1.0000
  C   C2324     1.0  0.69480  0.04713  0.60088  1.0000
  C   C2325     1.0  0.69064  0.03032  0.60426  1.0000
  N   N164      1.0  0.62260  0.05994  0.59588  1.0000
  H   H4015     1.0  0.69271  0.02166  0.61321  1.0000
  H   H4016     1.0  0.67936  0.01225  0.59915  1.0000
  C   C2326     1.0  0.99797  0.26701  0.60359  1.0000
  H   H4017     1.0  0.79170  0.22798  0.66090  1.0000
  S   S709      1.0  0.84105  0.05445  0.62235  1.0000
  H   H4018     1.0  0.82103  0.38138  0.69628  1.0000
  C   C2327     1.0  0.98682  0.32746  0.62142  1.0000
  C   C2328     1.0  0.97461  0.33075  0.63258  1.0000
  C   C2329     1.0  0.97954  0.33769  0.64106  1.0000
  H   H4019     1.0  0.79596  0.27730  0.75182  1.0000
  H   H4020     1.0  0.99541  0.28171  0.64113  1.0000
  H   H4021     1.0  0.73114  0.08659  0.63643  1.0000
  H   H4022     1.0  0.96140  0.32797  0.63467  1.0000
  H   H4023     1.0  0.97001  0.34046  0.64960  1.0000
  H   H4024     1.0  0.98268  0.28388  0.58964  1.0000
  H   H4025     1.0  0.69436  0.18162  0.60882  1.0000
  Fe  Fe354     1.0  0.69371  0.08332  0.61043  1.0000
  H   H4026     1.0  0.72861  0.24186  0.64352  1.0000
  H   H4027     1.0  0.76730  0.15280  0.62373  1.0000
  H   H4028     1.0  0.94914  0.25366  0.68541  1.0000
  H   H4029     1.0  0.97896  0.25215  0.67106  1.0000
  H   H4030     1.0  0.74075  0.29975  0.70439  1.0000
  H   H4031     1.0  0.60648  0.02978  0.60822  1.0000
  H   H4032     1.0  0.69303  0.29775  0.71924  1.0000
  C   C2330     1.0  0.77712  0.22829  0.66247  1.0000
  H   H4033     1.0  0.57747  0.07457  0.60924  1.0000
  H   H4034     1.0  0.64177  0.18174  0.59308  1.0000
  H   H4035     1.0  0.97476  0.41020  0.62959  1.0000
  H   H4036     1.0  0.95330  0.23599  0.65080  1.0000
  C   C2331     1.0  0.66613  0.18409  0.77152  1.0000
  H   H4037     1.0  0.75931  0.02319  0.63303  1.0000
  C   C2332     1.0  0.77294  0.30403  0.72944  1.0000
  C   C2333     1.0  0.79088  0.30505  0.72749  1.0000
  C   C2334     1.0  0.79548  0.31576  0.73365  1.0000
  C   C2335     1.0  0.78219  0.32556  0.74173  1.0000
  C   C2336     1.0  0.76428  0.32456  0.74361  1.0000
  C   C2337     1.0  0.75967  0.31384  0.73747  1.0000
  H   H4038     1.0  0.80123  0.29724  0.72147  1.0000
  H   H4039     1.0  0.80940  0.31636  0.73226  1.0000
  H   H4040     1.0  0.75393  0.33208  0.74973  1.0000
  H   H4041     1.0  0.74578  0.31312  0.73898  1.0000
  C   C2338     1.0  0.84206  0.31974  0.66219  1.0000
  C   C2339     1.0  0.85085  0.33173  0.65257  1.0000
  C   C2340     1.0  0.86936  0.32704  0.64762  1.0000
  C   C2341     1.0  0.87923  0.31054  0.65256  1.0000
  C   C2342     1.0  0.87046  0.29853  0.66220  1.0000
  C   C2343     1.0  0.85184  0.30301  0.66687  1.0000
  H   H4042     1.0  0.84331  0.34468  0.64892  1.0000
  H   H4043     1.0  0.87604  0.33636  0.64019  1.0000
  H   H4044     1.0  0.87802  0.28569  0.66597  1.0000
  H   H4045     1.0  0.84515  0.29370  0.67430  1.0000
  C   C2344     1.0  0.98750  0.19397  0.64575  1.0000
  C   C2345     1.0  0.97793  0.19473  0.65812  1.0000
  C   C2346     1.0  0.99787  0.26942  0.63757  1.0000
  H   H4046     1.0  0.73536  0.11472  0.63504  1.0000
  S   S710      1.0  0.92032  0.30386  0.58634  1.0000
  S   S711      1.0  0.79387  0.00774  0.61387  1.0000
  H   H4047     1.0  0.96470  0.19168  0.66129  1.0000
  H   H4048     1.0  0.93723  0.13101  0.62680  1.0000
  H   H4049     1.0  0.98172  0.28348  0.62396  1.0000
  C   C2347     1.0  0.98197  0.39622  0.63178  1.0000
  C   C2348     1.0  0.87560  0.22914  0.66885  1.0000
  C   C2349     1.0  0.86672  0.21759  0.66682  1.0000
  C   C2350     1.0  0.84790  0.22075  0.66992  1.0000
  C   C2351     1.0  0.83795  0.23551  0.67494  1.0000
  C   C2352     1.0  0.84684  0.24695  0.67708  1.0000
  C   C2353     1.0  0.86565  0.24370  0.67412  1.0000
  H   H4050     1.0  0.87435  0.20607  0.66309  1.0000
  H   H4051     1.0  0.84100  0.21182  0.66847  1.0000
  H   H4052     1.0  0.83927  0.25839  0.68090  1.0000
  H   H4053     1.0  0.87245  0.25267  0.67571  1.0000
  C   C2354     1.0  0.91612  0.24573  0.59930  1.0000
  C   C2355     1.0  0.87711  0.99866  0.59343  1.0000
  H   H4054     1.0  0.65565  0.08108  0.59694  1.0000
  C   C2356     1.0  0.91932  0.28135  0.59132  1.0000
  C   C2357     1.0  0.92699  0.27026  0.60133  1.0000
  C   C2358     1.0  0.92545  0.25243  0.60529  1.0000
  C   C2359     1.0  0.97975  0.40995  0.60374  1.0000
  H   H4055     1.0  0.72708  0.02095  0.60581  1.0000
  H   H4056     1.0  0.93419  0.27534  0.60596  1.0000
  H   H4057     1.0  0.93151  0.24395  0.61290  1.0000
  C   C2360     1.0  0.82694  0.04193  0.62064  1.0000
  C   C2361     1.0  0.82777  0.02436  0.62748  1.0000
  C   C2362     1.0  0.81722  0.01391  0.62581  1.0000
  C   C2363     1.0  0.80616  0.02083  0.61703  1.0000
  C   C2364     1.0  0.80518  0.03843  0.61030  1.0000
  C   C2365     1.0  0.81546  0.04898  0.61214  1.0000
  H   H4058     1.0  0.61693  0.16558  0.59834  1.0000
  N   N165      1.0  0.75000  0.01178  0.59172  1.0000
  H   H4059     1.0  0.81500  0.06237  0.60662  1.0000
  C   C2366     1.0  0.88150  0.16217  0.63041  1.0000
  C   C2367     1.0  0.89033  0.14719  0.63787  1.0000
  C   C2368     1.0  0.88655  0.13060  0.63904  1.0000
  C   C2369     1.0  0.87420  0.12894  0.63264  1.0000
  H   H4060     1.0  0.88429  0.17500  0.62943  1.0000
  H   H4061     1.0  0.89332  0.11895  0.64481  1.0000
  H   H4062     1.0  0.87164  0.11607  0.63338  1.0000
  C   C2370     1.0  0.71103  0.27062  0.66579  1.0000
  C   C2371     1.0  0.71095  0.28743  0.65794  1.0000
  C   C2372     1.0  0.72161  0.29810  0.65896  1.0000
  C   C2373     1.0  0.73255  0.29206  0.66780  1.0000
  C   C2374     1.0  0.73239  0.27539  0.67597  1.0000
  C   C2375     1.0  0.72149  0.26470  0.67502  1.0000
  H   H4063     1.0  0.70276  0.29215  0.65090  1.0000
  H   H4064     1.0  0.72156  0.31102  0.65271  1.0000
  H   H4065     1.0  0.74073  0.27073  0.68288  1.0000
  H   H4066     1.0  0.72125  0.25188  0.68132  1.0000
  C   C2376     1.0  0.68424  0.21107  0.72229  1.0000
  C   C2377     1.0  0.67470  0.22687  0.71604  1.0000
  C   C2378     1.0  0.66678  0.24109  0.72221  1.0000
  C   C2379     1.0  0.66869  0.23971  0.73452  1.0000
  C   C2380     1.0  0.67861  0.22406  0.74060  1.0000
  C   C2381     1.0  0.68632  0.20979  0.73452  1.0000
  H   H4067     1.0  0.67299  0.22795  0.70660  1.0000
  H   H4068     1.0  0.65909  0.25313  0.71743  1.0000
  H   H4069     1.0  0.67994  0.22263  0.75013  1.0000
  H   H4070     1.0  0.69372  0.19760  0.73937  1.0000
  C   C2382     1.0  0.76523  0.16416  0.66035  1.0000
  C   C2383     1.0  0.75342  0.15259  0.66551  1.0000
  C   C2384     1.0  0.75730  0.13634  0.66189  1.0000
  C   C2385     1.0  0.77301  0.13164  0.65307  1.0000
  C   C2386     1.0  0.78494  0.14311  0.64799  1.0000
  C   C2387     1.0  0.78099  0.15942  0.65155  1.0000
  H   H4071     1.0  0.74144  0.15595  0.67247  1.0000
  H   H4072     1.0  0.74807  0.12747  0.66590  1.0000
  H   H4073     1.0  0.79729  0.13936  0.64140  1.0000
  H   H4074     1.0  0.79008  0.16838  0.64741  1.0000
  C   C2388     1.0  0.68129  0.16574  0.65476  1.0000
  C   C2389     1.0  0.69164  0.15074  0.66119  1.0000
  C   C2390     1.0  0.69330  0.13394  0.65879  1.0000
  C   C2391     1.0  0.68491  0.13209  0.64980  1.0000
  C   C2392     1.0  0.67473  0.14712  0.64331  1.0000
  C   C2393     1.0  0.67277  0.16381  0.64589  1.0000
  H   H4075     1.0  0.69825  0.15208  0.66804  1.0000
  H   H4076     1.0  0.70127  0.12238  0.66381  1.0000
  H   H4077     1.0  0.66810  0.14585  0.63646  1.0000
  H   H4078     1.0  0.66469  0.17535  0.64093  1.0000
  C   C2394     1.0  0.95033  0.25043  0.67611  1.0000
  H   H4079     1.0  0.75582  0.37450  0.68317  1.0000
  H   H4080     1.0  0.63728  0.16253  0.77914  1.0000
  C   C2395     1.0  0.73767  0.18288  0.63398  1.0000
  H   H4081     1.0  0.93344  0.23687  0.66336  1.0000
  H   H4082     1.0  0.71727  0.30639  0.70968  1.0000
  C   C2396     1.0  0.62732  0.42649  0.77521  1.0000
  S   S712      1.0  0.91150  0.38245  0.60055  1.0000
  H   H4083     1.0  0.72621  0.29733  0.69572  1.0000
  H   H4084     1.0  0.86144  0.01292  0.60921  1.0000
  H   H4085     1.0  0.82496  0.33471  0.69219  1.0000
  N   N166      1.0  0.71272  0.27334  0.72389  1.0000
  C   C2397     1.0  0.71254  0.25382  0.72692  1.0000
  C   C2398     1.0  0.69482  0.28325  0.72073  1.0000
  C   C2399     1.0  0.71456  0.27768  0.73569  1.0000
  C   C2400     1.0  0.72843  0.27680  0.71310  1.0000
  C   C2401     1.0  0.72877  0.24093  0.73184  1.0000
  C   C2402     1.0  0.71382  0.29720  0.73526  1.0000
  H   H4086     1.0  0.70030  0.25105  0.73419  1.0000
  H   H4087     1.0  0.71190  0.24954  0.71843  1.0000
  H   H4088     1.0  0.68369  0.27998  0.72890  1.0000
  H   H4089     1.0  0.70401  0.27323  0.74391  1.0000
  H   H4090     1.0  0.72767  0.27042  0.73820  1.0000
  H   H4091     1.0  0.74115  0.27235  0.71661  1.0000
  H   H4092     1.0  0.73015  0.26863  0.70608  1.0000
  H   H4093     1.0  0.74177  0.24323  0.72556  1.0000
  H   H4094     1.0  0.72845  0.24152  0.74167  1.0000
  H   H4095     1.0  0.72803  0.22716  0.73218  1.0000
  H   H4096     1.0  0.70100  0.30609  0.73343  1.0000
  H   H4097     1.0  0.72549  0.30187  0.72845  1.0000
  H   H4098     1.0  0.71490  0.29821  0.74469  1.0000
  Fe  Fe355     1.0  0.83637  0.12109  0.61776  1.0000
  H   H4099     1.0  0.77068  0.02146  0.59567  1.0000
  H   H4100     1.0  0.77278  0.25028  0.75513  1.0000
  H   H4101     1.0  0.99673  0.38014  0.59198  1.0000
  H   H4102     1.0  0.65158  0.34893  0.75719  1.0000
  C   C2403     1.0  0.60652  0.07049  0.60341  1.0000
  H   H4103     1.0  0.97726  0.36185  0.60194  1.0000
  H   H4104     1.0  0.77885  0.06977  0.65879  1.0000
  C   C2404     1.0  0.77789  0.06584  0.65026  1.0000
  C   C2405     1.0  0.68485  0.45081  0.76924  1.0000
  C   C2406     1.0  0.77819  0.28681  0.77425  1.0000
  C   C2407     1.0  0.62396  0.17171  0.77961  1.0000
  H   H4105     1.0  0.68043  0.30776  0.77454  1.0000
  H   H4106     1.0  0.72185  0.16315  0.64363  1.0000
  H   H4107     1.0  0.79232  0.21091  0.62973  1.0000
  H   H4108     1.0  0.61727  0.17038  0.77253  1.0000
  C   C2408     1.0  0.72922  0.29702  0.76917  1.0000
  C   C2409     1.0  0.74728  0.12306  0.59645  1.0000
  H   H4109     1.0  0.80557  0.28801  0.77474  1.0000
  N   N167      1.0  0.79050  0.35869  0.70010  1.0000
  H   H4110     1.0  0.79707  0.24522  0.75326  1.0000
  S   S713      1.0  0.68656  0.10413  0.59358  1.0000
  H   H4111     1.0  0.61982  0.43411  0.76768  1.0000
  Fe  Fe356     1.0  0.66200  0.11390  0.60745  1.0000
  H   H4112     1.0  0.97318  0.24032  0.66156  1.0000
  C   C2410     1.0  0.79454  0.29565  0.76985  1.0000
  H   H4113     1.0  0.62656  0.30027  0.77353  1.0000
  H   H4114     1.0  0.74193  0.24151  0.66081  1.0000
  C   C2411     1.0  0.72677  0.14249  0.62688  1.0000
  H   H4115     1.0  0.72774  0.13830  0.61799  1.0000
  H   H4116     1.0  0.96826  0.41568  0.61073  1.0000
  C   C2412     1.0  0.64532  0.07298  0.60159  1.0000
  H   H4117     1.0  0.72570  0.19366  0.63270  1.0000
  H   H4118     1.0  0.94163  0.15611  0.60829  1.0000
  H   H4119     1.0  0.80206  0.35221  0.71685  1.0000
  C   C2413     1.0  0.82113  0.36861  0.69415  1.0000
  H   H4120     1.0  0.66021  0.17698  0.78102  1.0000
  H   H4121     1.0  0.69124  0.33572  0.77355  1.0000
  H   H4122     1.0  0.76985  0.07697  0.60596  1.0000
  C   C2414     1.0  0.81461  0.32942  0.70011  1.0000
  Fe  Fe357     1.0  0.68355  0.10978  0.62765  1.0000
  S   S714      1.0  0.67466  0.13255  0.61240  1.0000
  H   H4123     1.0  0.77934  0.37198  0.67655  1.0000
  H   H4124     1.0  0.82479  0.35772  0.70204  1.0000
  H   H4125     1.0  0.70096  0.15824  0.61379  1.0000
  C   C2415     1.0  0.74685  0.00335  0.61596  1.0000
  C   C2416     1.0  0.76481  0.15371  0.61434  1.0000
  H   H4126     1.0  0.83232  0.36690  0.68580  1.0000
  H   H4127     1.0  0.65227  0.06022  0.60670  1.0000
  C   C2417     1.0  0.98121  0.25099  0.62368  1.0000
  H   H4128     1.0  0.73638  0.00322  0.62485  1.0000
  H   H4129     1.0  0.76734  0.38041  0.69851  1.0000
  C   C2418     1.0  0.86556  0.14392  0.62505  1.0000
  H   H4130     1.0  0.79614  0.23355  0.63886  1.0000
  H   H4131     1.0  0.73800  0.29638  0.76000  1.0000
  S   S715      1.0  0.57491  0.34956  0.77969  1.0000
  H   H4132     1.0  0.74121  0.18341  0.64278  1.0000
  H   H4133     1.0  0.77225  0.28224  0.75370  1.0000
  N   N168      1.0  0.86980  0.26903  0.63001  1.0000
  C   C2419     1.0  0.87816  0.27178  0.63970  1.0000
  C   C2420     1.0  0.84994  0.27688  0.63304  1.0000
  C   C2421     1.0  0.87765  0.27810  0.61684  1.0000
  C   C2422     1.0  0.87355  0.24944  0.63047  1.0000
  C   C2423     1.0  0.89884  0.26662  0.63732  1.0000
  C   C2424     1.0  0.83900  0.26693  0.64510  1.0000
  C   C2425     1.0  0.87676  0.29809  0.61487  1.0000
  C   C2426     1.0  0.86500  0.24383  0.62173  1.0000
  H   H4134     1.0  0.87408  0.28582  0.64068  1.0000
  H   H4135     1.0  0.87316  0.26403  0.64925  1.0000
  H   H4136     1.0  0.84359  0.27832  0.62500  1.0000
  H   H4137     1.0  0.84754  0.29068  0.63437  1.0000
  H   H4138     1.0  0.89188  0.27164  0.61385  1.0000
  H   H4139     1.0  0.87086  0.27663  0.60981  1.0000
  H   H4140     1.0  0.88822  0.24421  0.62752  1.0000
  H   H4141     1.0  0.87014  0.24164  0.64032  1.0000
  H   H4142     1.0  0.90532  0.27487  0.62854  1.0000
  H   H4143     1.0  0.90307  0.26888  0.64529  1.0000
  H   H4144     1.0  0.90405  0.25239  0.63720  1.0000
  H   H4145     1.0  0.83990  0.25300  0.64484  1.0000
  H   H4146     1.0  0.84304  0.26745  0.65367  1.0000
  H   H4147     1.0  0.82461  0.27361  0.64605  1.0000
  H   H4148     1.0  0.88427  0.30083  0.62090  1.0000
  H   H4149     1.0  0.86275  0.30581  0.61650  1.0000
  H   H4150     1.0  0.77454  0.16135  0.60752  1.0000
  H   H4151     1.0  0.87374  0.24454  0.61208  1.0000
  H   H4152     1.0  0.85145  0.25181  0.62093  1.0000
  H   H4153     1.0  0.86326  0.22999  0.62576  1.0000
  C   C2427     1.0  0.76889  0.25849  0.64935  1.0000
  C   C2428     1.0  0.78656  0.26361  0.64883  1.0000
  C   C2429     1.0  0.74197  0.24530  0.64128  1.0000
  H   H4154     1.0  0.75847  0.26395  0.65699  1.0000
  H   H4155     1.0  0.76456  0.26618  0.64044  1.0000
  H   H4156     1.0  0.78386  0.27818  0.64794  1.0000
  H   H4157     1.0  0.79182  0.25739  0.65756  1.0000
  H   H4158     1.0  0.79705  0.26050  0.64045  1.0000
  H   H4159     1.0  0.74961  0.24071  0.63249  1.0000
  H   H4160     1.0  0.73930  0.25995  0.63959  1.0000
  H   H4161     1.0  0.75342  0.23395  0.67780  1.0000
  N   N169      1.0  0.83707  0.16534  0.66243  1.0000
  C   C2430     1.0  0.85457  0.16889  0.66315  1.0000
  C   C2431     1.0  0.83117  0.17818  0.65100  1.0000
  C   C2432     1.0  0.84090  0.14662  0.66057  1.0000
  C   C2433     1.0  0.82370  0.16749  0.67470  1.0000
  C   C2434     1.0  0.86472  0.15533  0.67287  1.0000
  C   C2435     1.0  0.82871  0.19796  0.65089  1.0000
  C   C2436     1.0  0.82600  0.14076  0.65732  1.0000
  C   C2437     1.0  0.80353  0.17122  0.67449  1.0000
  H   H4162     1.0  0.86410  0.16965  0.65378  1.0000
  H   H4163     1.0  0.85244  0.18197  0.66555  1.0000
  H   H4164     1.0  0.81839  0.17656  0.64970  1.0000
  H   H4165     1.0  0.84105  0.17548  0.64219  1.0000
  H   H4166     1.0  0.85291  0.14446  0.65282  1.0000
  H   H4167     1.0  0.84426  0.13682  0.66918  1.0000
  H   H4168     1.0  0.82641  0.15559  0.68234  1.0000
  H   H4169     1.0  0.82533  0.17875  0.67804  1.0000
  H   H4170     1.0  0.87608  0.16051  0.67348  1.0000
  H   H4171     1.0  0.85606  0.15305  0.68248  1.0000
  H   H4172     1.0  0.87080  0.14258  0.66978  1.0000
  H   H4173     1.0  0.82209  0.20611  0.64304  1.0000
  H   H4174     1.0  0.82014  0.20150  0.65984  1.0000
  H   H4175     1.0  0.84186  0.20170  0.64903  1.0000
  H   H4176     1.0  0.83123  0.12706  0.65565  1.0000
  H   H4177     1.0  0.82214  0.14893  0.64840  1.0000
  H   H4178     1.0  0.81416  0.14007  0.66527  1.0000
  H   H4179     1.0  0.79636  0.16384  0.68346  1.0000
  H   H4180     1.0  0.80042  0.16730  0.66679  1.0000
  H   H4181     1.0  0.79724  0.18543  0.67431  1.0000
  H   H4182     1.0  0.75079  0.22203  0.65505  1.0000
  C   C2438     1.0  0.75568  0.42936  0.77693  1.0000
  H   H4183     1.0  0.67901  0.17528  0.76807  1.0000
  H   H4184     1.0  0.76877  0.24608  0.77745  1.0000
  H   H4185     1.0  0.63695  0.36538  0.76588  1.0000
  H   H4186     1.0  0.71591  0.17052  0.60147  1.0000
  H   H4187     1.0  0.92473  0.12293  0.61942  1.0000
  H   H4188     1.0  0.73021  0.99847  0.60566  1.0000
  H   H4189     1.0  0.95457  0.36746  0.61008  1.0000
  H   H4190     1.0  0.75612  0.03924  0.65185  1.0000
  H   H4191     1.0  0.96579  0.23526  0.61946  1.0000
  H   H4192     1.0  0.65562  0.42201  0.77650  1.0000
  H   H4193     1.0  0.73914  0.11512  0.60389  1.0000
  H   H4194     1.0  0.79950  0.24327  0.77280  1.0000
  H   H4195     1.0  0.70728  0.06956  0.65007  1.0000
  H   H4196     1.0  0.62875  0.04401  0.61380  1.0000
  H   H4197     1.0  0.60967  0.07163  0.61220  1.0000
  H   H4198     1.0  0.91908  0.15641  0.61669  1.0000
  H   H4199     1.0  0.74741  0.07485  0.61322  1.0000
  H   H4200     1.0  0.95825  0.41359  0.59373  1.0000
  H   H4201     1.0  0.73619  0.32056  0.77055  1.0000
  H   H4202     1.0  0.96824  0.26091  0.62400  1.0000
  H   H4203     1.0  0.63525  0.08031  0.60842  1.0000
  C   C2439     1.0  0.71880  0.28425  0.77502  1.0000
  C   C2440     1.0  0.97226  0.38050  0.61441  1.0000
  C   C2441     1.0  0.64622  0.43070  0.77053  1.0000
  H   H4204     1.0  0.75855  0.43541  0.76665  1.0000
  H   H4205     1.0  0.90224  0.19646  0.59398  1.0000
  H   H4206     1.0  0.65193  0.42825  0.76081  1.0000
  H   H4207     1.0  0.74307  0.04191  0.60413  1.0000
  H   H4208     1.0  0.62869  0.41231  0.77518  1.0000
  H   H4209     1.0  0.64838  0.15831  0.59754  1.0000
  C   C2442     1.0  0.93012  0.14965  0.60997  1.0000
  H   H4210     1.0  0.73843  0.03003  0.64302  1.0000
  H   H4211     1.0  0.80677  0.36546  0.68131  1.0000
  C   C2443     1.0  0.78372  0.27203  0.75689  1.0000
  C   C2444     1.0  0.68071  0.31927  0.76646  1.0000
  H   H4212     1.0  0.62534  0.02191  0.59631  1.0000
  H   H4213     1.0  0.77379  0.04022  0.63813  1.0000
  H   H4214     1.0  0.60322  0.08459  0.59836  1.0000
  C   C2445     1.0  0.86915  0.16052  0.62407  1.0000
  C   C2446     1.0  0.89600  0.15006  0.59093  1.0000
  H   H4215     1.0  0.64437  0.03778  0.60026  1.0000
  S   S716      1.0  0.76743  0.37765  0.76814  1.0000
  H   H4216     1.0  0.84118  0.00169  0.60656  1.0000
  C   C2447     1.0  0.77180  0.36633  0.69761  1.0000
  H   H4217     1.0  0.76926  0.35281  0.68360  1.0000
  H   H4218     1.0  0.72066  0.07454  0.65853  1.0000
  H   H4219     1.0  0.77854  0.24198  0.63057  1.0000
  H   H4220     1.0  0.75305  0.12640  0.63065  1.0000
  C   C2448     1.0  0.70550  0.42252  0.76790  1.0000
  C   C2449     1.0  0.64557  0.33946  0.77805  1.0000
  H   H4221     1.0  0.77151  0.11103  0.60368  1.0000
  C   C2450     1.0  0.62127  0.02671  0.60530  1.0000
  H   H4222     1.0  0.62116  0.24431  0.76428  1.0000
  S   S717      1.0  0.73783  0.35897  0.76355  1.0000
  H   H4223     1.0  0.74454  0.04287  0.62719  1.0000
  C   C2451     1.0  0.69925  0.44023  0.76242  1.0000
  C   C2452     1.0  0.98584  0.19863  0.66658  1.0000
  N   N170      1.0  0.63542  0.19936  0.76544  1.0000
  C   C2453     1.0  0.65398  0.18825  0.76197  1.0000
  C   C2454     1.0  0.62542  0.20088  0.75536  1.0000
  C   C2455     1.0  0.61921  0.23073  0.76924  1.0000
  C   C2456     1.0  0.63707  0.21724  0.76631  1.0000
  H   H4224     1.0  0.60058  0.12428  0.59649  1.0000
  C   C2457     1.0  0.63125  0.21318  0.74248  1.0000
  H   H4225     1.0  0.98129  0.24491  0.63383  1.0000
  C   C2458     1.0  0.72823  0.31065  0.77514  1.0000
  H   H4226     1.0  0.65335  0.17542  0.76025  1.0000
  H   H4227     1.0  0.66144  0.19485  0.75284  1.0000
  H   H4228     1.0  0.61069  0.20533  0.75863  1.0000
  H   H4229     1.0  0.62699  0.18765  0.75331  1.0000
  H   H4230     1.0  0.89315  0.17774  0.60328  1.0000
  H   H4231     1.0  0.76697  0.29623  0.77015  1.0000
  C   C2459     1.0  0.79800  0.25652  0.77476  1.0000
  H   H4232     1.0  0.64587  0.22347  0.75768  1.0000
  H   H4233     1.0  0.73555  0.12883  0.64473  1.0000
  H   H4234     1.0  0.88318  0.30313  0.60488  1.0000
  H   H4235     1.0  0.75747  0.41495  0.77766  1.0000
  H   H4236     1.0  0.64569  0.20910  0.73822  1.0000
  H   H4237     1.0  0.62363  0.21253  0.73569  1.0000
  H   H4238     1.0  0.62825  0.22726  0.74321  1.0000
  H   H4239     1.0  0.66966  0.19618  0.77229  1.0000
  N   N171      1.0  0.99711  0.25956  0.61756  1.0000
  C   C2460     1.0  0.73768  0.00889  0.60460  1.0000
  H   H4240     1.0  0.70577  0.44590  0.75294  1.0000
  H   H4241     1.0  0.98971  0.39525  0.63894  1.0000
  H   H4242     1.0  0.78664  0.26000  0.74107  1.0000
  H   H4243     1.0  0.68858  0.26627  0.71063  1.0000
  H   H4244     1.0  0.68027  0.46457  0.76497  1.0000
  H   H4245     1.0  0.58643  0.05756  0.60086  1.0000
  H   H4246     1.0  0.72460  0.05225  0.65602  1.0000
  H   H4247     1.0  0.79649  0.38372  0.68874  1.0000
  N   N172      1.0  0.92454  0.15174  0.59769  1.0000
  C   C2461     1.0  0.62978  0.04246  0.60405  1.0000
  C   C2462     1.0  0.90558  0.18296  0.59989  1.0000
  Fe  Fe358     1.0  0.65490  0.27108  0.78452  1.0000
  C   C2463     1.0  0.78512  0.25576  0.75152  1.0000
  C   C2464     1.0  0.61780  0.30830  0.78005  1.0000
  N   N173      1.0  0.78130  0.26890  0.77109  1.0000
  H   H4248     1.0  0.75499  0.01275  0.61567  1.0000
  Fe  Fe359     1.0  0.69987  0.12074  0.59990  1.0000
  H   H4249     1.0  0.95553  0.26454  0.64833  1.0000
  H   H4250     1.0  0.78774  0.20389  0.64655  1.0000
  H   H4251     1.0  0.74495  0.15470  0.63919  1.0000
  H   H4252     1.0  0.70173  0.28199  0.70040  1.0000
  C   C2465     1.0  0.97045  0.24318  0.67109  1.0000
  S   S718      1.0  0.80759  0.13349  0.61675  1.0000
  C   C2466     1.0  0.95089  0.28110  0.66556  1.0000
  H   H4253     1.0  0.77941  0.35130  0.72013  1.0000
  C   C2467     1.0  0.72774  0.29615  0.70548  1.0000
  H   H4254     1.0  0.77608  0.21423  0.66428  1.0000
  C   C2468     1.0  0.78393  0.37749  0.71692  1.0000
  C   C2469     1.0  0.69092  0.27980  0.70894  1.0000
  C   C2470     1.0  0.76785  0.23440  0.67502  1.0000
  H   H4255     1.0  0.91287  0.12873  0.60166  1.0000
  H   H4256     1.0  0.93187  0.24606  0.64743  1.0000
  C   C2471     1.0  0.76923  0.36628  0.68444  1.0000
  H   H4257     1.0  0.94363  0.23912  0.67861  1.0000
  H   H4258     1.0  0.81746  0.32892  0.70932  1.0000
  S   S719      1.0  0.84011  0.10538  0.60293  1.0000
  C   C2472     1.0  0.78278  0.21384  0.63858  1.0000
  H   H4259     1.0  0.61479  0.23020  0.77960  1.0000
  N   N174      1.0  0.76979  0.23901  0.65097  1.0000
  H   H4260     1.0  0.78621  0.37616  0.72652  1.0000
  C   C2473     1.0  0.73857  0.12746  0.63474  1.0000
  S   S720      1.0  0.64580  0.25002  0.77965  1.0000
  H   H4261     1.0  0.98841  0.26130  0.64397  1.0000
  C   C2474     1.0  0.96669  0.37301  0.60510  1.0000
  H   H4262     1.0  0.76596  0.05552  0.61375  1.0000
  S   S721      1.0  0.72448  0.41024  0.75935  1.0000
  C   C2475     1.0  0.68318  0.02494  0.59627  1.0000
  C   C2476     1.0  0.67864  0.33674  0.77054  1.0000
  H   H4263     1.0  0.72721  0.43534  0.77786  1.0000
  H   H4264     1.0  0.90983  0.18467  0.60805  1.0000
  H   H4265     1.0  0.97228  0.38744  0.63641  1.0000
  C   C2477     1.0  0.98012  0.27791  0.59995  1.0000
  H   H4266     1.0  0.67033  0.32012  0.76126  1.0000
  N   N175      1.0  0.66245  0.34139  0.78080  1.0000
  H   H4267     1.0  0.78650  0.07310  0.64215  1.0000
  H   H4268     1.0  0.75485  0.26589  0.77122  1.0000
  H   H4269     1.0  0.74580  0.17753  0.60853  1.0000
  C   C2478     1.0  0.90852  0.14339  0.60049  1.0000
  H   H4270     1.0  0.72980  0.06788  0.63178  1.0000
  H   H4271     1.0  0.98524  0.23793  0.60759  1.0000
  H   H4272     1.0  0.97862  0.19852  0.67628  1.0000
  H   H4273     1.0  0.61131  0.19879  0.78026  1.0000
  Fe  Fe360     1.0  0.76709  0.35175  0.76402  1.0000
  H   H4274     1.0  0.67974  0.15814  0.58821  1.0000
  C   C2479     1.0  0.74566  0.16326  0.61262  1.0000
  H   H4275     1.0  0.74365  0.15862  0.60470  1.0000
  H   H4276     1.0  0.96307  0.38316  0.59684  1.0000
  H   H4277     1.0  0.79971  0.29791  0.75948  1.0000
  C   C2480     1.0  0.62532  0.19100  0.77811  1.0000
  H   H4278     1.0  0.76829  0.14025  0.61235  1.0000
  H   H4279     1.0  0.81038  0.26093  0.76872  1.0000
  H   H4280     1.0  0.64597  0.44477  0.77000  1.0000
  H   H4281     1.0  0.59236  0.42797  0.77369  1.0000
  C   C2481     1.0  0.64068  0.35112  0.76557  1.0000
  C   C2482     1.0  0.92215  0.27216  0.67411  1.0000
  C   C2483     1.0  0.94343  0.29912  0.65743  1.0000
  C   C2484     1.0  0.90958  0.25932  0.67674  1.0000
  H   H4282     1.0  0.95098  0.28356  0.67486  1.0000
  H   H4283     1.0  0.92167  0.27524  0.68332  1.0000
  H   H4284     1.0  0.91546  0.28459  0.66851  1.0000
  H   H4285     1.0  0.93024  0.30584  0.66234  1.0000
  H   H4286     1.0  0.95274  0.30812  0.65569  1.0000
  H   H4287     1.0  0.90708  0.25809  0.66779  1.0000
  H   H4288     1.0  0.89630  0.26491  0.68228  1.0000
  H   H4289     1.0  0.91435  0.24609  0.68243  1.0000
  C   C2485     1.0  0.71377  0.17399  0.62082  1.0000
  H   H4290     1.0  0.76189  0.35918  0.70482  1.0000
  H   H4291     1.0  0.86260  0.17213  0.61813  1.0000
  S   S722      1.0  0.70941  0.09900  0.61530  1.0000
  C   C2486     1.0  0.75109  0.23633  0.65262  1.0000
  C   C2487     1.0  0.78939  0.35900  0.71368  1.0000
  H   H4292     1.0  0.97017  0.26959  0.60175  1.0000
  H   H4293     1.0  0.97490  0.23052  0.67759  1.0000
  C   C2488     1.0  0.80324  0.36943  0.69062  1.0000
  N   N176      1.0  0.73045  0.16085  0.62400  1.0000
  H   H4294     1.0  0.98752  0.22298  0.62244  1.0000
  H   H4295     1.0  0.70277  0.17444  0.62944  1.0000
  S   S723      1.0  0.63396  0.12110  0.60333  1.0000
  Fe  Fe361     1.0  0.81069  0.11637  0.60329  1.0000
  H   H4296     1.0  0.76940  0.38318  0.71738  1.0000
  H   H4297     1.0  0.60134  0.32411  0.76677  1.0000
  C   C2489     1.0  0.94018  0.24436  0.65437  1.0000
  H   H4298     1.0  0.73545  0.45233  0.78005  1.0000
  S   S724      1.0  0.85153  0.14260  0.61566  1.0000
  C   C2490     1.0  0.78208  0.23293  0.63940  1.0000
  H   H4299     1.0  0.83659  0.01885  0.63409  1.0000
  C   C2491     1.0  0.99660  0.34156  0.63827  1.0000
  C   C2492     1.0  0.60360  0.32182  0.77622  1.0000
  H   H4300     1.0  0.67886  0.34742  0.76181  1.0000
  H   H4301     1.0  0.64410  0.21586  0.77398  1.0000
  N   N177      1.0  0.75384  0.06472  0.63888  1.0000
  C   C2493     1.0  0.75804  0.07099  0.64910  1.0000
  C   C2494     1.0  0.73409  0.07184  0.63902  1.0000
  C   C2495     1.0  0.76472  0.07274  0.62640  1.0000
  C   C2496     1.0  0.75902  0.04472  0.64144  1.0000
  C   C2497     1.0  0.93538  0.13049  0.61744  1.0000
  C   C2498     1.0  0.72113  0.06654  0.65171  1.0000
  C   C2499     1.0  0.76148  0.06966  0.61431  1.0000
  C   C2500     1.0  0.74956  0.03512  0.63574  1.0000
  H   H4302     1.0  0.75382  0.08572  0.64776  1.0000
  H   H4303     1.0  0.75038  0.06559  0.65862  1.0000
  C   C2501     1.0  0.61126  0.12158  0.58844  1.0000
  H   H4304     1.0  0.58908  0.05353  0.61700  1.0000
  H   H4305     1.0  0.77316  0.99200  0.59668  1.0000
  C   C2502     1.0  0.76512  0.26059  0.77713  1.0000
  C   C2503     1.0  0.87051  0.01488  0.59979  1.0000
  H   H4306     1.0  0.60813  0.22877  0.76589  1.0000
  N   N178      1.0  0.98708  0.39080  0.60917  1.0000
  H   H4307     1.0  0.66116  0.36913  0.77186  1.0000
  H   H4308     1.0  0.64633  0.32543  0.77798  1.0000
  H   H4309     1.0  0.81788  0.00043  0.63117  1.0000
  H   H4310     1.0  0.97422  0.28896  0.60495  1.0000
  H   H4311     1.0  0.79040  0.30890  0.77229  1.0000
  H   H4312     1.0  0.89983  0.14552  0.60975  1.0000
  H   H4313     1.0  0.62871  0.34767  0.76424  1.0000
  H   H4314     1.0  0.66700  0.18639  0.59521  1.0000
  C   C2504     1.0  0.99522  0.39029  0.62002  1.0000
  C   C2505     1.0  0.74839  0.04363  0.59376  1.0000
  H   H4315     1.0  0.76573  0.43191  0.78106  1.0000
  C   C2506     1.0  0.76562  0.12077  0.59636  1.0000
  C   C2507     1.0  0.90878  0.25677  0.58915  1.0000
  H   H4316     1.0  0.98969  0.41831  0.60214  1.0000
  C   C2508     1.0  0.69691  0.41524  0.78012  1.0000
  C   C2509     1.0  0.97272  0.41399  0.59150  1.0000
  C   C2510     1.0  0.99526  0.27464  0.62380  1.0000
  C   C2511     1.0  0.63710  0.07056  0.59130  1.0000
  H   H4317     1.0  0.60672  0.45721  0.77799  1.0000
  C   C2512     1.0  0.66061  0.36036  0.78146  1.0000
  H   H4318     1.0  0.88351  0.15914  0.59466  1.0000
  S   S725      1.0  0.76311  0.33779  0.78453  1.0000
  H   H4319     1.0  0.86407  0.02669  0.59346  1.0000
  H   H4320     1.0  0.75694  0.05358  0.59109  1.0000
  Fe  Fe362     1.0  0.73385  0.34678  0.78430  1.0000
  H   H4321     1.0  0.97431  0.42750  0.58606  1.0000
  C   C2513     1.0  0.73636  0.43784  0.78287  1.0000
  C   C2514     1.0  0.92074  0.17133  0.59190  1.0000
  C   C2515     1.0  0.67668  0.44379  0.78162  1.0000
  C   C2516     1.0  0.75993  0.02616  0.59014  1.0000
  H   H4322     1.0  0.58142  0.44505  0.78264  1.0000
  C   C2517     1.0  0.94032  0.14247  0.58911  1.0000
  H   H4323     1.0  0.52835  0.29856  0.78318  1.0000
  H   H4324     1.0  0.93305  0.17673  0.58995  1.0000
  C   C2518     1.0  0.84542  0.99411  0.59902  1.0000
  C   C2519     1.0  0.76366  0.99484  0.59030  1.0000
  C   C2520     1.0  0.62923  0.11910  0.58925  1.0000
  H   H4325     1.0  0.70141  0.40147  0.78430  1.0000
  C   C2521     1.0  0.58672  0.43063  0.78334  1.0000
  H   H4326     1.0  0.94394  0.12812  0.59339  1.0000
  C   C2522     1.0  0.64418  0.16932  0.58971  1.0000
  H   H4327     1.0  0.73717  0.04936  0.58875  1.0000
  C   C2523     1.0  0.69203  0.05827  0.58932  1.0000
  H   H4328     1.0  0.89135  0.13861  0.59006  1.0000
  C   C2524     1.0  0.00183  0.38197  0.59970  1.0000
  C   C2525     1.0  0.83931  0.00685  0.58723  1.0000
  C   C2526     1.0  0.62556  0.16786  0.58867  1.0000
  H   H4329     1.0  0.77380  0.28632  0.78456  1.0000
  C   C2527     1.0  0.59230  0.33235  0.78462  1.0000
  H   H4330     1.0  0.60851  0.04867  0.58675  1.0000
  H   H4331     1.0  0.78861  0.39175  0.78515  1.0000
  H   H4332     1.0  0.69569  0.07101  0.58647  1.0000
  H   H4333     1.0  0.63195  0.08408  0.58613  1.0000
  H   H4334     1.0  0.54266  0.27143  0.78560  1.0000
  H   H4335     1.0  0.95242  0.14791  0.58783  1.0000
  H   H4336     1.0  0.73088  0.99080  0.58802  1.0000
  H   H4337     1.0  0.62453  0.45567  0.78518  1.0000
  C   C2528     1.0  0.90501  0.39023  0.58587  1.0000
  C   C2529     1.0  0.77635  0.13095  0.58664  1.0000
  H   H4338     1.0  0.68928  0.18607  0.58618  1.0000
  C   C2530     1.0  0.73963  0.13568  0.58691  1.0000
  S   S726      1.0  0.71675  0.13943  0.58653  1.0000
  S   S727      1.0  0.79945  0.12838  0.58574  1.0000
  Fe  Fe363     1.0  0.55737  0.11312  0.91916  1.0000
  S   S728      1.0  0.54736  0.13212  0.93222  1.0000
  S   S729      1.0  0.55918  0.12102  0.89802  1.0000
  Fe  Fe364     1.0  0.55996  0.08060  0.94082  1.0000
  S   S730      1.0  0.55015  0.09692  0.95579  1.0000
  H   H4339     1.0  0.66299  0.43883  0.89352  1.0000
  Fe  Fe365     1.0  0.53022  0.11305  0.94397  1.0000
  H   H4340     1.0  0.63332  0.22346  0.80155  1.0000
  Fe  Fe366     1.0  0.56826  0.11449  0.94286  1.0000
  S   S731      1.0  0.58579  0.12735  0.94882  1.0000
  S   S732      1.0  0.53834  0.09530  0.93015  1.0000
  S   S733      1.0  0.57994  0.09691  0.92870  1.0000
  Fe  Fe367     1.0  0.91878  0.44859  0.89524  1.0000
  S   S734      1.0  0.89650  0.43494  0.90727  1.0000
  S   S735      1.0  0.94449  0.43350  0.88508  1.0000
  H   H4341     1.0  0.71388  0.46885  0.79563  1.0000
  S   S736      1.0  0.87560  0.47352  0.91394  1.0000
  H   H4342     1.0  0.95219  0.42889  0.95394  1.0000
  Fe  Fe368     1.0  0.89586  0.45041  0.92145  1.0000
  Fe  Fe369     1.0  0.87802  0.45918  0.89863  1.0000
  S   S737      1.0  0.85111  0.46178  0.89386  1.0000
  S   S738      1.0  0.91956  0.46196  0.91008  1.0000
  S   S739      1.0  0.90038  0.47164  0.88540  1.0000
  H   H4343     1.0  0.69803  0.29895  0.80221  1.0000
  H   H4344     1.0  0.56128  0.15137  0.90658  1.0000
  Fe  Fe370     1.0  0.62881  0.42913  0.83280  1.0000
  S   S740      1.0  0.62475  0.45749  0.82217  1.0000
  S   S741      1.0  0.61152  0.40892  0.83698  1.0000
  Fe  Fe371     1.0  0.66712  0.42850  0.83440  1.0000
  S   S742      1.0  0.66640  0.45645  0.82365  1.0000
  S   S743      1.0  0.69091  0.41001  0.84152  1.0000
  Fe  Fe372     1.0  0.63868  0.46224  0.83565  1.0000
  H   H4345     1.0  0.55408  0.25542  0.79660  1.0000
  Fe  Fe373     1.0  0.65278  0.44931  0.81115  1.0000
  H   H4346     1.0  0.63522  0.45753  0.89224  1.0000
  S   S744      1.0  0.64027  0.43442  0.84741  1.0000
  S   S745      1.0  0.65597  0.42081  0.82086  1.0000
  H   H4347     1.0  0.65295  0.12799  0.85175  1.0000
  S   S746      1.0  0.55957  0.36235  0.81350  1.0000
  H   H4348     1.0  0.58196  0.13320  0.83963  1.0000
  C   C2531     1.0  0.68254  0.42589  0.78699  1.0000
  S   S747      1.0  0.51566  0.37617  0.82252  1.0000
  H   H4349     1.0  0.74587  0.46093  0.79259  1.0000
  Fe  Fe374     1.0  0.53954  0.38804  0.81125  1.0000
  S   S748      1.0  0.54464  0.41273  0.81475  1.0000
  Fe  Fe375     1.0  0.53568  0.35031  0.82321  1.0000
  S   S749      1.0  0.53676  0.32847  0.84053  1.0000
  C   C2532     1.0  0.95167  0.44079  0.92914  1.0000
  S   S750      1.0  0.53166  0.34518  0.80563  1.0000
  H   H4350     1.0  0.84038  0.46843  0.83820  1.0000
  C   C2533     1.0  0.70758  0.28499  0.78694  1.0000
  H   H4351     1.0  0.50353  0.27410  0.81421  1.0000
  H   H4352     1.0  0.60814  0.14469  0.97898  1.0000
  H   H4353     1.0  0.88447  0.47982  0.96384  1.0000
  S   S751      1.0  0.77032  0.36697  0.80524  1.0000
  H   H4354     1.0  0.51842  0.11192  0.97463  1.0000
  H   H4355     1.0  0.50676  0.13045  0.92182  1.0000
  H   H4356     1.0  0.64100  0.32280  0.80701  1.0000
  C   C2534     1.0  0.60955  0.31608  0.80057  1.0000
  Fe  Fe376     1.0  0.56516  0.23638  0.82741  1.0000
  H   H4357     1.0  0.75819  0.45256  0.80455  1.0000
  S   S752      1.0  0.57659  0.26052  0.81839  1.0000
  Fe  Fe377     1.0  0.55346  0.20893  0.85066  1.0000
  S   S753      1.0  0.54940  0.19195  0.83917  1.0000
  S   S754      1.0  0.55072  0.20236  0.87185  1.0000
  Fe  Fe378     1.0  0.57518  0.19777  0.82631  1.0000
  Fe  Fe379     1.0  0.53646  0.21786  0.82805  1.0000
  C   C2535     1.0  0.67225  0.44727  0.88719  1.0000
  S   S755      1.0  0.58042  0.21260  0.83865  1.0000
  S   S756      1.0  0.53849  0.23453  0.84053  1.0000
  Fe  Fe380     1.0  0.76726  0.44589  0.84953  1.0000
  S   S757      1.0  0.76813  0.46322  0.83018  1.0000
  S   S758      1.0  0.73990  0.44213  0.86079  1.0000
  Fe  Fe381     1.0  0.80767  0.44001  0.84742  1.0000
  S   S759      1.0  0.81128  0.45682  0.82774  1.0000
  S   S760      1.0  0.83353  0.42798  0.85448  1.0000
  Fe  Fe382     1.0  0.78660  0.47538  0.83562  1.0000
  H   H4358     1.0  0.98924  0.41691  0.96701  1.0000
  Fe  Fe383     1.0  0.79250  0.44275  0.82447  1.0000
  S   S761      1.0  0.79828  0.43366  0.80610  1.0000
  S   S762      1.0  0.78406  0.45943  0.85550  1.0000
  S   S763      1.0  0.79053  0.42445  0.84359  1.0000
  H   H4359     1.0  0.56688  0.01378  0.95209  1.0000
  C   C2536     1.0  0.61229  0.45044  0.78659  1.0000
  H   H4360     1.0  0.63908  0.12289  0.84368  1.0000
  H   H4361     1.0  0.67825  0.32865  0.79518  1.0000
  H   H4362     1.0  0.69979  0.27502  0.79166  1.0000
  H   H4363     1.0  0.62287  0.46124  0.88029  1.0000
  C   C2537     1.0  0.67509  0.36382  0.78681  1.0000
  H   H4364     1.0  0.95789  0.38991  0.95270  1.0000
  H   H4365     1.0  0.59251  0.16910  0.87462  1.0000
  C   C2538     1.0  0.50380  0.28583  0.80614  1.0000
  H   H4366     1.0  0.64723  0.36566  0.78704  1.0000
  H   H4367     1.0  0.61745  0.02271  0.91919  1.0000
  C   C2539     1.0  0.91926  0.45920  0.96525  1.0000
  H   H4368     1.0  0.97746  0.45208  0.97595  1.0000
  C   C2540     1.0  0.60047  0.42295  0.79194  1.0000
  H   H4369     1.0  0.69571  0.42478  0.88640  1.0000
  C   C2541     1.0  0.95681  0.45624  0.93216  1.0000
  C   C2542     1.0  0.77765  0.38589  0.80520  1.0000
  C   C2543     1.0  0.78647  0.39562  0.79405  1.0000
  C   C2544     1.0  0.79295  0.41011  0.79447  1.0000
  C   C2545     1.0  0.79024  0.41524  0.80598  1.0000
  C   C2546     1.0  0.78118  0.40567  0.81710  1.0000
  C   C2547     1.0  0.77511  0.39092  0.81672  1.0000
  H   H4370     1.0  0.82293  0.39598  0.84902  1.0000
  C   C2548     1.0  0.83178  0.48141  0.83981  1.0000
  H   H4371     1.0  0.77875  0.40964  0.82599  1.0000
  H   H4372     1.0  0.76823  0.38347  0.82538  1.0000
  C   C2549     1.0  0.96442  0.43154  0.88997  1.0000
  H   H4373     1.0  0.61853  0.12166  0.88217  1.0000
  C   C2550     1.0  0.96785  0.44532  0.89386  1.0000
  H   H4374     1.0  0.59804  0.13489  0.88860  1.0000
  H   H4375     1.0  0.58582  0.13815  0.87197  1.0000
  C   C2551     1.0  0.54891  0.30923  0.83509  1.0000
  C   C2552     1.0  0.55987  0.31076  0.82294  1.0000
  C   C2553     1.0  0.56850  0.29567  0.81800  1.0000
  C   C2554     1.0  0.56611  0.27895  0.82515  1.0000
  C   C2555     1.0  0.55560  0.27724  0.83747  1.0000
  C   C2556     1.0  0.54707  0.29243  0.84249  1.0000
  H   H4376     1.0  0.56162  0.32361  0.81725  1.0000
  H   H4377     1.0  0.57682  0.29701  0.80852  1.0000
  H   H4378     1.0  0.55394  0.26429  0.84309  1.0000
  H   H4379     1.0  0.53862  0.29119  0.85190  1.0000
  C   C2557     1.0  0.55867  0.04574  0.92620  1.0000
  H   H4380     1.0  0.51997  0.12095  0.90845  1.0000
  H   H4381     1.0  0.97110  0.44656  0.96370  1.0000
  H   H4382     1.0  0.64225  0.34558  0.80419  1.0000
  H   H4383     1.0  0.52236  0.27999  0.83067  1.0000
  C   C2558     1.0  0.50949  0.03544  0.93982  1.0000
  C   C2559     1.0  0.52090  0.06074  0.98555  1.0000
  S   S764      1.0  0.89316  0.43809  0.94235  1.0000
  H   H4384     1.0  0.96735  0.40004  0.96129  1.0000
  H   H4385     1.0  0.98640  0.48057  0.98108  1.0000
  H   H4386     1.0  0.56697  0.11113  0.97416  1.0000
  C   C2560     1.0  0.56262  0.03805  0.93815  1.0000
  H   H4387     1.0  0.92466  0.47912  0.94837  1.0000
  H   H4388     1.0  0.69682  0.45730  0.86494  1.0000
  S   S765      1.0  0.65907  0.45775  0.78994  1.0000
  H   H4389     1.0  0.72439  0.40913  0.79303  1.0000
  C   C2561     1.0  0.90975  0.46198  0.94579  1.0000
  H   H4390     1.0  0.63025  0.15455  0.84348  1.0000
  H   H4391     1.0  0.53522  0.13199  0.96563  1.0000
  C   C2562     1.0  0.70712  0.41862  0.84458  1.0000
  C   C2563     1.0  0.70831  0.43642  0.83990  1.0000
  C   C2564     1.0  0.71965  0.44341  0.84407  1.0000
  C   C2565     1.0  0.72949  0.43268  0.85309  1.0000
  C   C2566     1.0  0.72887  0.41475  0.85728  1.0000
  C   C2567     1.0  0.71794  0.40768  0.85288  1.0000
  H   H4392     1.0  0.70004  0.44492  0.83346  1.0000
  H   H4393     1.0  0.72011  0.45729  0.84080  1.0000
  H   H4394     1.0  0.73638  0.40643  0.86428  1.0000
  H   H4395     1.0  0.71712  0.39390  0.85647  1.0000
  C   C2568     1.0  0.59427  0.41120  0.82910  1.0000
  C   C2569     1.0  0.59269  0.39635  0.82549  1.0000
  C   C2570     1.0  0.57788  0.39689  0.82065  1.0000
  C   C2571     1.0  0.56422  0.41214  0.81971  1.0000
  C   C2572     1.0  0.56600  0.42717  0.82305  1.0000
  C   C2573     1.0  0.58104  0.42676  0.82765  1.0000
  H   H4396     1.0  0.60281  0.38425  0.82667  1.0000
  H   H4397     1.0  0.57692  0.38538  0.81789  1.0000
  H   H4398     1.0  0.55553  0.43906  0.82231  1.0000
  H   H4399     1.0  0.58199  0.43820  0.83059  1.0000
  C   C2574     1.0  0.63368  0.20941  0.80450  1.0000
  H   H4400     1.0  0.66731  0.48498  0.85336  1.0000
  H   H4401     1.0  0.63673  0.43999  0.88442  1.0000
  H   H4402     1.0  0.93099  0.42296  0.92345  1.0000
  H   H4403     1.0  0.53121  0.40356  0.84902  1.0000
  S   S766      1.0  0.71447  0.32894  0.79432  1.0000
  S   S767      1.0  0.59800  0.17717  0.81889  1.0000
  C   C2575     1.0  0.99213  0.40268  0.93482  1.0000
  C   C2576     1.0  0.58287  0.14079  0.84630  1.0000
  H   H4404     1.0  0.60890  0.14610  0.83637  1.0000
  H   H4405     1.0  0.64891  0.47545  0.87279  1.0000
  H   H4406     1.0  0.61541  0.14547  0.87859  1.0000
  H   H4407     1.0  0.57538  0.13530  0.85580  1.0000
  C   C2577     1.0  0.59650  0.16500  0.85536  1.0000
  H   H4408     1.0  0.67818  0.46533  0.84715  1.0000
  C   C2578     1.0  0.79911  0.25292  0.78877  1.0000
  Fe  Fe384     1.0  0.67024  0.23190  0.78589  1.0000
  H   H4409     1.0  0.60483  0.21281  0.81031  1.0000
  H   H4410     1.0  0.55756  0.05984  0.92253  1.0000
  C   C2579     1.0  0.84663  0.45148  0.88325  1.0000
  C   C2580     1.0  0.86025  0.44096  0.87589  1.0000
  C   C2581     1.0  0.85606  0.43370  0.86719  1.0000
  C   C2582     1.0  0.83829  0.43698  0.86570  1.0000
  C   C2583     1.0  0.82470  0.44740  0.87313  1.0000
  C   C2584     1.0  0.82886  0.45459  0.88185  1.0000
  H   H4411     1.0  0.87397  0.43843  0.87692  1.0000
  H   H4412     1.0  0.86665  0.42554  0.86156  1.0000
  H   H4413     1.0  0.81096  0.44992  0.87218  1.0000
  H   H4414     1.0  0.81826  0.46273  0.88749  1.0000
  H   H4415     1.0  0.69100  0.43473  0.89968  1.0000
  H   H4416     1.0  0.58183  0.16591  0.85712  1.0000
  H   H4417     1.0  0.90924  0.46875  0.93612  1.0000
  C   C2585     1.0  0.54909  0.03089  0.97785  1.0000
  C   C2586     1.0  0.61791  0.18514  0.81320  1.0000
  H   H4418     1.0  0.95814  0.45775  0.89372  1.0000
  H   H4419     1.0  0.51567  0.99974  0.92354  1.0000
  S   S768      1.0  0.62943  0.48508  0.84585  1.0000
  C   C2587     1.0  0.66523  0.32885  0.79314  1.0000
  C   C2588     1.0  0.95546  0.40090  0.95754  1.0000
  H   H4420     1.0  0.57616  0.15471  0.84292  1.0000
  C   C2589     1.0  0.58649  0.12720  0.96445  1.0000
  C   C2590     1.0  0.59809  0.13655  0.96595  1.0000
  H   H4421     1.0  0.53603  0.00089  0.96843  1.0000
  C   C2591     1.0  0.59862  0.17481  0.86474  1.0000
  C   C2592     1.0  0.90205  0.44718  0.95131  1.0000
  N   N179      1.0  0.61707  0.43059  0.78789  1.0000
  H   H4422     1.0  0.60646  0.14317  0.95768  1.0000
  H   H4423     1.0  0.56128  0.39836  0.84700  1.0000
  C   C2593     1.0  0.91851  0.46782  0.95271  1.0000
  C   C2594     1.0  0.51302  0.29265  0.82789  1.0000
  C   C2595     1.0  0.55517  0.14389  0.89144  1.0000
  C   C2596     1.0  0.55056  0.14998  0.87956  1.0000
  C   C2597     1.0  0.54870  0.16798  0.87363  1.0000
  C   C2598     1.0  0.55148  0.18000  0.87953  1.0000
  C   C2599     1.0  0.55556  0.17400  0.89158  1.0000
  C   C2600     1.0  0.55747  0.15597  0.89751  1.0000
  H   H4424     1.0  0.54880  0.14071  0.87480  1.0000
  H   H4425     1.0  0.54517  0.17250  0.86449  1.0000
  H   H4426     1.0  0.55771  0.18325  0.89619  1.0000
  N   N180      1.0  0.67022  0.45177  0.87364  1.0000
  H   H4427     1.0  0.53081  0.25637  0.79832  1.0000
  H   H4428     1.0  0.65432  0.42141  0.87140  1.0000
  C   C2601     1.0  0.60294  0.99310  0.97056  1.0000
  H   H4429     1.0  0.84829  0.43311  0.81481  1.0000
  C   C2602     1.0  0.88773  0.48520  0.83538  1.0000
  C   C2603     1.0  0.98393  0.44299  0.89788  1.0000
  Fe  Fe385     1.0  0.89938  0.48389  0.90139  1.0000
  Fe  Fe386     1.0  0.55389  0.35958  0.79568  1.0000
  C   C2604     1.0  0.62083  0.30557  0.79221  1.0000
  H   H4430     1.0  0.63369  0.99434  0.92787  1.0000
  H   H4431     1.0  0.51314  0.36097  0.86484  1.0000
  H   H4432     1.0  0.50620  0.05830  0.96174  1.0000
  H   H4433     1.0  0.67367  0.43922  0.85806  1.0000
  H   H4434     1.0  0.55347  0.15173  0.96266  1.0000
  C   C2605     1.0  0.73584  0.48386  0.86718  1.0000
  H   H4435     1.0  0.52916  0.99627  0.93973  1.0000
  H   H4436     1.0  0.59739  0.01190  0.95384  1.0000
  H   H4437     1.0  0.61186  0.31409  0.80996  1.0000
  S   S769      1.0  0.67070  0.20404  0.79719  1.0000
  H   H4438     1.0  0.51784  0.34550  0.87882  1.0000
  C   C2606     1.0  0.65116  0.46114  0.87267  1.0000
  C   C2607     1.0  0.75496  0.26306  0.79057  1.0000
  C   C2608     1.0  0.99245  0.42643  0.97115  1.0000
  H   H4439     1.0  0.64384  0.39828  0.79100  1.0000
  H   H4440     1.0  0.51759  0.04942  0.98345  1.0000
  C   C2609     1.0  0.50946  0.32133  0.78851  1.0000
  H   H4441     1.0  0.96392  0.43558  0.97969  1.0000
  C   C2610     1.0  0.57577  0.11858  0.97524  1.0000
  H   H4442     1.0  0.63472  0.15895  0.81491  1.0000
  H   H4443     1.0  0.64866  0.46087  0.86344  1.0000
  C   C2611     1.0  0.52697  0.14560  0.96575  1.0000
  C   C2612     1.0  0.90230  0.43888  0.96402  1.0000
  C   C2613     1.0  0.50579  0.16524  0.97997  1.0000
  H   H4444     1.0  0.54278  0.16042  0.94940  1.0000
  C   C2614     1.0  0.63560  0.40238  0.79981  1.0000
  H   H4445     1.0  0.63135  0.19136  0.78585  1.0000
  H   H4446     1.0  0.59100  0.18871  0.86272  1.0000
  H   H4447     1.0  0.58024  0.38364  0.85303  1.0000
  C   C2615     1.0  0.99309  0.41330  0.89396  1.0000
  H   H4448     1.0  0.55349  0.04112  0.90957  1.0000
  C   C2616     1.0  0.62657  0.14561  0.85287  1.0000
  N   N181      1.0  0.73036  0.43164  0.79700  1.0000
  C   C2617     1.0  0.73118  0.41199  0.79950  1.0000
  H   H4449     1.0  0.95506  0.45522  0.94244  1.0000
  C   C2618     1.0  0.71114  0.44075  0.80151  1.0000
  C   C2619     1.0  0.74248  0.43430  0.80430  1.0000
  C   C2620     1.0  0.72280  0.40321  0.81309  1.0000
  N   N182      1.0  0.60670  0.14603  0.85611  1.0000
  H   H4450     1.0  0.52423  0.12645  0.88729  1.0000
  C   C2621     1.0  0.74504  0.45328  0.80244  1.0000
  H   H4451     1.0  0.74442  0.25506  0.79398  1.0000
  H   H4452     1.0  0.74528  0.40445  0.79751  1.0000
  H   H4453     1.0  0.86390  0.47685  0.86354  1.0000
  H   H4454     1.0  0.69140  0.46570  0.80001  1.0000
  H   H4455     1.0  0.96624  0.48285  0.96838  1.0000
  H   H4456     1.0  0.70805  0.43980  0.81192  1.0000
  H   H4457     1.0  0.73748  0.42998  0.81467  1.0000
  H   H4458     1.0  0.75592  0.42551  0.80252  1.0000
  H   H4459     1.0  0.72498  0.38875  0.81374  1.0000
  H   H4460     1.0  0.72915  0.40464  0.82032  1.0000
  H   H4461     1.0  0.70808  0.40823  0.81550  1.0000
  C   C2622     1.0  0.61754  0.20337  0.80953  1.0000
  C   C2623     1.0  0.54039  0.15794  0.95989  1.0000
  C   C2624     1.0  0.97958  0.42119  0.93415  1.0000
  H   H4462     1.0  0.51581  0.38981  0.85867  1.0000
  S   S770      1.0  0.67777  0.25233  0.79246  1.0000
  C   C2625     1.0  0.70667  0.29852  0.79294  1.0000
  H   H4463     1.0  0.73425  0.46061  0.80896  1.0000
  S   S771      1.0  0.73082  0.37218  0.79015  1.0000
  S   S772      1.0  0.53542  0.38631  0.79256  1.0000
  H   H4464     1.0  0.51789  0.08551  0.95661  1.0000
  H   H4465     1.0  0.79283  0.26449  0.79320  1.0000
  H   H4466     1.0  0.95530  0.44252  0.91869  1.0000
  C   C2626     1.0  0.60888  0.13438  0.87991  1.0000
  H   H4467     1.0  0.98793  0.39290  0.94343  1.0000
  C   C2627     1.0  0.97728  0.41571  0.88980  1.0000
  C   C2628     1.0  0.67943  0.47416  0.85279  1.0000
  H   H4468     1.0  0.97481  0.40511  0.88668  1.0000
  H   H4469     1.0  0.60920  0.12494  0.84658  1.0000
  H   H4470     1.0  0.61270  0.17551  0.86383  1.0000
  C   C2629     1.0  0.63437  0.17303  0.81212  1.0000
  H   H4471     1.0  0.86996  0.46707  0.84467  1.0000
  C   C2630     1.0  0.53688  0.27726  0.80478  1.0000
  C   C2631     1.0  0.91084  0.44493  0.97102  1.0000
  S   S773      1.0  0.56627  0.05078  0.94741  1.0000
  N   N183      1.0  0.62202  0.25679  0.83276  1.0000
  C   C2632     1.0  0.60815  0.24531  0.83840  1.0000
  C   C2633     1.0  0.63452  0.25041  0.82133  1.0000
  C   C2634     1.0  0.61241  0.27540  0.82788  1.0000
  C   C2635     1.0  0.63235  0.25687  0.84223  1.0000
  C   C2636     1.0  0.61173  0.23005  0.84984  1.0000
  C   C2637     1.0  0.64518  0.23113  0.82375  1.0000
  C   C2638     1.0  0.60058  0.28594  0.83798  1.0000
  C   C2639     1.0  0.64572  0.26947  0.83773  1.0000
  H   H4472     1.0  0.59449  0.25306  0.84158  1.0000
  H   H4473     1.0  0.60613  0.23945  0.83107  1.0000
  H   H4474     1.0  0.64448  0.25883  0.81649  1.0000
  H   H4475     1.0  0.62686  0.25168  0.81399  1.0000
  H   H4476     1.0  0.62203  0.28363  0.82182  1.0000
  H   H4477     1.0  0.60393  0.27527  0.82146  1.0000
  H   H4478     1.0  0.62289  0.26033  0.85098  1.0000
  H   H4479     1.0  0.64006  0.24343  0.84563  1.0000
  H   H4480     1.0  0.62498  0.22104  0.84778  1.0000
  H   H4481     1.0  0.61056  0.23521  0.85832  1.0000
  H   H4482     1.0  0.60137  0.22199  0.85241  1.0000
  H   H4483     1.0  0.63626  0.22154  0.82663  1.0000
  H   H4484     1.0  0.65443  0.22854  0.81474  1.0000
  H   H4485     1.0  0.65371  0.22855  0.83067  1.0000
  H   H4486     1.0  0.59045  0.27902  0.84492  1.0000
  H   H4487     1.0  0.59310  0.29862  0.83312  1.0000
  H   H4488     1.0  0.60881  0.28947  0.84311  1.0000
  H   H4489     1.0  0.64068  0.28072  0.84264  1.0000
  H   H4490     1.0  0.64848  0.27513  0.82743  1.0000
  H   H4491     1.0  0.65889  0.26221  0.84009  1.0000
  C   C2640     1.0  0.63894  0.12720  0.85232  1.0000
  H   H4492     1.0  0.68121  0.47481  0.87137  1.0000
  H   H4493     1.0  0.96327  0.39573  0.93237  1.0000
  N   N184      1.0  0.51583  0.14666  0.97888  1.0000
  C   C2641     1.0  0.95018  0.41931  0.94918  1.0000
  H   H4494     1.0  0.53192  0.30602  0.81323  1.0000
  C   C2642     1.0  0.54101  0.26464  0.79570  1.0000
  H   H4495     1.0  0.93679  0.44311  0.93158  1.0000
  H   H4496     1.0  0.63062  0.15093  0.85954  1.0000
  C   C2643     1.0  0.59904  0.13743  0.97803  1.0000
  C   C2644     1.0  0.65045  0.17906  0.80745  1.0000
  C   C2645     1.0  0.56597  0.39038  0.85565  1.0000
  S   S774      1.0  0.93127  0.46647  0.97320  1.0000
  C   C2646     1.0  0.51903  0.30226  0.81403  1.0000
  H   H4497     1.0  0.96664  0.48278  0.94664  1.0000
  C   C2647     1.0  0.95723  0.40968  0.92859  1.0000
  C   C2648     1.0  0.65017  0.19723  0.80347  1.0000
  H   H4498     1.0  0.63516  0.11700  0.86083  1.0000
  H   H4499     1.0  0.66837  0.45956  0.89101  1.0000
  H   H4500     1.0  0.57503  0.42414  0.78750  1.0000
  H   H4501     1.0  0.61851  0.01084  0.95695  1.0000
  H   H4502     1.0  0.54590  0.15771  0.98234  1.0000
  H   H4503     1.0  0.67613  0.40755  0.87235  1.0000
  H   H4504     1.0  0.51093  0.28067  0.78640  1.0000
  C   C2649     1.0  0.87732  0.49012  0.98518  1.0000
  H   H4505     1.0  0.93536  0.42240  0.95020  1.0000
  H   H4506     1.0  0.53304  0.36709  0.84383  1.0000
  C   C2650     1.0  0.56416  0.01974  0.94275  1.0000
  H   H4507     1.0  0.89620  0.42751  0.96837  1.0000
  H   H4508     1.0  0.50511  0.99868  0.97475  1.0000
  C   C2651     1.0  0.62548  0.00215  0.93501  1.0000
  H   H4509     1.0  0.67610  0.42021  0.79641  1.0000
  H   H4510     1.0  0.50900  0.31492  0.81288  1.0000
  H   H4511     1.0  0.74708  0.47211  0.86763  1.0000
  C   C2652     1.0  0.68247  0.46434  0.86617  1.0000
  S   S775      1.0  0.63945  0.29025  0.79695  1.0000
  C   C2653     1.0  0.71685  0.31146  0.78700  1.0000
  H   H4512     1.0  0.73296  0.48384  0.84888  1.0000
  H   H4513     1.0  0.98168  0.42720  0.94135  1.0000
  C   C2654     1.0  0.60062  0.13449  0.86884  1.0000
  S   S776      1.0  0.56198  0.22181  0.81402  1.0000
  S   S777      1.0  0.51110  0.22249  0.82113  1.0000
  H   H4514     1.0  0.53553  0.17122  0.96212  1.0000
  H   H4515     1.0  0.66389  0.41756  0.88510  1.0000
  H   H4516     1.0  0.56557  0.39973  0.86148  1.0000
  C   C2655     1.0  0.67594  0.43566  0.86787  1.0000
  H   H4517     1.0  0.94401  0.39858  0.96565  1.0000
  H   H4518     1.0  0.66316  0.16961  0.80667  1.0000
  H   H4519     1.0  0.69066  0.43046  0.86659  1.0000
  H   H4520     1.0  0.60101  0.00970  0.92712  1.0000
  C   C2656     1.0  0.61094  0.01592  0.92866  1.0000
  H   H4521     1.0  0.89064  0.48084  0.98355  1.0000
  C   C2657     1.0  0.51497  0.99502  0.94369  1.0000
  H   H4522     1.0  0.60344  0.12040  0.86804  1.0000
  N   N185      1.0  0.83807  0.39079  0.82322  1.0000
  C   C2658     1.0  0.83717  0.40966  0.82374  1.0000
  C   C2659     1.0  0.82242  0.38477  0.83306  1.0000
  C   C2660     1.0  0.83644  0.39082  0.81009  1.0000
  C   C2661     1.0  0.85590  0.37982  0.82588  1.0000
  C   C2662     1.0  0.85042  0.41952  0.81324  1.0000
  C   C2663     1.0  0.82297  0.38320  0.84698  1.0000
  C   C2664     1.0  0.82935  0.37554  0.80855  1.0000
  C   C2665     1.0  0.85906  0.35965  0.82713  1.0000
  H   H4523     1.0  0.82348  0.41787  0.82325  1.0000
  H   H4524     1.0  0.83968  0.41035  0.83286  1.0000
  H   H4525     1.0  0.82091  0.37166  0.83257  1.0000
  H   H4526     1.0  0.80959  0.39389  0.83122  1.0000
  H   H4527     1.0  0.82713  0.40309  0.80639  1.0000
  H   H4528     1.0  0.84958  0.39111  0.80326  1.0000
  H   H4529     1.0  0.86708  0.38409  0.81818  1.0000
  H   H4530     1.0  0.85865  0.38221  0.83444  1.0000
  C   C2666     1.0  0.65029  0.33190  0.80498  1.0000
  H   H4531     1.0  0.86461  0.41312  0.81353  1.0000
  H   H4532     1.0  0.84802  0.42111  0.80367  1.0000
  H   H4533     1.0  0.83465  0.37308  0.84980  1.0000
  C   C2667     1.0  0.55253  0.04632  0.98204  1.0000
  H   H4534     1.0  0.81070  0.37889  0.85323  1.0000
  H   H4535     1.0  0.83699  0.36229  0.81225  1.0000
  C   C2668     1.0  0.59885  0.45735  0.79793  1.0000
  H   H4536     1.0  0.81487  0.37661  0.81304  1.0000
  H   H4537     1.0  0.86476  0.35605  0.81774  1.0000
  H   H4538     1.0  0.84692  0.35416  0.83175  1.0000
  H   H4539     1.0  0.86870  0.35279  0.83340  1.0000
  N   N186      1.0  0.55073  0.36560  0.85597  1.0000
  C   C2669     1.0  0.54181  0.35122  0.86504  1.0000
  C   C2670     1.0  0.56820  0.35650  0.84866  1.0000
  H   H4540     1.0  0.60335  0.45142  0.80695  1.0000
  C   C2671     1.0  0.55406  0.37709  0.86337  1.0000
  C   C2672     1.0  0.52513  0.39243  0.84942  1.0000
  C   C2673     1.0  0.58184  0.34440  0.85655  1.0000
  C   C2674     1.0  0.51262  0.99295  0.96633  1.0000
  C   C2675     1.0  0.50896  0.11547  0.98328  1.0000
  H   H4541     1.0  0.54215  0.34073  0.86014  1.0000
  H   H4542     1.0  0.54923  0.34439  0.87274  1.0000
  H   H4543     1.0  0.57523  0.36631  0.84138  1.0000
  H   H4544     1.0  0.56552  0.34822  0.84309  1.0000
  H   H4545     1.0  0.54826  0.38123  0.83707  1.0000
  H   H4546     1.0  0.74777  0.27702  0.79054  1.0000
  H   H4547     1.0  0.56376  0.99496  0.93880  1.0000
  H   H4548     1.0  0.56033  0.36893  0.87141  1.0000
  H   H4549     1.0  0.52195  0.10344  0.89180  1.0000
  H   H4550     1.0  0.66647  0.31494  0.79255  1.0000
  H   H4551     1.0  0.58520  0.45517  0.79907  1.0000
  H   H4552     1.0  0.59439  0.33949  0.84997  1.0000
  H   H4553     1.0  0.58555  0.35153  0.86233  1.0000
  H   H4554     1.0  0.57691  0.33254  0.86266  1.0000
  C   C2676     1.0  0.51764  0.11672  0.88598  1.0000
  H   H4555     1.0  0.55640  0.05630  0.97328  1.0000
  H   H4556     1.0  0.64442  0.39839  0.80674  1.0000
  H   H4557     1.0  0.69095  0.48044  0.84745  1.0000
  H   H4558     1.0  0.91123  0.43830  0.98075  1.0000
  C   C2677     1.0  0.53962  0.37602  0.84624  1.0000
  H   H4559     1.0  0.96445  0.41243  0.91847  1.0000
  C   C2678     1.0  0.51337  0.02158  0.95176  1.0000
  H   H4560     1.0  0.59338  0.42461  0.80164  1.0000
  C   C2679     1.0  0.55648  0.03511  0.91884  1.0000
  N   N187      1.0  0.50685  0.00463  0.95445  1.0000
  H   H4561     1.0  0.60028  0.17301  0.84562  1.0000
  H   H4562     1.0  0.92946  0.40687  0.93837  1.0000
  C   C2680     1.0  0.56221  0.00909  0.93532  1.0000
  C   C2681     1.0  0.66679  0.41991  0.87467  1.0000
  H   H4563     1.0  0.61566  0.16739  0.78914  1.0000
  C   C2682     1.0  0.97526  0.44095  0.97292  1.0000
  H   H4564     1.0  0.86113  0.48511  0.96746  1.0000
  H   H4565     1.0  0.93747  0.39994  0.92362  1.0000
  N   N188      1.0  0.95981  0.42230  0.93545  1.0000
  C   C2683     1.0  0.93760  0.41008  0.92864  1.0000
  C   C2684     1.0  0.50536  0.00057  0.93245  1.0000
  H   H4566     1.0  0.53680  0.31029  0.79049  1.0000
  H   H4567     1.0  0.51072  0.20230  0.84658  1.0000
  C   C2685     1.0  0.55833  0.01675  0.92335  1.0000
  C   C2686     1.0  0.60285  0.13924  0.84600  1.0000
  Fe  Fe387     1.0  0.51341  0.37196  0.80404  1.0000
  N   N189      1.0  0.99998  0.41749  0.98285  1.0000
  C   C2687     1.0  0.83682  0.48749  0.85005  1.0000
  C   C2688     1.0  0.52213  0.35701  0.87165  1.0000
  H   H4568     1.0  0.97432  0.39988  0.98199  1.0000
  S   S778      1.0  0.55555  0.00380  0.91388  1.0000
  N   N190      1.0  0.52081  0.29241  0.80386  1.0000
  H   H4569     1.0  0.67402  0.35759  0.79703  1.0000
  H   H4570     1.0  0.99349  0.39754  0.92628  1.0000
  C   C2689     1.0  0.60946  0.00246  0.95674  1.0000
  C   C2690     1.0  0.63586  0.45432  0.88309  1.0000
  H   H4571     1.0  0.70138  0.44590  0.88457  1.0000
  H   H4572     1.0  0.89669  0.47627  0.82914  1.0000
  C   C2691     1.0  0.59531  0.32937  0.79679  1.0000
  H   H4573     1.0  0.59678  0.00332  0.97635  1.0000
  H   H4574     1.0  0.89381  0.48258  0.84371  1.0000
  H   H4575     1.0  0.60392  0.02645  0.93407  1.0000
  H   H4576     1.0  0.62032  0.42499  0.80727  1.0000
  H   H4577     1.0  0.59763  0.47189  0.79627  1.0000
  H   H4578     1.0  0.94801  0.46882  0.92842  1.0000
  H   H4579     1.0  0.83657  0.47610  0.85826  1.0000
  H   H4580     1.0  0.86529  0.48093  0.83035  1.0000
  H   H4581     1.0  0.65646  0.32918  0.81329  1.0000
  H   H4582     1.0  0.52030  0.36767  0.87672  1.0000
  H   H4583     1.0  0.52815  0.01889  0.95050  1.0000
  H   H4584     1.0  0.58684  0.33745  0.80326  1.0000
  H   H4585     1.0  0.51268  0.30129  0.83424  1.0000
  H   H4586     1.0  0.52369  0.07010  0.97629  1.0000
  H   H4587     1.0  0.70167  0.43393  0.79998  1.0000
  H   H4588     1.0  0.56214  0.02316  0.97350  1.0000
  H   H4589     1.0  0.62471  0.39492  0.80394  1.0000
  C   C2692     1.0  0.62821  0.42258  0.79784  1.0000
  C   C2693     1.0  0.69124  0.43766  0.88939  1.0000
  H   H4590     1.0  0.54924  0.28244  0.80321  1.0000
  H   H4591     1.0  0.50775  0.02816  0.95996  1.0000
  H   H4592     1.0  0.53554  0.26859  0.81440  1.0000
  H   H4593     1.0  0.97076  0.45741  0.92731  1.0000
  H   H4594     1.0  0.79995  0.41747  0.78583  1.0000
  H   H4595     1.0  0.54124  0.38475  0.86805  1.0000
  H   H4596     1.0  0.60400  0.40841  0.79248  1.0000
  H   H4597     1.0  0.51845  0.14748  0.95885  1.0000
  H   H4598     1.0  0.81782  0.47930  0.84331  1.0000
  C   C2694     1.0  0.70525  0.46040  0.79515  1.0000
  H   H4599     1.0  0.50860  0.33150  0.79376  1.0000
  H   H4600     1.0  0.63976  0.42907  0.79581  1.0000
  H   H4601     1.0  0.52271  0.11556  0.87592  1.0000
  H   H4602     1.0  0.98516  0.42907  0.92478  1.0000
  H   H4603     1.0  0.51693  0.39728  0.84206  1.0000
  H   H4604     1.0  0.51496  0.17417  0.97865  1.0000
  C   C2695     1.0  0.99642  0.42682  0.89811  1.0000
  H   H4605     1.0  0.98650  0.45357  0.90097  1.0000
  H   H4606     1.0  0.51687  0.03058  0.93107  1.0000
  C   C2696     1.0  0.52469  0.30511  0.79128  1.0000
  H   H4607     1.0  0.81344  0.24982  0.78940  1.0000
  H   H4608     1.0  0.72334  0.47877  0.87157  1.0000
  H   H4609     1.0  0.83042  0.37658  0.79831  1.0000
  Fe  Fe388     1.0  0.76064  0.36443  0.78867  1.0000
  H   H4610     1.0  0.54098  0.03592  0.97045  1.0000
  C   C2697     1.0  0.50378  0.08651  0.95744  1.0000
  H   H4611     1.0  0.51777  0.14360  0.90814  1.0000
  H   H4612     1.0  0.63480  0.00948  0.93626  1.0000
  H   H4613     1.0  0.76369  0.25862  0.79751  1.0000
  C   C2698     1.0  0.51032  0.13268  0.91132  1.0000
  H   H4614     1.0  0.51448  0.04735  0.93937  1.0000
  H   H4615     1.0  0.50483  0.10134  0.91080  1.0000
  H   H4616     1.0  0.54201  0.08158  0.98372  1.0000
  C   C2699     1.0  0.86881  0.48107  0.83922  1.0000
  H   H4617     1.0  0.79302  0.24149  0.79444  1.0000
  H   H4618     1.0  0.63373  0.34269  0.78573  1.0000
  H   H4619     1.0  0.67331  0.37829  0.78590  1.0000
  C   C2700     1.0  0.67892  0.50503  0.15049  1.0000
  Fe  Fe389     1.0  0.57987  0.96389  0.00540  1.0000
  H   H4620     1.0  0.52996  0.77100  0.09736  1.0000
  C   C2701     1.0  0.60464  0.94404  0.06290  1.0000
  Fe  Fe390     1.0  0.55468  0.96378  0.03127  1.0000
  H   H4621     1.0  0.74792  0.51294  0.10124  1.0000
  S   S779      1.0  0.54373  0.94973  0.05094  1.0000
  H   H4622     1.0  0.98435  0.49314  0.99255  1.0000
  H   H4623     1.0  0.54108  0.90151  0.05856  1.0000
  H   H4624     1.0  0.87799  0.49780  0.99188  1.0000
  C   C2702     1.0  0.99677  0.60947  0.99699  1.0000
  S   S780      1.0  0.55373  0.95532  0.01404  1.0000
  S   S781      1.0  0.58232  0.96936  0.02342  1.0000
  Fe  Fe391     1.0  0.94008  0.58047  0.02788  1.0000
  S   S782      1.0  0.94701  0.55498  0.04164  1.0000
  S   S783      1.0  0.95182  0.57959  0.00729  1.0000
  Fe  Fe392     1.0  0.91762  0.59917  0.04888  1.0000
  S   S784      1.0  0.92231  0.57499  0.06429  1.0000
  S   S785      1.0  0.90097  0.62494  0.05356  1.0000
  Fe  Fe393     1.0  0.95073  0.57165  0.05337  1.0000
  S   S786      1.0  0.97343  0.56140  0.06352  1.0000
  Fe  Fe394     1.0  0.91789  0.56085  0.05111  1.0000
  S   S787      1.0  0.90272  0.53898  0.05680  1.0000
  S   S788      1.0  0.94663  0.59684  0.03876  1.0000
  S   S789      1.0  0.91055  0.58538  0.03661  1.0000
  Fe  Fe395     1.0  0.58351  0.82168  0.09227  1.0000
  S   S790      1.0  0.55851  0.82298  0.10743  1.0000
  S   S791      1.0  0.59874  0.79697  0.08525  1.0000
  Fe  Fe396     1.0  0.58236  0.86098  0.08763  1.0000
  S   S792      1.0  0.55723  0.86571  0.10256  1.0000
  S   S793      1.0  0.59645  0.88219  0.07462  1.0000
  Fe  Fe397     1.0  0.57018  0.84046  0.11414  1.0000
  C   C2703     1.0  0.73320  0.73963  0.18145  1.0000
  S   S794      1.0  0.59634  0.83709  0.09996  1.0000
  S   S795      1.0  0.57179  0.84524  0.07868  1.0000
  Fe  Fe398     1.0  0.84370  0.60012  0.11859  1.0000
  S   S796      1.0  0.84023  0.57923  0.13643  1.0000
  S   S797      1.0  0.86709  0.61353  0.11201  1.0000
  Fe  Fe399     1.0  0.80790  0.60126  0.11328  1.0000
  S   S798      1.0  0.80119  0.58057  0.13065  1.0000
  S   S799      1.0  0.78990  0.61538  0.09950  1.0000
  Fe  Fe400     1.0  0.81208  0.59500  0.14040  1.0000
  C   C2704     1.0  0.78586  0.63732  0.17887  1.0000
  Fe  Fe401     1.0  0.82970  0.56655  0.12520  1.0000
  S   S800      1.0  0.83683  0.53704  0.12720  1.0000
  S   S801      1.0  0.81631  0.61708  0.12349  1.0000
  S   S802      1.0  0.83579  0.58598  0.10691  1.0000
  S   S803      1.0  0.56707  0.83537  0.13523  1.0000
  S   S804      1.0  0.70717  0.62425  0.12541  1.0000
  C   C2705     1.0  0.78728  0.54295  0.15212  1.0000
  S   S805      1.0  0.58324  0.72209  0.11562  1.0000
  C   C2706     1.0  0.66879  0.51605  0.14177  1.0000
  H   H4625     1.0  0.99570  0.54131  0.02528  1.0000
  S   S806      1.0  0.79695  0.59806  0.15999  1.0000
  C   C2707     1.0  0.69025  0.53012  0.15134  1.0000
  C   C2708     1.0  0.68038  0.54101  0.14243  1.0000
  C   C2709     1.0  0.66978  0.53397  0.13763  1.0000
  H   H4626     1.0  0.68098  0.55486  0.13919  1.0000
  H   H4627     1.0  0.66211  0.54251  0.13079  1.0000
  C   C2710     1.0  0.57923  0.75804  0.11288  1.0000
  C   C2711     1.0  0.76690  0.61713  0.10648  1.0000
  C   C2712     1.0  0.76101  0.60475  0.11723  1.0000
  C   C2713     1.0  0.74269  0.60667  0.12297  1.0000
  C   C2714     1.0  0.73014  0.62102  0.11804  1.0000
  C   C2715     1.0  0.73598  0.63325  0.10714  1.0000
  C   C2716     1.0  0.75431  0.63126  0.10134  1.0000
  H   H4628     1.0  0.77050  0.59357  0.12104  1.0000
  H   H4629     1.0  0.73838  0.59701  0.13117  1.0000
  C   C2717     1.0  0.52844  0.91725  0.03696  1.0000
  C   C2718     1.0  0.99422  0.54930  0.01570  1.0000
  C   C2719     1.0  0.82204  0.52847  0.12257  1.0000
  C   C2720     1.0  0.82227  0.51033  0.12648  1.0000
  C   C2721     1.0  0.81014  0.53940  0.11503  1.0000
  H   H4630     1.0  0.97583  0.64909  0.01650  1.0000
  H   H4631     1.0  0.80993  0.55345  0.11197  1.0000
  C   C2722     1.0  0.59626  0.84982  0.13204  1.0000
  H   H4632     1.0  0.59369  0.85687  0.12281  1.0000
  C   C2723     1.0  0.59325  0.77664  0.09380  1.0000
  C   C2724     1.0  0.58698  0.74317  0.10746  1.0000
  C   C2725     1.0  0.59765  0.74508  0.09522  1.0000
  C   C2726     1.0  0.60092  0.76173  0.08847  1.0000
  H   H4633     1.0  0.60360  0.73364  0.09099  1.0000
  H   H4634     1.0  0.60951  0.76307  0.07909  1.0000
  C   C2727     1.0  0.89016  0.62213  0.06958  1.0000
  C   C2728     1.0  0.88534  0.60603  0.07622  1.0000
  C   C2729     1.0  0.87746  0.60362  0.08918  1.0000
  C   C2730     1.0  0.87473  0.61719  0.09556  1.0000
  C   C2731     1.0  0.87928  0.63338  0.08890  1.0000
  C   C2732     1.0  0.88670  0.63596  0.07585  1.0000
  H   H4635     1.0  0.88747  0.59550  0.07133  1.0000
  H   H4636     1.0  0.87405  0.59105  0.09433  1.0000
  H   H4637     1.0  0.87719  0.64388  0.09384  1.0000
  H   H4638     1.0  0.89034  0.64844  0.07073  1.0000
  C   C2733     1.0  0.92877  0.51135  0.02396  1.0000
  C   C2734     1.0  0.92869  0.52917  0.02251  1.0000
  C   C2735     1.0  0.91939  0.53791  0.03233  1.0000
  C   C2736     1.0  0.91061  0.52878  0.04378  1.0000
  C   C2737     1.0  0.90988  0.51113  0.04503  1.0000
  C   C2738     1.0  0.91888  0.50244  0.03504  1.0000
  H   H4639     1.0  0.93608  0.53621  0.01389  1.0000
  H   H4640     1.0  0.91945  0.55168  0.03103  1.0000
  H   H4641     1.0  0.90317  0.50396  0.05387  1.0000
  C   C2739     1.0  0.55853  0.93097  0.05732  1.0000
  C   C2740     1.0  0.55305  0.92171  0.06970  1.0000
  C   C2741     1.0  0.56451  0.90649  0.07495  1.0000
  C   C2742     1.0  0.58171  0.90080  0.06797  1.0000
  C   C2743     1.0  0.58733  0.91029  0.05566  1.0000
  C   C2744     1.0  0.57566  0.92526  0.05028  1.0000
  C   C2745     1.0  0.62287  0.52197  0.16670  1.0000
  H   H4642     1.0  0.56022  0.89940  0.08450  1.0000
  H   H4643     1.0  0.60063  0.90589  0.05025  1.0000
  H   H4644     1.0  0.57995  0.93232  0.04069  1.0000
  C   C2746     1.0  0.61060  0.85219  0.13611  1.0000
  H   H4645     1.0  0.81766  0.65276  0.15429  1.0000
  H   H4646     1.0  0.57095  0.75661  0.12235  1.0000
  C   C2747     1.0  0.80880  0.64414  0.16019  1.0000
  C   C2748     1.0  0.72866  0.51637  0.12437  1.0000
  H   H4647     1.0  0.57998  0.82081  0.15815  1.0000
  H   H4648     1.0  0.91983  0.56409  0.11874  1.0000
  C   C2749     1.0  0.71113  0.52089  0.10839  1.0000
  C   C2750     1.0  0.98678  0.57649  0.06179  1.0000
  C   C2751     1.0  0.97992  0.59482  0.05934  1.0000
  H   H4649     1.0  0.73310  0.82085  0.18268  1.0000
  H   H4650     1.0  0.56015  0.76353  0.08599  1.0000
  H   H4651     1.0  0.61156  0.75805  0.13340  1.0000
  H   H4652     1.0  0.96602  0.59993  0.05868  1.0000
  H   H4653     1.0  0.70599  0.50423  0.09731  1.0000
  H   H4654     1.0  0.63894  0.62458  0.14029  1.0000
  C   C2752     1.0  0.86153  0.50904  0.07030  1.0000
  H   H4655     1.0  0.61780  0.55676  0.15471  1.0000
  H   H4656     1.0  0.94287  0.49813  0.05179  1.0000
  C   C2753     1.0  0.76517  0.64345  0.12889  1.0000
  H   H4657     1.0  0.71821  0.52958  0.10011  1.0000
  H   H4658     1.0  0.67977  0.65800  0.12723  1.0000
  H   H4659     1.0  0.98604  0.54467  0.99330  1.0000
  C   C2754     1.0  0.91867  0.59443  0.00164  1.0000
  C   C2755     1.0  0.60381  0.76542  0.18272  1.0000
  H   H4660     1.0  0.95470  0.61182  0.08090  1.0000
  C   C2756     1.0  0.50588  0.96702  0.02057  1.0000
  H   H4661     1.0  0.91598  0.60114  0.00931  1.0000
  Fe  Fe402     1.0  0.56351  0.73897  0.15832  1.0000
  C   C2757     1.0  0.63586  0.79069  0.12461  1.0000
  H   H4662     1.0  0.92263  0.61684  0.11703  1.0000
  H   H4663     1.0  0.76584  0.60912  0.14733  1.0000
  H   H4664     1.0  0.69749  0.50347  0.16195  1.0000
  H   H4665     1.0  0.91267  0.57798  0.09164  1.0000
  Fe  Fe403     1.0  0.67259  0.79188  0.17128  1.0000
  C   C2758     1.0  0.58856  0.82949  0.15196  1.0000
  H   H4666     1.0  0.60250  0.96088  0.04459  1.0000
  S   S807      1.0  0.68648  0.61717  0.16107  1.0000
  C   C2759     1.0  0.62225  0.76540  0.12778  1.0000
  H   H4667     1.0  0.63761  0.75364  0.14959  1.0000
  H   H4668     1.0  0.76148  0.50047  0.14764  1.0000
  C   C2760     1.0  0.93413  0.59493  0.10716  1.0000
  S   S808      1.0  0.78461  0.50480  0.11039  1.0000
  C   C2761     1.0  0.55280  0.75254  0.09005  1.0000
  N   N191      1.0  0.50674  0.82068  0.14086  1.0000
  N   N192      1.0  0.93172  0.58898  0.09620  1.0000
  H   H4669     1.0  0.53578  0.70651  0.10742  1.0000
  H   H4670     1.0  0.99600  0.60323  0.03441  1.0000
  H   H4671     1.0  0.83039  0.49335  0.09639  1.0000
  C   C2762     1.0  0.98052  0.63446  0.01827  1.0000
  H   H4672     1.0  0.72763  0.74553  0.16278  1.0000
  C   C2763     1.0  0.97059  0.50900  0.03206  1.0000
  H   H4673     1.0  0.61935  0.90090  0.17793  1.0000
  H   H4674     1.0  0.61631  0.56654  0.18290  1.0000
  Fe  Fe404     1.0  0.54623  0.70881  0.15947  1.0000
  C   C2764     1.0  0.51395  0.90689  0.04520  1.0000
  C   C2765     1.0  0.92807  0.60461  0.08546  1.0000
  H   H4675     1.0  0.97064  0.55470  0.09518  1.0000
  C   C2766     1.0  0.63595  0.52929  0.17086  1.0000
  C   C2767     1.0  0.79902  0.51385  0.11511  1.0000
  H   H4676     1.0  0.67124  0.67816  0.11725  1.0000
  C   C2768     1.0  0.61567  0.55407  0.18057  1.0000
  C   C2769     1.0  0.52147  0.69237  0.14321  1.0000
  C   C2770     1.0  0.57087  0.97086  0.06101  1.0000
  S   S809      1.0  0.67901  0.58915  0.14709  1.0000
  C   C2771     1.0  0.55346  0.98519  0.06042  1.0000
  H   H4677     1.0  0.74809  0.59776  0.15505  1.0000
  S   S810      1.0  0.63216  0.84587  0.15297  1.0000
  C   C2772     1.0  0.60316  0.79561  0.12834  1.0000
  H   H4678     1.0  0.52320  0.85090  0.13366  1.0000
  H   H4679     1.0  0.75875  0.64084  0.09299  1.0000
  H   H4680     1.0  0.60692  0.68502  0.12684  1.0000
  H   H4681     1.0  0.63849  0.76485  0.10851  1.0000
  H   H4682     1.0  0.72648  0.80254  0.17987  1.0000
  H   H4683     1.0  0.74392  0.72830  0.17982  1.0000
  H   H4684     1.0  0.63963  0.68836  0.11768  1.0000
  S   S811      1.0  0.63754  0.60526  0.17075  1.0000
  H   H4685     1.0  0.63441  0.66814  0.11813  1.0000
  H   H4686     1.0  0.55156  0.70275  0.11705  1.0000
  H   H4687     1.0  0.91402  0.61218  0.08742  1.0000
  S   S812      1.0  0.51969  0.85605  0.09112  1.0000
  S   S813      1.0  0.94257  0.50017  0.01229  1.0000
  H   H4688     1.0  0.52593  0.84446  0.11893  1.0000
  S   S814      1.0  0.57168  0.69350  0.14925  1.0000
  H   H4689     1.0  0.81777  0.62531  0.14801  1.0000
  H   H4690     1.0  0.62388  0.64436  0.13484  1.0000
  H   H4691     1.0  0.67233  0.63991  0.11618  1.0000
  H   H4692     1.0  0.75614  0.56473  0.14896  1.0000
  H   H4693     1.0  0.92680  0.55212  0.10590  1.0000
  N   N193      1.0  0.52503  0.74507  0.10769  1.0000
  H   H4694     1.0  0.59771  0.89309  0.17117  1.0000
  H   H4695     1.0  0.63820  0.67900  0.14745  1.0000
  H   H4696     1.0  0.73563  0.53992  0.12602  1.0000
  C   C2773     1.0  0.83658  0.49679  0.08611  1.0000
  C   C2774     1.0  0.98040  0.49446  0.04146  1.0000
  H   H4697     1.0  0.71171  0.64875  0.14026  1.0000
  C   C2775     1.0  0.50910  0.75494  0.11585  1.0000
  C   C2776     1.0  0.99902  0.54862  0.98826  1.0000
  C   C2777     1.0  0.51581  0.82156  0.10046  1.0000
  C   C2778     1.0  0.65445  0.54204  0.18479  1.0000
  H   H4698     1.0  0.54178  0.87812  0.04641  1.0000
  S   S815      1.0  0.66773  0.82001  0.17314  1.0000
  H   H4699     1.0  0.73969  0.50762  0.12899  1.0000
  H   H4700     1.0  0.64071  0.66255  0.17646  1.0000
  H   H4701     1.0  0.64117  0.55418  0.15003  1.0000
  N   N194      1.0  0.85348  0.50333  0.08419  1.0000
  C   C2779     1.0  0.90582  0.59790  0.99430  1.0000
  H   H4702     1.0  0.87455  0.51279  0.06905  1.0000
  H   H4703     1.0  0.69060  0.52494  0.09774  1.0000
  H   H4704     1.0  0.87051  0.50125  0.05209  1.0000
  H   H4705     1.0  0.60529  0.98116  0.06921  1.0000
  H   H4706     1.0  0.62270  0.58554  0.14577  1.0000
  H   H4707     1.0  0.81265  0.53690  0.15791  1.0000
  C   C2780     1.0  0.62729  0.57925  0.15478  1.0000
  H   H4708     1.0  0.52425  0.78318  0.14276  1.0000
  C   C2781     1.0  0.93859  0.57443  0.98860  1.0000
  C   C2782     1.0  0.76024  0.53560  0.16827  1.0000
  H   H4709     1.0  0.50425  0.87803  0.06190  1.0000
  H   H4710     1.0  0.59609  0.55085  0.17043  1.0000
  H   H4711     1.0  0.73144  0.64227  0.17080  1.0000
  C   C2783     1.0  0.86533  0.49520  0.06213  1.0000
  H   H4712     1.0  0.51582  0.89483  0.04149  1.0000
  H   H4713     1.0  0.76539  0.65796  0.14209  1.0000
  H   H4714     1.0  0.78115  0.50932  0.15725  1.0000
  S   S816      1.0  0.54777  0.73487  0.14584  1.0000
  H   H4715     1.0  0.80994  0.50384  0.08198  1.0000
  C   C2784     1.0  0.53226  0.79277  0.14238  1.0000
  H   H4716     1.0  0.65955  0.55176  0.16459  1.0000
  H   H4717     1.0  0.95753  0.58324  0.08313  1.0000
  H   H4718     1.0  0.51222  0.79490  0.10859  1.0000
  Fe  Fe405     1.0  0.57407  0.72002  0.13655  1.0000
  C   C2785     1.0  0.91687  0.56297  0.10993  1.0000
  H   H4719     1.0  0.54442  0.75962  0.10802  1.0000
  H   H4720     1.0  0.87481  0.52784  0.08307  1.0000
  C   C2786     1.0  0.51605  0.84986  0.12679  1.0000
  H   H4721     1.0  0.77704  0.55835  0.12891  1.0000
  H   H4722     1.0  0.70176  0.52987  0.11453  1.0000
  H   H4723     1.0  0.63682  0.88217  0.16339  1.0000
  H   H4724     1.0  0.95988  0.51535  0.05827  1.0000
  C   C2787     1.0  0.61731  0.68174  0.13256  1.0000
  H   H4725     1.0  0.95260  0.55672  0.10870  1.0000
  C   C2788     1.0  0.66601  0.67080  0.14774  1.0000
  H   H4726     1.0  0.61666  0.96596  0.05239  1.0000
  C   C2789     1.0  0.64786  0.64837  0.13926  1.0000
  H   H4727     1.0  0.58162  0.78746  0.14409  1.0000
  H   H4728     1.0  0.62561  0.81885  0.12571  1.0000
  C   C2790     1.0  0.99954  0.59869  0.02541  1.0000
  C   C2791     1.0  0.71067  0.76447  0.17374  1.0000
  H   H4729     1.0  0.93704  0.58350  0.11501  1.0000
  H   H4730     1.0  0.74226  0.56044  0.17263  1.0000
  H   H4731     1.0  0.92920  0.59999  0.07670  1.0000
  C   C2792     1.0  0.66860  0.66475  0.12221  1.0000
  H   H4732     1.0  0.82613  0.51307  0.06927  1.0000
  N   N195      1.0  0.83512  0.61754  0.06381  1.0000
  C   C2793     1.0  0.83667  0.59949  0.06134  1.0000
  C   C2794     1.0  0.81692  0.62846  0.06187  1.0000
  C   C2795     1.0  0.83587  0.61488  0.07748  1.0000
  C   C2796     1.0  0.85050  0.62538  0.05500  1.0000
  C   C2797     1.0  0.85371  0.58538  0.06391  1.0000
  C   C2798     1.0  0.81351  0.63150  0.04846  1.0000
  C   C2799     1.0  0.83411  0.63150  0.08247  1.0000
  C   C2800     1.0  0.84842  0.64572  0.05253  1.0000
  H   H4733     1.0  0.82486  0.59376  0.06709  1.0000
  H   H4734     1.0  0.83660  0.60051  0.05126  1.0000
  H   H4735     1.0  0.81421  0.64170  0.06405  1.0000
  H   H4736     1.0  0.80607  0.62217  0.06870  1.0000
  H   H4737     1.0  0.82519  0.60790  0.08371  1.0000
  H   H4738     1.0  0.84876  0.60623  0.07937  1.0000
  H   H4739     1.0  0.86309  0.61915  0.05850  1.0000
  H   H4740     1.0  0.85325  0.62211  0.04552  1.0000
  H   H4741     1.0  0.85339  0.58053  0.07420  1.0000
  H   H4742     1.0  0.85433  0.57363  0.06022  1.0000
  H   H4743     1.0  0.86627  0.59013  0.05902  1.0000
  H   H4744     1.0  0.81132  0.61931  0.04676  1.0000
  H   H4745     1.0  0.80101  0.64175  0.04759  1.0000
  H   H4746     1.0  0.82455  0.63627  0.04094  1.0000
  H   H4747     1.0  0.84584  0.63774  0.07799  1.0000
  H   H4748     1.0  0.83410  0.62739  0.09276  1.0000
  H   H4749     1.0  0.82132  0.64119  0.08163  1.0000
  H   H4750     1.0  0.86120  0.64861  0.05296  1.0000
  H   H4751     1.0  0.83772  0.65253  0.05928  1.0000
  H   H4752     1.0  0.84642  0.65200  0.04276  1.0000
  S   S817      1.0  0.71830  0.58321  0.15362  1.0000
  H   H4753     1.0  0.66116  0.52829  0.18374  1.0000
  H   H4754     1.0  0.52324  0.76933  0.12318  1.0000
  H   H4755     1.0  0.71494  0.69760  0.18158  1.0000
  H   H4756     1.0  0.64945  0.52534  0.16486  1.0000
  H   H4757     1.0  0.50379  0.89433  0.01091  1.0000
  C   C2801     1.0  0.54465  0.71293  0.11001  1.0000
  C   C2802     1.0  0.51321  0.76085  0.12658  1.0000
  H   H4758     1.0  0.65559  0.89236  0.17269  1.0000
  C   C2803     1.0  0.73462  0.53420  0.11834  1.0000
  H   H4759     1.0  0.52235  0.68577  0.12558  1.0000
  H   H4760     1.0  0.64594  0.85952  0.16910  1.0000
  S   S818      1.0  0.64789  0.79550  0.16410  1.0000
  H   H4761     1.0  0.90333  0.58975  0.10394  1.0000
  N   N196      1.0  0.65070  0.66636  0.13145  1.0000
  H   H4762     1.0  0.61617  0.85344  0.17826  1.0000
  Fe  Fe406     1.0  0.69687  0.56763  0.15824  1.0000
  H   H4763     1.0  0.65926  0.73044  0.17688  1.0000
  S   S819      1.0  0.59001  0.72671  0.14754  1.0000
  H   H4764     1.0  0.72482  0.54421  0.11326  1.0000
  H   H4765     1.0  0.53028  0.81782  0.09855  1.0000
  C   C2804     1.0  0.95259  0.49076  0.05790  1.0000
  H   H4766     1.0  0.76558  0.56100  0.16962  1.0000
  C   C2805     1.0  0.59122  0.97996  0.07032  1.0000
  H   H4767     1.0  0.61858  0.75582  0.11240  1.0000
  H   H4768     1.0  0.52380  0.72346  0.12423  1.0000
  H   H4769     1.0  0.62136  0.52816  0.15684  1.0000
  C   C2806     1.0  0.61799  0.77889  0.14577  1.0000
  H   H4770     1.0  0.50971  0.86353  0.12250  1.0000
  H   H4771     1.0  0.98892  0.57419  0.99416  1.0000
  C   C2807     1.0  0.62889  0.62751  0.17167  1.0000
  H   H4772     1.0  0.52916  0.73266  0.09184  1.0000
  H   H4773     1.0  0.94154  0.50928  0.07046  1.0000
  H   H4774     1.0  0.60824  0.94384  0.07183  1.0000
  C   C2808     1.0  0.51887  0.83067  0.15664  1.0000
  H   H4775     1.0  0.57460  0.79920  0.12984  1.0000
  H   H4776     1.0  0.85992  0.53714  0.09589  1.0000
  C   C2809     1.0  0.75681  0.51302  0.15112  1.0000
  C   C2810     1.0  0.79984  0.53217  0.16116  1.0000
  H   H4777     1.0  0.75827  0.63383  0.12790  1.0000
  H   H4778     1.0  0.95126  0.56530  0.98643  1.0000
  H   H4779     1.0  0.76239  0.66239  0.16134  1.0000
  H   H4780     1.0  0.98575  0.60374  0.00380  1.0000
  H   H4781     1.0  0.51768  0.74925  0.13386  1.0000
  C   C2811     1.0  0.50729  0.83935  0.09723  1.0000
  H   H4782     1.0  0.71840  0.66201  0.15476  1.0000
  H   H4783     1.0  0.51885  0.92632  0.06104  1.0000
  C   C2812     1.0  0.59322  0.78143  0.17764  1.0000
  H   H4784     1.0  0.73605  0.62592  0.14276  1.0000
  C   C2813     1.0  0.69865  0.51368  0.10348  1.0000
  H   H4785     1.0  0.77322  0.63524  0.14697  1.0000
  H   H4786     1.0  0.74810  0.53241  0.11196  1.0000
  C   C2814     1.0  0.63275  0.65519  0.17426  1.0000
  C   C2815     1.0  0.84891  0.51916  0.09019  1.0000
  C   C2816     1.0  0.74176  0.50147  0.10670  1.0000
  S   S820      1.0  0.60401  0.94978  0.99323  1.0000
  H   H4787     1.0  0.00058  0.60220  0.98920  1.0000
  H   H4788     1.0  0.98605  0.62071  0.05545  1.0000
  H   H4789     1.0  0.64458  0.63659  0.12438  1.0000
  H   H4790     1.0  0.93644  0.62649  0.08909  1.0000
  C   C2817     1.0  0.51819  0.74056  0.09790  1.0000
  N   N197      1.0  0.58821  0.97705  0.05841  1.0000
  H   H4791     1.0  0.78522  0.55712  0.15239  1.0000
  H   H4792     1.0  0.99184  0.62371  0.99304  1.0000
  H   H4793     1.0  0.66696  0.65667  0.15258  1.0000
  H   H4794     1.0  0.63964  0.64951  0.14882  1.0000
  H   H4795     1.0  0.97466  0.62953  0.01235  1.0000
  H   H4796     1.0  0.61907  0.86105  0.12998  1.0000
  H   H4797     1.0  0.66078  0.65930  0.10629  1.0000
  H   H4798     1.0  0.52066  0.82530  0.16654  1.0000
  H   H4799     1.0  0.97492  0.62930  0.02841  1.0000
  H   H4800     1.0  0.66086  0.63945  0.14095  1.0000
  C   C2818     1.0  0.78627  0.62160  0.17549  1.0000
  H   H4801     1.0  0.67828  0.74038  0.16790  1.0000
  C   C2819     1.0  0.53135  0.89262  0.06210  1.0000
  Fe  Fe407     1.0  0.69946  0.60546  0.14393  1.0000
  H   H4802     1.0  0.90882  0.60058  0.12108  1.0000
  H   H4803     1.0  0.84149  0.53100  0.08443  1.0000
  H   H4804     1.0  0.52708  0.92065  0.02695  1.0000
  H   H4805     1.0  0.79514  0.54199  0.14239  1.0000
  H   H4806     1.0  0.60590  0.82414  0.16502  1.0000
  H   H4807     1.0  0.60451  0.80059  0.11796  1.0000
  H   H4808     1.0  0.77961  0.63824  0.12523  1.0000
  C   C2820     1.0  0.60324  0.83138  0.15585  1.0000
  H   H4809     1.0  0.61670  0.77899  0.10864  1.0000
  H   H4810     1.0  0.78219  0.52014  0.14124  1.0000
  Fe  Fe408     1.0  0.63459  0.78766  0.18444  1.0000
  H   H4811     1.0  0.63638  0.80558  0.13853  1.0000
  C   C2821     1.0  0.52524  0.81150  0.13503  1.0000
  H   H4812     1.0  0.65181  0.69142  0.13487  1.0000
  C   C2822     1.0  0.65094  0.67766  0.14020  1.0000
  C   C2823     1.0  0.63833  0.63812  0.13420  1.0000
  N   N198      1.0  0.76964  0.53749  0.15452  1.0000
  H   H4813     1.0  0.78955  0.54051  0.10538  1.0000
  H   H4814     1.0  0.76768  0.52431  0.17443  1.0000
  C   C2824     1.0  0.53763  0.75763  0.10119  1.0000
  C   C2825     1.0  0.60279  0.87934  0.16971  1.0000
  C   C2826     1.0  0.63605  0.67607  0.12429  1.0000
  C   C2827     1.0  0.81073  0.50307  0.12281  1.0000
  H   H4815     1.0  0.61193  0.87928  0.16029  1.0000
  C   C2828     1.0  0.96015  0.56438  0.10015  1.0000
  C   C2829     1.0  0.67124  0.65426  0.11198  1.0000
  H   H4816     1.0  0.53989  0.92623  0.07524  1.0000
  H   H4817     1.0  0.50517  0.71952  0.11162  1.0000
  H   H4818     1.0  0.98910  0.56332  0.01659  1.0000
  C   C2830     1.0  0.70329  0.70417  0.17707  1.0000
  H   H4819     1.0  0.75636  0.60736  0.16418  1.0000
  C   C2831     1.0  0.68973  0.51204  0.15518  1.0000
  H   H4820     1.0  0.71281  0.67125  0.13293  1.0000
  C   C2832     1.0  0.61416  0.84289  0.14799  1.0000
  S   S821      1.0  0.65401  0.50825  0.13634  1.0000
  H   H4821     1.0  0.85312  0.49076  0.06234  1.0000
  H   H4822     1.0  0.53515  0.69418  0.14058  1.0000
  C   C2833     1.0  0.79865  0.53207  0.11129  1.0000
  H   H4823     1.0  0.61643  0.69391  0.13583  1.0000
  H   H4824     1.0  0.61386  0.67124  0.14096  1.0000
  H   H4825     1.0  0.59525  0.79385  0.17847  1.0000
  H   H4826     1.0  0.56293  0.74083  0.09317  1.0000
  C   C2834     1.0  0.58218  0.77484  0.10596  1.0000
  H   H4827     1.0  0.68431  0.65544  0.10530  1.0000
  C   C2835     1.0  0.58510  0.83861  0.14004  1.0000
  C   C2836     1.0  0.74451  0.64399  0.16429  1.0000
  H   H4828     1.0  0.67918  0.67285  0.14164  1.0000
  S   S822      1.0  0.60994  0.68697  0.16917  1.0000
  H   H4829     1.0  0.57632  0.78628  0.11013  1.0000
  C   C2837     1.0  0.79759  0.61732  0.16429  1.0000
  H   H4830     1.0  0.93831  0.62718  0.07276  1.0000
  H   H4831     1.0  0.85290  0.52126  0.06583  1.0000
  C   C2838     1.0  0.80887  0.62861  0.15662  1.0000
  C   C2839     1.0  0.50525  0.82197  0.15429  1.0000
  H   H4832     1.0  0.72636  0.64433  0.10321  1.0000
  H   H4833     1.0  0.64863  0.78090  0.12563  1.0000
  C   C2840     1.0  0.94023  0.61814  0.08195  1.0000
  H   H4834     1.0  0.87182  0.51475  0.09916  1.0000
  H   H4835     1.0  0.73534  0.67159  0.14314  1.0000
  C   C2841     1.0  0.60341  0.96255  0.05393  1.0000
  H   H4836     1.0  0.88032  0.49175  0.08793  1.0000
  H   H4837     1.0  0.98558  0.50117  0.04679  1.0000
  H   H4838     1.0  0.94627  0.60072  0.10455  1.0000
  C   C2842     1.0  0.51419  0.68770  0.13472  1.0000
  H   H4839     1.0  0.97915  0.51872  0.02723  1.0000
  Fe  Fe409     1.0  0.58540  0.70147  0.16130  1.0000
  C   C2843     1.0  0.61632  0.66393  0.17085  1.0000
  C   C2844     1.0  0.61152  0.86682  0.18056  1.0000
  H   H4840     1.0  0.61546  0.93437  0.05816  1.0000
  C   C2845     1.0  0.59689  0.55753  0.17759  1.0000
  C   C2846     1.0  0.65843  0.87818  0.17227  1.0000
  H   H4841     1.0  0.63632  0.79435  0.11423  1.0000
  C   C2847     1.0  0.72101  0.65806  0.13633  1.0000
  N   N199      1.0  0.74403  0.64362  0.15101  1.0000
  C   C2848     1.0  0.75766  0.55158  0.14679  1.0000
  H   H4842     1.0  0.98648  0.59939  0.02326  1.0000
  H   H4843     1.0  0.83132  0.50187  0.13243  1.0000
  C   C2849     1.0  0.79724  0.64856  0.17130  1.0000
  H   H4844     1.0  0.76092  0.65653  0.12277  1.0000
  Fe  Fe410     1.0  0.64149  0.82274  0.16786  1.0000
  S   S823      1.0  0.70397  0.53852  0.15735  1.0000
  S   S824      1.0  0.69842  0.77605  0.16212  1.0000
  H   H4845     1.0  0.53555  0.81920  0.13377  1.0000
  S   S825      1.0  0.51944  0.70060  0.16602  1.0000
  S   S826      1.0  0.72285  0.59487  0.18280  1.0000
  H   H4846     1.0  0.64037  0.58276  0.15359  1.0000
  C   C2850     1.0  0.50444  0.97496  0.00805  1.0000
  C   C2851     1.0  0.91785  0.60792  0.11324  1.0000
  H   H4847     1.0  0.70429  0.71804  0.17241  1.0000
  H   H4848     1.0  0.58992  0.96805  0.07810  1.0000
  H   H4849     1.0  0.53293  0.79293  0.15208  1.0000
  H   H4850     1.0  0.75215  0.49291  0.11195  1.0000
  H   H4851     1.0  0.96728  0.57236  0.10299  1.0000
  H   H4852     1.0  0.74379  0.54911  0.14937  1.0000
  C   C2852     1.0  0.72983  0.65933  0.14666  1.0000
  H   H4853     1.0  0.54319  0.73230  0.12050  1.0000
  H   H4854     1.0  0.90967  0.61675  0.10648  1.0000
  C   C2853     1.0  0.94824  0.57622  0.09091  1.0000
  H   H4855     1.0  0.58592  0.77657  0.13101  1.0000
  S   S827      1.0  0.55972  0.71426  0.17292  1.0000
  H   H4856     1.0  0.63192  0.76658  0.16120  1.0000
  C   C2854     1.0  0.63468  0.76745  0.15084  1.0000
  H   H4857     1.0  0.60697  0.77169  0.15068  1.0000
  H   H4858     1.0  0.74728  0.65978  0.17633  1.0000
  H   H4859     1.0  0.90364  0.55911  0.11263  1.0000
  H   H4860     1.0  0.64674  0.77324  0.14663  1.0000
  H   H4861     1.0  0.75409  0.56460  0.12769  1.0000
  H   H4862     1.0  0.61389  0.79139  0.14934  1.0000
  H   H4863     1.0  0.95766  0.51646  0.03667  1.0000
  H   H4864     1.0  0.94456  0.56745  0.08626  1.0000
  H   H4865     1.0  0.59109  0.87446  0.16936  1.0000
  H   H4866     1.0  0.51513  0.97023  0.02470  1.0000
  Fe  Fe411     1.0  0.54775  0.84796  0.09456  1.0000
  C   C2855     1.0  0.58550  0.78901  0.13368  1.0000
  H   H4867     1.0  0.60099  0.80768  0.13204  1.0000
  Fe  Fe412     1.0  0.54147  0.98398  0.00781  1.0000
  N   N200      1.0  0.61983  0.78265  0.13162  1.0000
  C   C2856     1.0  0.62417  0.76647  0.11354  1.0000
  C   C2857     1.0  0.91561  0.58056  0.10007  1.0000
  H   H4868     1.0  0.63469  0.75614  0.13017  1.0000
  C   C2858     1.0  0.75331  0.60941  0.15476  1.0000
  C   C2859     1.0  0.63661  0.80762  0.12833  1.0000
  H   H4869     1.0  0.64939  0.81175  0.12303  1.0000
  C   C2860     1.0  0.50295  0.73014  0.10316  1.0000
  H   H4870     1.0  0.74817  0.52232  0.14483  1.0000
  H   H4871     1.0  0.70438  0.69700  0.16961  1.0000
  C   C2861     1.0  0.76408  0.55403  0.13229  1.0000
  H   H4872     1.0  0.51949  0.87973  0.98814  1.0000
  H   H4873     1.0  0.76523  0.54189  0.12896  1.0000
  H   H4874     1.0  0.71680  0.51888  0.13217  1.0000
  N   N201      1.0  0.72441  0.50750  0.11557  1.0000
  H   H4875     1.0  0.68884  0.50748  0.11140  1.0000
  H   H4876     1.0  0.83948  0.51703  0.09953  1.0000
  C   C2862     1.0  0.86497  0.52485  0.09208  1.0000
  C   C2863     1.0  0.77340  0.51986  0.15086  1.0000
  C   C2864     1.0  0.51110  0.69430  0.15521  1.0000
  C   C2865     1.0  0.54021  0.87573  0.05679  1.0000
  H   H4877     1.0  0.53253  0.82752  0.15084  1.0000
  H   H4878     1.0  0.66861  0.87665  0.16339  1.0000
  H   H4879     1.0  0.59154  0.57200  0.17477  1.0000
  H   H4880     1.0  0.54617  0.78768  0.13746  1.0000
  H   H4881     1.0  0.54783  0.75085  0.08222  1.0000
  H   H4882     1.0  0.75471  0.63281  0.16807  1.0000
  H   H4883     1.0  0.66298  0.67848  0.15524  1.0000
  C   C2866     1.0  0.62945  0.55902  0.15723  1.0000
  H   H4884     1.0  0.73874  0.67307  0.16286  1.0000
  C   C2867     1.0  0.58778  0.74934  0.17549  1.0000
  C   C2868     1.0  0.64789  0.55323  0.17271  1.0000
  C   C2869     1.0  0.53394  0.72883  0.11609  1.0000
  C   C2870     1.0  0.60101  0.74940  0.18165  1.0000
  H   H4885     1.0  0.73081  0.65405  0.12797  1.0000
  H   H4886     1.0  0.57109  0.79365  0.16818  1.0000
  C   C2871     1.0  0.93514  0.58282  0.99875  1.0000
  H   H4887     1.0  0.59216  0.93899  0.06511  1.0000
  H   H4888     1.0  0.60420  0.62873  0.16648  1.0000
  H   H4889     1.0  0.62853  0.50766  0.16680  1.0000
  C   C2872     1.0  0.60591  0.65436  0.16819  1.0000
  H   H4890     1.0  0.72636  0.62504  0.15893  1.0000
  C   C2873     1.0  0.76231  0.64498  0.14271  1.0000
  Fe  Fe413     1.0  0.70410  0.59379  0.17111  1.0000
  H   H4891     1.0  0.52561  0.81044  0.12526  1.0000
  C   C2874     1.0  0.66777  0.73937  0.17678  1.0000
  H   H4892     1.0  0.50573  0.80877  0.16090  1.0000
  H   H4893     1.0  0.55396  0.87090  0.05869  1.0000
  C   C2875     1.0  0.73903  0.62641  0.15172  1.0000
  C   C2876     1.0  0.74845  0.66091  0.16605  1.0000
  S   S828      1.0  0.79752  0.66789  0.17574  1.0000
  H   H4894     1.0  0.60971  0.52271  0.17345  1.0000
  H   H4895     1.0  0.75582  0.54841  0.18408  1.0000
  Fe  Fe414     1.0  0.66769  0.59870  0.16527  1.0000
  C   C2877     1.0  0.72419  0.74950  0.17176  1.0000
  H   H4896     1.0  0.51408  0.84527  0.15526  1.0000
  S   S829      1.0  0.56028  0.76537  0.16291  1.0000
  N   N202      1.0  0.51322  0.90225  0.05924  1.0000
  C   C2878     1.0  0.99122  0.60655  0.05758  1.0000
  H   H4897     1.0  0.79410  0.53419  0.17097  1.0000
  C   C2879     1.0  0.75576  0.55237  0.17381  1.0000
  S   S830      1.0  0.51777  0.99018  0.99895  1.0000
  H   H4898     1.0  0.61731  0.58510  0.16240  1.0000
  H   H4899     1.0  0.57162  0.96301  0.05401  1.0000
  H   H4900     1.0  0.81704  0.52228  0.08342  1.0000
  C   C2880     1.0  0.57688  0.76528  0.17070  1.0000
  H   H4901     1.0  0.53291  0.86489  0.06163  1.0000
  H   H4902     1.0  0.80332  0.51786  0.16108  1.0000
  H   H4903     1.0  0.51575  0.91230  0.99312  1.0000
  C   C2881     1.0  0.50556  0.80853  0.10604  1.0000
  H   H4904     1.0  0.64519  0.56730  0.17344  1.0000
  H   H4905     1.0  0.54225  0.90937  0.03722  1.0000
  H   H4906     1.0  0.55519  0.71631  0.10164  1.0000
  S   S831      1.0  0.68425  0.57609  0.17676  1.0000
  H   H4907     1.0  0.89321  0.60713  0.99648  1.0000
  H   H4908     1.0  0.65183  0.63039  0.17716  1.0000
  C   C2882     1.0  0.64151  0.87274  0.17169  1.0000
  H   H4909     1.0  0.59315  0.66105  0.16566  1.0000
  C   C2883     1.0  0.82178  0.50994  0.07973  1.0000
  H   H4910     1.0  0.53053  0.88852  0.07250  1.0000
  C   C2884     1.0  0.57955  0.78133  0.17185  1.0000
  H   H4911     1.0  0.98358  0.54540  0.01307  1.0000
  H   H4912     1.0  0.54175  0.97874  0.06432  1.0000
  C   C2885     1.0  0.61214  0.63609  0.16871  1.0000
  H   H4913     1.0  0.92408  0.52239  0.98918  1.0000
  H   H4914     1.0  0.65898  0.75283  0.17616  1.0000
  C   C2886     1.0  0.63909  0.63703  0.17459  1.0000
  H   H4915     1.0  0.67524  0.70398  0.18155  1.0000
  H   H4916     1.0  0.52682  0.92993  0.03974  1.0000
  H   H4917     1.0  0.56863  0.96170  0.07045  1.0000
  N   N203      1.0  0.63174  0.54895  0.17035  1.0000
  H   H4918     1.0  0.70270  0.49727  0.12932  1.0000
  H   H4919     1.0  0.58584  0.73689  0.17466  1.0000
  H   H4920     1.0  0.73758  0.50199  0.08801  1.0000
  H   H4921     1.0  0.51210  0.90770  0.08358  1.0000
  H   H4922     1.0  0.74709  0.53196  0.16978  1.0000
  C   C2887     1.0  0.50766  0.91916  0.06409  1.0000
  H   H4923     1.0  0.51312  0.75290  0.09126  1.0000
  H   H4924     1.0  0.74864  0.50993  0.16084  1.0000
  H   H4925     1.0  0.96857  0.50354  0.02460  1.0000
  H   H4926     1.0  0.63669  0.52156  0.18063  1.0000
  H   H4927     1.0  0.66475  0.86971  0.18014  1.0000
  H   H4928     1.0  0.77752  0.61289  0.18145  1.0000
  N   N204      1.0  0.62661  0.87230  0.18341  1.0000
  H   H4929     1.0  0.99852  0.57125  0.03449  1.0000
  C   C2888     1.0  0.95488  0.50383  0.06492  1.0000
  H   H4930     1.0  0.85292  0.49172  0.10974  1.0000
  H   H4931     1.0  0.67826  0.49118  0.15376  1.0000
  H   H4932     1.0  0.60913  0.73697  0.18556  1.0000
  C   C2889     1.0  0.74085  0.49217  0.09662  1.0000
  H   H4933     1.0  0.68905  0.73966  0.18497  1.0000
  H   H4934     1.0  0.94385  0.52997  0.98592  1.0000
  H   H4935     1.0  0.70991  0.82142  0.18372  1.0000
  H   H4936     1.0  0.96385  0.49729  0.07167  1.0000
  C   C2890     1.0  0.71605  0.49219  0.12362  1.0000
  H   H4937     1.0  0.58665  0.99049  0.03910  1.0000
  C   C2891     1.0  0.00129  0.62988  0.01533  1.0000
  H   H4938     1.0  0.99899  0.51908  0.00681  1.0000
  C   C2892     1.0  0.70629  0.76964  0.18533  1.0000
  H   H4939     1.0  0.98688  0.77460  0.30526  1.0000
  H   H4940     1.0  0.84680  0.83596  0.31220  1.0000
  C   C2893     1.0  0.68352  0.80001  0.30055  1.0000
  H   H4941     1.0  0.81453  0.77724  0.28197  1.0000
  Fe  Fe415     1.0  0.68050  0.94776  0.31068  1.0000
  S   S832      1.0  0.66642  0.92896  0.32640  1.0000
  S   S833      1.0  0.68796  0.94699  0.28983  1.0000
  Fe  Fe416     1.0  0.65249  0.95297  0.33470  1.0000
  H   H4942     1.0  0.79155  0.80763  0.24469  1.0000
  Fe  Fe417     1.0  0.68827  0.92726  0.33628  1.0000
  S   S834      1.0  0.70376  0.90121  0.34552  1.0000
  H   H4943     1.0  0.81126  0.81703  0.23731  1.0000
  H   H4944     1.0  0.96183  0.81951  0.32826  1.0000
  H   H4945     1.0  0.98652  0.76939  0.34876  1.0000
  H   H4946     1.0  0.71148  0.81413  0.20521  1.0000
  H   H4947     1.0  0.97902  0.51001  0.37996  1.0000
  H   H4948     1.0  0.99034  0.64254  0.37156  1.0000
  H   H4949     1.0  0.72443  0.96746  0.27702  1.0000
  H   H4950     1.0  0.68756  0.81935  0.31599  1.0000
  C   C2894     1.0  0.78246  0.76033  0.24067  1.0000
  H   H4951     1.0  0.80460  0.65880  0.21243  1.0000
  C   C2895     1.0  0.99004  0.71139  0.29677  1.0000
  S   S835      1.0  0.65646  0.81637  0.21062  1.0000
  H   H4952     1.0  0.99465  0.93152  0.32324  1.0000
  S   S836      1.0  0.65986  0.78204  0.19145  1.0000
  Fe  Fe418     1.0  0.68633  0.96680  0.32924  1.0000
  H   H4953     1.0  0.53487  0.93998  0.35584  1.0000
  H   H4954     1.0  0.81163  0.96710  0.31113  1.0000
  C   C2896     1.0  0.85891  0.83856  0.30495  1.0000
  H   H4955     1.0  0.81267  0.63783  0.23653  1.0000
  H   H4956     1.0  0.74614  0.83459  0.20790  1.0000
  H   H4957     1.0  0.67071  0.84340  0.28599  1.0000
  H   H4958     1.0  0.56934  0.96596  0.37422  1.0000
  C   C2897     1.0  0.98940  0.76648  0.32521  1.0000
  H   H4959     1.0  0.52031  0.97735  0.37242  1.0000
  C   C2898     1.0  0.98933  0.69500  0.30778  1.0000
  N   N205      1.0  0.68403  0.81942  0.29732  1.0000
  C   C2899     1.0  0.97508  0.77789  0.34451  1.0000
  C   C2900     1.0  0.73475  0.61539  0.19342  1.0000
  H   H4960     1.0  0.84314  0.95645  0.27877  1.0000
  H   H4961     1.0  0.62277  0.89277  0.20506  1.0000
  C   C2901     1.0  0.82770  0.66754  0.19957  1.0000
  H   H4962     1.0  0.00004  0.75790  0.33027  1.0000
  C   C2902     1.0  0.85668  0.62965  0.19522  1.0000
  H   H4963     1.0  0.54163  0.97038  0.36308  1.0000
  H   H4964     1.0  0.97849  0.69766  0.31609  1.0000
  C   C2903     1.0  0.54208  0.93025  0.36283  1.0000
  H   H4965     1.0  0.83734  0.97396  0.25954  1.0000
  Fe  Fe419     1.0  0.76784  0.67211  0.22096  1.0000
  C   C2904     1.0  0.70307  0.64129  0.19498  1.0000
  S   S837      1.0  0.77947  0.66424  0.23862  1.0000
  H   H4966     1.0  0.62949  0.97773  0.36047  1.0000
  H   H4967     1.0  0.96214  0.60960  0.38451  1.0000
  H   H4968     1.0  0.97855  0.74207  0.30743  1.0000
  H   H4969     1.0  0.68459  0.81968  0.27197  1.0000
  S   S838      1.0  0.73895  0.68578  0.22132  1.0000
  S   S839      1.0  0.76696  0.65352  0.20929  1.0000
  Fe  Fe420     1.0  0.72479  0.82890  0.25382  1.0000
  S   S840      1.0  0.74099  0.84058  0.23535  1.0000
  S   S841      1.0  0.72330  0.80019  0.25976  1.0000
  Fe  Fe421     1.0  0.70657  0.86509  0.26034  1.0000
  S   S842      1.0  0.72058  0.87986  0.24191  1.0000
  S   S843      1.0  0.68712  0.87474  0.27712  1.0000
  Fe  Fe422     1.0  0.71504  0.86007  0.23304  1.0000
  S   S844      1.0  0.70610  0.86459  0.21452  1.0000
  Fe  Fe423     1.0  0.74497  0.85891  0.24600  1.0000
  S   S845      1.0  0.77201  0.86245  0.24682  1.0000
  S   S846      1.0  0.69879  0.84749  0.25122  1.0000
  S   S847      1.0  0.73114  0.84506  0.26474  1.0000
  Fe  Fe424     1.0  0.91650  0.82618  0.28278  1.0000
  S   S848      1.0  0.94051  0.80810  0.27347  1.0000
  S   S849      1.0  0.89679  0.84464  0.27151  1.0000
  Fe  Fe425     1.0  0.92055  0.80596  0.30918  1.0000
  S   S850      1.0  0.94433  0.78602  0.30201  1.0000
  S   S851      1.0  0.90816  0.80537  0.32972  1.0000
  Fe  Fe426     1.0  0.95363  0.80969  0.28856  1.0000
  S   S852      1.0  0.98336  0.80858  0.28597  1.0000
  Fe  Fe427     1.0  0.92887  0.78647  0.28784  1.0000
  S   S853      1.0  0.92595  0.76147  0.28382  1.0000
  S   S854      1.0  0.93049  0.82983  0.29660  1.0000
  S   S855      1.0  0.90429  0.80428  0.29635  1.0000
  Fe  Fe428     1.0  0.79147  0.92725  0.27981  1.0000
  S   S856      1.0  0.81000  0.90387  0.28902  1.0000
  S   S857      1.0  0.77511  0.92915  0.26567  1.0000
  S   S858      1.0  0.81189  0.93008  0.30697  1.0000
  Fe  Fe429     1.0  0.82611  0.92361  0.28802  1.0000
  S   S859      1.0  0.85627  0.91909  0.28429  1.0000
  Fe  Fe430     1.0  0.79452  0.91196  0.30724  1.0000
  S   S860      1.0  0.78740  0.88998  0.32372  1.0000
  Fe  Fe431     1.0  0.82713  0.71941  0.26396  1.0000
  S   S861      1.0  0.81238  0.70903  0.28357  1.0000
  S   S862      1.0  0.82619  0.71301  0.24566  1.0000
  Fe  Fe432     1.0  0.83970  0.74626  0.27262  1.0000
  S   S863      1.0  0.82541  0.73840  0.29270  1.0000
  S   S864      1.0  0.85268  0.76977  0.26767  1.0000
  Fe  Fe433     1.0  0.83652  0.71069  0.28984  1.0000
  S   S865      1.0  0.84671  0.69210  0.30660  1.0000
  Fe  Fe434     1.0  0.80276  0.73764  0.28474  1.0000
  S   S866      1.0  0.77424  0.74742  0.29423  1.0000
  S   S867      1.0  0.85246  0.71852  0.27005  1.0000
  S   S868      1.0  0.81582  0.74807  0.26480  1.0000
  Fe  Fe435     1.0  0.92506  0.69068  0.33439  1.0000
  S   S869      1.0  0.90516  0.69438  0.35246  1.0000
  S   S870      1.0  0.92082  0.69736  0.31450  1.0000
  Fe  Fe436     1.0  0.95678  0.67726  0.34712  1.0000
  S   S871      1.0  0.93998  0.67950  0.36644  1.0000
  S   S872      1.0  0.98665  0.66740  0.34264  1.0000
  Fe  Fe437     1.0  0.92090  0.66809  0.36105  1.0000
  H   H4970     1.0  0.94719  0.77524  0.34649  1.0000
  Fe  Fe438     1.0  0.92576  0.70552  0.35639  1.0000
  S   S873      1.0  0.91815  0.72915  0.36531  1.0000
  S   S874      1.0  0.93902  0.66338  0.34255  1.0000
  S   S875      1.0  0.94426  0.70422  0.33754  1.0000
  C   C2905     1.0  0.86648  0.69595  0.30859  1.0000
  C   C2906     1.0  0.86862  0.69476  0.32081  1.0000
  C   C2907     1.0  0.88512  0.69575  0.32271  1.0000
  C   C2908     1.0  0.89952  0.69784  0.31237  1.0000
  C   C2909     1.0  0.89707  0.69999  0.30010  1.0000
  C   C2910     1.0  0.88054  0.69913  0.29820  1.0000
  H   H4971     1.0  0.85759  0.69267  0.32881  1.0000
  H   H4972     1.0  0.88685  0.69440  0.33217  1.0000
  H   H4973     1.0  0.90808  0.70188  0.29205  1.0000
  H   H4974     1.0  0.87892  0.70021  0.28873  1.0000
  H   H4975     1.0  0.60821  0.98231  0.37808  1.0000
  C   C2911     1.0  0.97868  0.83405  0.29972  1.0000
  H   H4976     1.0  0.96442  0.83558  0.30073  1.0000
  C   C2912     1.0  0.90586  0.76366  0.27899  1.0000
  C   C2913     1.0  0.89525  0.78041  0.27543  1.0000
  C   C2914     1.0  0.87905  0.78205  0.27192  1.0000
  C   C2915     1.0  0.87320  0.76697  0.27208  1.0000
  C   C2916     1.0  0.88375  0.75015  0.27568  1.0000
  C   C2917     1.0  0.90015  0.74851  0.27901  1.0000
  H   H4977     1.0  0.89970  0.79219  0.27509  1.0000
  H   H4978     1.0  0.87109  0.79510  0.26901  1.0000
  H   H4979     1.0  0.87936  0.73843  0.27581  1.0000
  H   H4980     1.0  0.90825  0.73550  0.28178  1.0000
  C   C2918     1.0  0.91595  0.75013  0.35517  1.0000
  C   C2919     1.0  0.90805  0.76512  0.36039  1.0000
  C   C2920     1.0  0.90571  0.78205  0.35252  1.0000
  C   C2921     1.0  0.91145  0.78407  0.33939  1.0000
  C   C2922     1.0  0.91961  0.76911  0.33416  1.0000
  C   C2923     1.0  0.92179  0.75213  0.34203  1.0000
  H   H4981     1.0  0.90354  0.76361  0.37056  1.0000
  H   H4982     1.0  0.89943  0.79356  0.35663  1.0000
  H   H4983     1.0  0.92387  0.77053  0.32406  1.0000
  H   H4984     1.0  0.92785  0.74063  0.33794  1.0000
  C   C2924     1.0  0.88599  0.86544  0.27499  1.0000
  C   C2925     1.0  0.86859  0.87275  0.27291  1.0000
  C   C2926     1.0  0.85942  0.88926  0.27571  1.0000
  C   C2927     1.0  0.86781  0.89872  0.28030  1.0000
  C   C2928     1.0  0.88542  0.89162  0.28209  1.0000
  C   C2929     1.0  0.89443  0.87484  0.27961  1.0000
  H   H4985     1.0  0.86215  0.86558  0.26917  1.0000
  H   H4986     1.0  0.84603  0.89481  0.27404  1.0000
  H   H4987     1.0  0.89199  0.89899  0.28555  1.0000
  H   H4988     1.0  0.90800  0.86935  0.28099  1.0000
  C   C2930     1.0  0.73759  0.78701  0.26971  1.0000
  C   C2931     1.0  0.73069  0.77510  0.28036  1.0000
  C   C2932     1.0  0.74202  0.76338  0.28802  1.0000
  C   C2933     1.0  0.76044  0.76301  0.28476  1.0000
  C   C2934     1.0  0.76744  0.77480  0.27402  1.0000
  C   C2935     1.0  0.75595  0.78706  0.26658  1.0000
  H   H4989     1.0  0.71659  0.77478  0.28262  1.0000
  H   H4990     1.0  0.73662  0.75417  0.29627  1.0000
  H   H4991     1.0  0.78167  0.77439  0.27149  1.0000
  H   H4992     1.0  0.76133  0.79607  0.25820  1.0000
  C   C2936     1.0  0.77211  0.88054  0.25292  1.0000
  C   C2937     1.0  0.75793  0.89538  0.25280  1.0000
  C   C2938     1.0  0.75896  0.91017  0.25682  1.0000
  C   C2939     1.0  0.77385  0.90998  0.26142  1.0000
  C   C2940     1.0  0.78766  0.89484  0.26208  1.0000
  C   C2941     1.0  0.78693  0.88031  0.25762  1.0000
  H   H4993     1.0  0.74649  0.89578  0.24914  1.0000
  H   H4994     1.0  0.74823  0.92185  0.25627  1.0000
  H   H4995     1.0  0.79928  0.89467  0.26547  1.0000
  H   H4996     1.0  0.79808  0.86907  0.25756  1.0000
  C   C2942     1.0  0.79300  0.67728  0.24062  1.0000
  C   C2943     1.0  0.80129  0.68871  0.23028  1.0000
  C   C2944     1.0  0.81166  0.69922  0.23202  1.0000
  C   C2945     1.0  0.81370  0.69869  0.24416  1.0000
  C   C2946     1.0  0.80559  0.68716  0.25456  1.0000
  C   C2947     1.0  0.79544  0.67634  0.25277  1.0000
  H   H4997     1.0  0.79988  0.68942  0.22089  1.0000
  H   H4998     1.0  0.81800  0.70798  0.22391  1.0000
  H   H4999     1.0  0.80719  0.68652  0.26396  1.0000
  H   H5000     1.0  0.78920  0.66746  0.26084  1.0000
  C   C2948     1.0  0.99476  0.66596  0.37591  1.0000
  C   C2949     1.0  0.81823  0.63374  0.19822  1.0000
  H   H5001     1.0  0.64346  0.54193  0.19336  1.0000
  S   S876      1.0  0.71484  0.66143  0.20607  1.0000
  C   C2950     1.0  0.86776  0.97873  0.26457  1.0000
  C   C2951     1.0  0.98505  0.84445  0.30512  1.0000
  C   C2952     1.0  0.87397  0.62189  0.33034  1.0000
  H   H5002     1.0  0.75630  0.80304  0.21184  1.0000
  C   C2953     1.0  0.64804  0.98019  0.37056  1.0000
  H   H5003     1.0  0.97648  0.94073  0.30911  1.0000
  C   C2954     1.0  0.81946  0.65407  0.21073  1.0000
  H   H5004     1.0  0.94418  0.63493  0.37178  1.0000
  C   C2955     1.0  0.84436  0.62762  0.20859  1.0000
  H   H5005     1.0  0.61038  0.86690  0.20914  1.0000
  H   H5006     1.0  0.72958  0.81027  0.29165  1.0000
  C   C2956     1.0  0.81415  0.62463  0.22119  1.0000
  H   H5007     1.0  0.91872  0.64618  0.31286  1.0000
  H   H5008     1.0  0.98629  0.75892  0.27277  1.0000
  S   S877      1.0  0.70319  0.94448  0.32001  1.0000
  H   H5009     1.0  0.84955  0.63368  0.21435  1.0000
  C   C2957     1.0  0.60818  0.93567  0.37663  1.0000
  H   H5010     1.0  0.77474  0.71016  0.24585  1.0000
  C   C2958     1.0  0.71976  0.79395  0.22814  1.0000
  C   C2959     1.0  0.81946  0.61478  0.19683  1.0000
  H   H5011     1.0  0.70429  0.98661  0.30488  1.0000
  H   H5012     1.0  0.75101  0.70958  0.23541  1.0000
  C   C2960     1.0  0.54381  0.91748  0.38481  1.0000
  C   C2961     1.0  0.56183  0.93225  0.35873  1.0000
  C   C2962     1.0  0.99873  0.68423  0.33865  1.0000
  H   H5013     1.0  0.97398  0.75886  0.28851  1.0000
  C   C2963     1.0  0.67085  0.82948  0.21117  1.0000
  C   C2964     1.0  0.67359  0.82942  0.22300  1.0000
  C   C2965     1.0  0.68451  0.83992  0.22405  1.0000
  C   C2966     1.0  0.69254  0.85096  0.21332  1.0000
  C   C2967     1.0  0.68987  0.85101  0.20141  1.0000
  C   C2968     1.0  0.67922  0.84015  0.20031  1.0000
  H   H5014     1.0  0.66718  0.82121  0.23145  1.0000
  H   H5015     1.0  0.68639  0.83963  0.23324  1.0000
  H   H5016     1.0  0.69615  0.85939  0.19302  1.0000
  H   H5017     1.0  0.83069  0.98317  0.31620  1.0000
  H   H5018     1.0  0.88498  0.61015  0.32917  1.0000
  H   H5019     1.0  0.70704  0.80182  0.22543  1.0000
  H   H5020     1.0  0.94333  0.81615  0.32375  1.0000
  C   C2969     1.0  0.73690  0.82693  0.20705  1.0000
  H   H5021     1.0  0.62919  0.90972  0.19212  1.0000
  C   C2970     1.0  0.72932  0.97976  0.27586  1.0000
  Fe  Fe439     1.0  0.65297  0.81051  0.19289  1.0000
  H   H5022     1.0  0.98861  0.80609  0.33229  1.0000
  H   H5023     1.0  0.82342  0.65550  0.21912  1.0000
  C   C2971     1.0  0.76576  0.77079  0.20068  1.0000
  C   C2972     1.0  0.68691  0.92738  0.28596  1.0000
  C   C2973     1.0  0.67784  0.91503  0.29485  1.0000
  C   C2974     1.0  0.67777  0.89914  0.29189  1.0000
  C   C2975     1.0  0.68692  0.89532  0.28005  1.0000
  C   C2976     1.0  0.69586  0.90772  0.27103  1.0000
  C   C2977     1.0  0.69572  0.92379  0.27396  1.0000
  H   H5024     1.0  0.67069  0.91777  0.30399  1.0000
  H   H5025     1.0  0.67065  0.88973  0.29886  1.0000
  H   H5026     1.0  0.70289  0.90495  0.26184  1.0000
  H   H5027     1.0  0.70272  0.93330  0.26699  1.0000
  C   C2978     1.0  0.72729  0.89866  0.34103  1.0000
  C   C2979     1.0  0.73819  0.88164  0.34283  1.0000
  C   C2980     1.0  0.75682  0.87915  0.33807  1.0000
  C   C2981     1.0  0.76455  0.89363  0.33118  1.0000
  C   C2982     1.0  0.75380  0.91072  0.32990  1.0000
  C   C2983     1.0  0.73526  0.91324  0.33503  1.0000
  H   H5028     1.0  0.73217  0.87033  0.34766  1.0000
  H   H5029     1.0  0.76512  0.86593  0.33925  1.0000
  H   H5030     1.0  0.87749  0.97722  0.27046  1.0000
  C   C2984     1.0  0.66995  0.82919  0.28960  1.0000
  C   C2985     1.0  0.96750  0.51484  0.37518  1.0000
  H   H5031     1.0  0.68634  0.73815  0.20885  1.0000
  C   C2986     1.0  0.74771  0.80856  0.20470  1.0000
  H   H5032     1.0  0.95664  0.76464  0.35999  1.0000
  C   C2987     1.0  0.58301  0.95917  0.37174  1.0000
  C   C2988     1.0  0.67084  0.82212  0.27787  1.0000
  C   C2989     1.0  0.95267  0.52881  0.38136  1.0000
  H   H5033     1.0  0.86490  0.82601  0.30157  1.0000
  H   H5034     1.0  0.63902  0.84530  0.19097  1.0000
  H   H5035     1.0  0.73596  0.95664  0.29666  1.0000
  Fe  Fe440     1.0  0.79342  0.95143  0.29615  1.0000
  S   S878      1.0  0.74008  0.73319  0.20513  1.0000
  H   H5036     1.0  0.84224  0.66583  0.19903  1.0000
  H   H5037     1.0  0.67567  0.84971  0.31683  1.0000
  H   H5038     1.0  0.83792  0.81896  0.24329  1.0000
  C   C2990     1.0  0.95980  0.76753  0.34946  1.0000
  H   H5039     1.0  0.72659  0.80229  0.23088  1.0000
  H   H5040     1.0  0.86373  0.87741  0.30415  1.0000
  S   S879      1.0  0.80899  0.94647  0.27707  1.0000
  C   C2991     1.0  0.69601  0.78740  0.30911  1.0000
  S   S880      1.0  0.62048  0.76485  0.19059  1.0000
  C   C2992     1.0  0.73338  0.63021  0.19835  1.0000
  H   H5041     1.0  0.75314  0.96915  0.29103  1.0000
  C   C2993     1.0  0.93752  0.62695  0.38023  1.0000
  H   H5042     1.0  0.71121  0.76334  0.20413  1.0000
  H   H5043     1.0  0.71794  0.75208  0.25966  1.0000
  C   C2994     1.0  0.99417  0.79495  0.32725  1.0000
  H   H5044     1.0  0.87370  0.63167  0.32122  1.0000
  H   H5045     1.0  0.70461  0.97087  0.29657  1.0000
  H   H5046     1.0  0.90166  0.86026  0.30576  1.0000
  C   C2995     1.0  0.64633  0.71335  0.20047  1.0000
  C   C2996     1.0  0.61849  0.94127  0.36449  1.0000
  C   C2997     1.0  0.61084  0.95566  0.35595  1.0000
  C   C2998     1.0  0.59310  0.96453  0.35961  1.0000
  S   S881      1.0  0.67280  0.94931  0.34626  1.0000
  C   C2999     1.0  0.99751  0.76927  0.31084  1.0000
  H   H5047     1.0  0.63221  0.93434  0.36171  1.0000
  H   H5048     1.0  0.97542  0.64903  0.38518  1.0000
  H   H5049     1.0  0.77140  0.74834  0.23057  1.0000
  H   H5050     1.0  0.85485  0.62093  0.18970  1.0000
  H   H5051     1.0  0.78318  0.84311  0.27398  1.0000
  H   H5052     1.0  0.93607  0.61337  0.33837  1.0000
  S   S882      1.0  0.62277  0.96328  0.34064  1.0000
  H   H5053     1.0  0.76331  0.83474  0.27750  1.0000
  H   H5054     1.0  0.66513  0.82420  0.31465  1.0000
  H   H5055     1.0  0.56633  0.93365  0.34830  1.0000
  H   H5056     1.0  0.89015  0.84305  0.32726  1.0000
  H   H5057     1.0  0.65890  0.72071  0.21210  1.0000
  H   H5058     1.0  0.85501  0.84909  0.29684  1.0000
  H   H5059     1.0  0.78722  0.72605  0.25918  1.0000
  H   H5060     1.0  0.77363  0.77814  0.20341  1.0000
  C   C3000     1.0  0.88192  0.85632  0.32397  1.0000
  C   C3001     1.0  0.78630  0.81905  0.26690  1.0000
  H   H5061     1.0  0.69337  0.79073  0.31849  1.0000
  H   H5062     1.0  0.70687  0.81449  0.28202  1.0000
  H   H5063     1.0  0.85430  0.94688  0.29705  1.0000
  C   C3002     1.0  0.76588  0.71624  0.27301  1.0000
  H   H5064     1.0  0.54507  0.94952  0.38113  1.0000
  H   H5065     1.0  0.54188  0.91714  0.36130  1.0000
  C   C3003     1.0  0.75337  0.72242  0.23589  1.0000
  H   H5066     1.0  0.69360  0.77381  0.31098  1.0000
  H   H5067     1.0  0.79938  0.62952  0.22188  1.0000
  H   H5068     1.0  0.99663  0.80146  0.31704  1.0000
  C   C3004     1.0  0.77699  0.74397  0.23926  1.0000
  H   H5069     1.0  0.78867  0.75743  0.24893  1.0000
  C   C3005     1.0  0.61903  0.85457  0.20641  1.0000
  C   C3006     1.0  0.99081  0.82195  0.29286  1.0000
  C   C3007     1.0  0.73885  0.96973  0.29595  1.0000
  H   H5070     1.0  0.64410  0.88874  0.19405  1.0000
  H   H5071     1.0  0.72160  0.83151  0.29551  1.0000
  C   C3008     1.0  0.73245  0.78419  0.21793  1.0000
  C   C3009     1.0  0.98561  0.89456  0.32582  1.0000
  N   N206      1.0  0.72672  0.98426  0.28858  1.0000
  H   H5072     1.0  0.69115  0.84991  0.30192  1.0000
  H   H5073     1.0  0.86578  0.96262  0.25195  1.0000
  H   H5074     1.0  0.71170  0.79406  0.20167  1.0000
  C   C3010     1.0  0.81208  0.79951  0.25627  1.0000
  C   C3011     1.0  0.85545  0.96075  0.29239  1.0000
  H   H5075     1.0  0.76222  0.75967  0.20859  1.0000
  H   H5076     1.0  0.95188  0.71864  0.31059  1.0000
  S   S883      1.0  0.74854  0.68971  0.19045  1.0000
  H   H5077     1.0  0.75515  0.98824  0.26682  1.0000
  C   C3012     1.0  0.89515  0.86672  0.31389  1.0000
  H   H5078     1.0  0.61056  0.84606  0.20564  1.0000
  H   H5079     1.0  0.96264  0.74232  0.27846  1.0000
  H   H5080     1.0  0.83189  0.60547  0.19909  1.0000
  H   H5081     1.0  0.66223  0.83212  0.27179  1.0000
  N   N207      1.0  0.87428  0.75546  0.31971  1.0000
  C   C3013     1.0  0.87241  0.74659  0.31000  1.0000
  C   C3014     1.0  0.89293  0.75914  0.31571  1.0000
  C   C3015     1.0  0.86068  0.77277  0.31905  1.0000
  C   C3016     1.0  0.87088  0.74341  0.33264  1.0000
  C   C3017     1.0  0.85404  0.74204  0.31177  1.0000
  C   C3018     1.0  0.90844  0.74269  0.31559  1.0000
  C   C3019     1.0  0.86062  0.78485  0.32765  1.0000
  C   C3020     1.0  0.87840  0.74648  0.34310  1.0000
  H   H5082     1.0  0.87521  0.75506  0.30035  1.0000
  H   H5083     1.0  0.88239  0.73390  0.30971  1.0000
  H   H5084     1.0  0.89517  0.76687  0.32168  1.0000
  H   H5085     1.0  0.89488  0.76771  0.30601  1.0000
  H   H5086     1.0  0.86248  0.78076  0.30913  1.0000
  H   H5087     1.0  0.84680  0.77042  0.32162  1.0000
  H   H5088     1.0  0.85621  0.74412  0.33632  1.0000
  H   H5089     1.0  0.87677  0.72935  0.33188  1.0000
  H   H5090     1.0  0.84347  0.75404  0.30974  1.0000
  H   H5091     1.0  0.85532  0.73407  0.30476  1.0000
  H   H5092     1.0  0.84975  0.73383  0.32126  1.0000
  H   H5093     1.0  0.91022  0.73689  0.30729  1.0000
  H   H5094     1.0  0.92112  0.74680  0.31461  1.0000
  H   H5095     1.0  0.90677  0.73235  0.32437  1.0000
  H   H5096     1.0  0.87361  0.78884  0.32579  1.0000
  H   H5097     1.0  0.85641  0.77879  0.33781  1.0000
  H   H5098     1.0  0.85049  0.79731  0.32570  1.0000
  H   H5099     1.0  0.86809  0.74572  0.35209  1.0000
  H   H5100     1.0  0.88235  0.75928  0.34118  1.0000
  H   H5101     1.0  0.89004  0.73565  0.34519  1.0000
  N   N208      1.0  0.86597  0.85467  0.31974  1.0000
  C   C3021     1.0  0.85357  0.84658  0.33135  1.0000
  C   C3022     1.0  0.85669  0.87309  0.31408  1.0000
  C   C3023     1.0  0.86149  0.82791  0.33838  1.0000
  C   C3024     1.0  0.83665  0.87611  0.31395  1.0000
  H   H5102     1.0  0.87737  0.86284  0.33224  1.0000
  H   H5103     1.0  0.84108  0.84557  0.32918  1.0000
  H   H5104     1.0  0.84889  0.85537  0.33831  1.0000
  H   H5105     1.0  0.85728  0.88293  0.31926  1.0000
  H   H5106     1.0  0.87225  0.82807  0.34293  1.0000
  H   H5107     1.0  0.85076  0.82288  0.34611  1.0000
  H   H5108     1.0  0.86663  0.81834  0.33208  1.0000
  H   H5109     1.0  0.83235  0.88978  0.30861  1.0000
  H   H5110     1.0  0.82811  0.87532  0.32365  1.0000
  H   H5111     1.0  0.83383  0.86706  0.30923  1.0000
  H   H5112     1.0  0.78964  0.73398  0.23705  1.0000
  H   H5113     1.0  0.71596  0.78400  0.23688  1.0000
  H   H5114     1.0  0.87092  0.62552  0.19615  1.0000
  C   C3025     1.0  0.98363  0.75023  0.28234  1.0000
  N   N209      1.0  0.53298  0.93179  0.37629  1.0000
  H   H5115     1.0  0.72938  0.72985  0.26239  1.0000
  H   H5116     1.0  0.90610  0.86703  0.31823  1.0000
  C   C3026     1.0  0.67823  0.84636  0.30743  1.0000
  C   C3027     1.0  0.96671  0.73627  0.31234  1.0000
  H   H5117     1.0  0.78144  0.82658  0.25816  1.0000
  C   C3028     1.0  0.95383  0.80957  0.32936  1.0000
  H   H5118     1.0  0.74875  0.76066  0.25534  1.0000
  H   H5119     1.0  0.65615  0.82924  0.29556  1.0000
  H   H5120     1.0  0.75114  0.71866  0.27625  1.0000
  H   H5121     1.0  0.79274  0.76438  0.23216  1.0000
  N   N210      1.0  0.97226  0.72114  0.29335  1.0000
  C   C3029     1.0  0.96449  0.70793  0.29025  1.0000
  H   H5122     1.0  0.50568  0.94154  0.36120  1.0000
  C   C3030     1.0  0.66325  0.71169  0.20535  1.0000
  C   C3031     1.0  0.95903  0.72889  0.30399  1.0000
  C   C3032     1.0  0.94692  0.71538  0.28534  1.0000
  H   H5123     1.0  0.86995  0.95991  0.28838  1.0000
  N   N211      1.0  0.82447  0.63500  0.20945  1.0000
  C   C3033     1.0  0.51442  0.92803  0.37925  1.0000
  H   H5124     1.0  0.97443  0.70098  0.28307  1.0000
  H   H5125     1.0  0.96126  0.69741  0.29879  1.0000
  H   H5126     1.0  0.85480  0.64339  0.18961  1.0000
  H   H5127     1.0  0.99358  0.67094  0.36584  1.0000
  H   H5128     1.0  0.84706  0.61314  0.21282  1.0000
  H   H5129     1.0  0.96364  0.75456  0.34666  1.0000
  H   H5130     1.0  0.94847  0.73967  0.30019  1.0000
  Fe  Fe441     1.0  0.75032  0.70454  0.20421  1.0000
  H   H5131     1.0  0.93645  0.72307  0.29175  1.0000
  H   H5132     1.0  0.94909  0.72354  0.27557  1.0000
  H   H5133     1.0  0.94147  0.70417  0.28499  1.0000
  H   H5134     1.0  0.97076  0.78975  0.34883  1.0000
  Fe  Fe442     1.0  0.73933  0.66965  0.20758  1.0000
  H   H5135     1.0  0.96974  0.72604  0.32081  1.0000
  H   H5136     1.0  0.99395  0.72721  0.33998  1.0000
  S   S884      1.0  0.90579  0.64811  0.37470  1.0000
  C   C3034     1.0  0.97542  0.73532  0.28151  1.0000
  C   C3035     1.0  0.72859  0.74473  0.19308  1.0000
  N   N212      1.0  0.73588  0.89298  0.30013  1.0000
  C   C3036     1.0  0.74496  0.90856  0.29544  1.0000
  C   C3037     1.0  0.74806  0.87794  0.30710  1.0000
  C   C3038     1.0  0.71861  0.89852  0.30929  1.0000
  C   C3039     1.0  0.73227  0.88853  0.28894  1.0000
  C   C3040     1.0  0.73406  0.92585  0.28874  1.0000
  C   C3041     1.0  0.76755  0.87301  0.29964  1.0000
  C   C3042     1.0  0.70748  0.88435  0.31624  1.0000
  C   C3043     1.0  0.73133  0.86920  0.29006  1.0000
  H   H5137     1.0  0.74863  0.91157  0.30344  1.0000
  H   H5138     1.0  0.75775  0.90553  0.28848  1.0000
  H   H5139     1.0  0.74264  0.86571  0.31036  1.0000
  H   H5140     1.0  0.74885  0.88121  0.31590  1.0000
  H   H5141     1.0  0.72136  0.90369  0.31668  1.0000
  H   H5142     1.0  0.70932  0.90964  0.30444  1.0000
  H   H5143     1.0  0.71949  0.89700  0.28664  1.0000
  H   H5144     1.0  0.74268  0.89167  0.28024  1.0000
  H   H5145     1.0  0.72877  0.92384  0.28117  1.0000
  H   H5146     1.0  0.72300  0.93219  0.29560  1.0000
  H   H5147     1.0  0.74293  0.93541  0.28414  1.0000
  H   H5148     1.0  0.76824  0.87290  0.28966  1.0000
  H   H5149     1.0  0.77556  0.88239  0.29978  1.0000
  H   H5150     1.0  0.77410  0.85966  0.30429  1.0000
  H   H5151     1.0  0.70121  0.88107  0.30970  1.0000
  H   H5152     1.0  0.69617  0.88999  0.32338  1.0000
  H   H5153     1.0  0.71517  0.87234  0.32156  1.0000
  H   H5154     1.0  0.74481  0.86031  0.28949  1.0000
  H   H5155     1.0  0.72623  0.86870  0.28190  1.0000
  H   H5156     1.0  0.72211  0.86392  0.29872  1.0000
  H   H5157     1.0  0.61402  0.92441  0.38319  1.0000
  H   H5158     1.0  0.74850  0.97611  0.25825  1.0000
  H   H5159     1.0  0.82985  0.97159  0.28775  1.0000
  H   H5160     1.0  0.60547  0.89145  0.19214  1.0000
  C   C3044     1.0  0.83662  0.98635  0.26250  1.0000
  H   H5161     1.0  0.96230  0.50344  0.37493  1.0000
  H   H5162     1.0  0.94216  0.53376  0.37562  1.0000
  C   C3045     1.0  0.87455  0.63058  0.34084  1.0000
  H   H5163     1.0  0.72643  0.82624  0.21585  1.0000
  C   C3046     1.0  0.83449  0.82616  0.25108  1.0000
  N   N213      1.0  0.84858  0.98300  0.27174  1.0000
  H   H5164     1.0  0.88767  0.95974  0.25458  1.0000
  H   H5165     1.0  0.97559  0.85396  0.31025  1.0000
  H   H5166     1.0  0.99432  0.93852  0.29578  1.0000
  C   C3047     1.0  0.62975  0.89523  0.19492  1.0000
  H   H5167     1.0  0.70366  0.72210  0.21556  1.0000
  H   H5168     1.0  0.99663  0.74529  0.28534  1.0000
  H   H5169     1.0  0.52188  0.96483  0.36126  1.0000
  S   S885      1.0  0.77902  0.69170  0.20435  1.0000
  C   C3048     1.0  0.59041  0.94472  0.38032  1.0000
  C   C3049     1.0  0.74668  0.74941  0.25230  1.0000
  C   C3050     1.0  0.80644  0.78966  0.28491  1.0000
  C   C3051     1.0  0.80635  0.80517  0.24342  1.0000
  H   H5170     1.0  0.75322  0.71183  0.25556  1.0000
  C   C3052     1.0  0.52886  0.96608  0.36815  1.0000
  C   C3053     1.0  0.98970  0.64756  0.38002  1.0000
  H   H5171     1.0  0.56366  0.94411  0.36107  1.0000
  C   C3054     1.0  0.71498  0.75957  0.19507  1.0000
  H   H5172     1.0  0.63566  0.70917  0.20866  1.0000
  H   H5173     1.0  0.69342  0.62537  0.18653  1.0000
  C   C3055     1.0  0.76158  0.71946  0.24749  1.0000
  H   H5174     1.0  0.71035  0.78650  0.30434  1.0000
  H   H5175     1.0  0.75727  0.81134  0.19544  1.0000
  H   H5176     1.0  0.66959  0.79818  0.30519  1.0000
  S   S886      1.0  0.66508  0.97206  0.31821  1.0000
  C   C3056     1.0  0.87319  0.96174  0.25925  1.0000
  H   H5177     1.0  0.87152  0.94977  0.26685  1.0000
  C   C3057     1.0  0.81809  0.62474  0.23392  1.0000
  C   C3058     1.0  0.69095  0.72378  0.21252  1.0000
  H   H5178     1.0  0.98452  0.91981  0.30483  1.0000
  C   C3059     1.0  0.69462  0.71280  0.20236  1.0000
  H   H5179     1.0  0.74737  0.95919  0.31381  1.0000
  C   C3060     1.0  0.87292  0.84326  0.31001  1.0000
  H   H5180     1.0  0.95612  0.74693  0.31616  1.0000
  H   H5181     1.0  0.99668  0.72007  0.29929  1.0000
  H   H5182     1.0  0.64450  0.86094  0.19669  1.0000
  H   H5183     1.0  0.81150  0.81611  0.28160  1.0000
  N   N214      1.0  0.76399  0.73581  0.25046  1.0000
  H   H5184     1.0  0.66639  0.69798  0.21113  1.0000
  C   C3061     1.0  0.84377  0.96783  0.28239  1.0000
  H   H5185     1.0  0.86272  0.64187  0.34097  1.0000
  C   C3062     1.0  0.71744  0.64311  0.19930  1.0000
  H   H5186     1.0  0.73059  0.83484  0.19901  1.0000
  H   H5187     1.0  0.71482  0.81242  0.30649  1.0000
  H   H5188     1.0  0.81699  0.61040  0.22081  1.0000
  H   H5189     1.0  0.76266  0.72665  0.22685  1.0000
  H   H5190     1.0  0.62592  0.84713  0.21429  1.0000
  H   H5191     1.0  0.99183  0.70184  0.37104  1.0000
  C   C3063     1.0  0.96526  0.79305  0.32429  1.0000
  H   H5192     1.0  0.57091  0.92036  0.36308  1.0000
  H   H5193     1.0  0.80399  0.64081  0.19862  1.0000
  C   C3064     1.0  0.72040  0.61358  0.18909  1.0000
  H   H5194     1.0  0.97619  0.70408  0.34514  1.0000
  H   H5195     1.0  0.79216  0.79028  0.28539  1.0000
  H   H5196     1.0  0.83261  0.62055  0.23399  1.0000
  S   S887      1.0  0.62603  0.81537  0.18787  1.0000
  H   H5197     1.0  0.83853  0.83910  0.24683  1.0000
  H   H5198     1.0  0.80728  0.78894  0.29476  1.0000
  C   C3065     1.0  0.68552  0.70286  0.18688  1.0000
  H   H5199     1.0  0.82837  0.80139  0.27376  1.0000
  H   H5200     1.0  0.95609  0.78420  0.32523  1.0000
  H   H5201     1.0  0.95873  0.54040  0.38001  1.0000
  H   H5202     1.0  0.77097  0.77183  0.24123  1.0000
  H   H5203     1.0  0.81191  0.83881  0.26338  1.0000
  C   C3066     1.0  0.81416  0.82962  0.25698  1.0000
  H   H5204     1.0  0.68122  0.71900  0.22113  1.0000
  C   C3067     1.0  0.77238  0.73084  0.26190  1.0000
  H   H5205     1.0  0.98419  0.72927  0.27349  1.0000
  H   H5206     1.0  0.77095  0.70301  0.27053  1.0000
  H   H5207     1.0  0.84277  0.81893  0.25817  1.0000
  H   H5208     1.0  0.73086  0.74432  0.27179  1.0000
  H   H5209     1.0  0.77988  0.80742  0.27001  1.0000
  H   H5210     1.0  0.74451  0.63141  0.20169  1.0000
  H   H5211     1.0  0.66554  0.80982  0.28064  1.0000
  H   H5212     1.0  0.74022  0.73188  0.23654  1.0000
  C   C3068     1.0  0.00039  0.71430  0.33791  1.0000
  H   H5213     1.0  0.72723  0.92647  0.33449  1.0000
  H   H5214     1.0  0.70073  0.83651  0.28406  1.0000
  H   H5215     1.0  0.97934  0.75825  0.32698  1.0000
  H   H5216     1.0  0.88231  0.83080  0.31332  1.0000
  H   H5217     1.0  0.81116  0.61526  0.24159  1.0000
  C   C3069     1.0  0.70739  0.98423  0.29518  1.0000
  H   H5218     1.0  0.68730  0.79463  0.29180  1.0000
  H   H5219     1.0  0.98050  0.88454  0.33406  1.0000
  H   H5220     1.0  0.55728  0.92027  0.38367  1.0000
  H   H5221     1.0  0.82687  0.79444  0.25448  1.0000
  C   C3070     1.0  0.70207  0.82252  0.28942  1.0000
  H   H5222     1.0  0.77052  0.74263  0.26590  1.0000
  C   C3071     1.0  0.71756  0.81893  0.29638  1.0000
  H   H5223     1.0  0.69823  0.69857  0.20706  1.0000
  H   H5224     1.0  0.88872  0.88070  0.31044  1.0000
  C   C3072     1.0  0.70460  0.62669  0.18976  1.0000
  H   H5225     1.0  0.74230  0.75581  0.24321  1.0000
  H   H5226     1.0  0.81222  0.79420  0.23826  1.0000
  C   C3073     1.0  0.81353  0.80589  0.27603  1.0000
  H   H5227     1.0  0.65895  0.98721  0.36920  1.0000
  C   C3074     1.0  0.73054  0.74334  0.26218  1.0000
  C   C3075     1.0  0.63323  0.85812  0.19405  1.0000
  H   H5228     1.0  0.90344  0.63199  0.31459  1.0000
  C   C3076     1.0  0.99032  0.70120  0.34083  1.0000
  H   H5229     1.0  0.80710  0.83745  0.24924  1.0000
  S   S888      1.0  0.77467  0.93379  0.29816  1.0000
  C   C3077     1.0  0.67870  0.82646  0.30930  1.0000
  H   H5230     1.0  0.99962  0.90227  0.33633  1.0000
  S   S889      1.0  0.69839  0.98664  0.33329  1.0000
  H   H5231     1.0  0.94676  0.80612  0.33938  1.0000
  N   N215      1.0  0.80650  0.81349  0.26405  1.0000
  C   C3078     1.0  0.63836  0.98691  0.35941  1.0000
  N   N216      1.0  0.98098  0.78309  0.33031  1.0000
  H   H5232     1.0  0.98724  0.88932  0.31732  1.0000
  H   H5233     1.0  0.75980  0.92204  0.32513  1.0000
  C   C3079     1.0  0.53218  0.94954  0.37890  1.0000
  H   H5234     1.0  0.67737  0.84011  0.19113  1.0000
  H   H5235     1.0  0.78024  0.82347  0.28636  1.0000
  H   H5236     1.0  0.80644  0.78770  0.26158  1.0000
  H   H5237     1.0  0.98394  0.67510  0.38117  1.0000
  H   H5238     1.0  0.66749  0.74356  0.19507  1.0000
  H   H5239     1.0  0.70709  0.71592  0.19559  1.0000
  C   C3080     1.0  0.77805  0.83074  0.27680  1.0000
  H   H5240     1.0  0.87397  0.66552  0.36071  1.0000
  H   H5241     1.0  0.97513  0.90694  0.32581  1.0000
  H   H5242     1.0  0.88151  0.84988  0.30146  1.0000
  H   H5243     1.0  0.77151  0.71567  0.28121  1.0000
  H   H5244     1.0  0.85090  0.96867  0.29981  1.0000
  H   H5245     1.0  0.66719  0.85486  0.30281  1.0000
  N   N217      1.0  0.89150  0.63676  0.33950  1.0000
  C   C3081     1.0  0.88925  0.64436  0.35092  1.0000
  C   C3082     1.0  0.90708  0.62103  0.33993  1.0000
  H   H5246     1.0  0.54645  0.90441  0.38219  1.0000
  C   C3083     1.0  0.89446  0.65111  0.32772  1.0000
  C   C3084     1.0  0.87242  0.65905  0.35357  1.0000
  C   C3085     1.0  0.92505  0.62498  0.34008  1.0000
  H   H5247     1.0  0.89862  0.65482  0.30730  1.0000
  C   C3086     1.0  0.90441  0.64522  0.31514  1.0000
  H   H5248     1.0  0.88907  0.63374  0.35973  1.0000
  H   H5249     1.0  0.90087  0.65029  0.34998  1.0000
  H   H5250     1.0  0.90973  0.61448  0.33192  1.0000
  H   H5251     1.0  0.90389  0.61057  0.34854  1.0000
  H   H5252     1.0  0.65447  0.96595  0.37100  1.0000
  H   H5253     1.0  0.74469  0.77748  0.22177  1.0000
  H   H5254     1.0  0.88137  0.65983  0.32616  1.0000
  H   H5255     1.0  0.90249  0.65976  0.32898  1.0000
  H   H5256     1.0  0.86016  0.65350  0.35774  1.0000
  H   H5257     1.0  0.87052  0.66946  0.34501  1.0000
  H   H5258     1.0  0.64887  0.98475  0.35079  1.0000
  H   H5259     1.0  0.92838  0.63658  0.33262  1.0000
  H   H5260     1.0  0.92492  0.62715  0.34948  1.0000
  H   H5261     1.0  0.82140  0.68109  0.20127  1.0000
  H   H5262     1.0  0.96989  0.79777  0.31393  1.0000
  H   H5263     1.0  0.81035  0.98449  0.27560  1.0000
  N   N218      1.0  0.67967  0.71584  0.19550  1.0000
  C   C3087     1.0  0.74873  0.97708  0.26790  1.0000
  C   C3088     1.0  0.98886  0.93145  0.30547  1.0000
  N   N219      1.0  0.73718  0.79532  0.20479  1.0000
  H   H5264     1.0  0.58710  0.97561  0.35301  1.0000
  C   C3089     1.0  0.91878  0.63073  0.38388  1.0000
  H   H5265     1.0  0.69065  0.65114  0.19576  1.0000
  H   H5266     1.0  0.51526  0.91441  0.37814  1.0000
  Fe  Fe443     1.0  0.77608  0.67440  0.19265  1.0000
  H   H5267     1.0  0.75720  0.96442  0.27189  1.0000
  H   H5268     1.0  0.61594  0.54385  0.18953  1.0000
  H   H5269     1.0  0.72625  0.77340  0.21760  1.0000
  H   H5270     1.0  0.64847  0.70467  0.19379  1.0000
  H   H5271     1.0  0.60027  0.86566  0.18899  1.0000
  C   C3090     1.0  0.74883  0.78295  0.19630  1.0000
  C   C3091     1.0  0.73825  0.97104  0.30945  1.0000
  S   S890      1.0  0.78179  0.97984  0.29831  1.0000
  H   H5272     1.0  0.74331  0.98262  0.30941  1.0000
  H   H5273     1.0  0.82515  0.66739  0.19038  1.0000
  H   H5274     1.0  0.74102  0.77421  0.19503  1.0000
  C   C3092     1.0  0.72014  0.80391  0.19996  1.0000
  H   H5275     1.0  0.97280  0.52102  0.36520  1.0000
  H   H5276     1.0  0.64085  0.72732  0.19626  1.0000
  H   H5277     1.0  0.74700  0.60530  0.19293  1.0000
  H   H5278     1.0  0.72482  0.97107  0.31562  1.0000
  H   H5279     1.0  0.98769  0.68356  0.30474  1.0000
  H   H5280     1.0  0.87176  0.62105  0.35007  1.0000
  H   H5281     1.0  0.99967  0.70679  0.28842  1.0000
  H   H5282     1.0  0.77458  0.76462  0.19277  1.0000
  H   H5283     1.0  0.80762  0.60956  0.20297  1.0000
  H   H5284     1.0  0.82565  0.64058  0.18914  1.0000
  H   H5285     1.0  0.77669  0.64066  0.18732  1.0000
  C   C3093     1.0  0.80888  0.98143  0.30881  1.0000
  C   C3094     1.0  0.67622  0.73496  0.18849  1.0000
  H   H5286     1.0  0.63869  0.98106  0.37982  1.0000
  H   H5287     1.0  0.68713  0.68899  0.19259  1.0000
  H   H5288     1.0  0.92895  0.51051  0.37943  1.0000
  H   H5289     1.0  0.86121  0.61716  0.33294  1.0000
  H   H5290     1.0  0.81928  0.61506  0.18690  1.0000
  H   H5291     1.0  0.87061  0.98998  0.25649  1.0000
  H   H5292     1.0  0.72119  0.99036  0.26974  1.0000
  H   H5293     1.0  0.66471  0.54779  0.18637  1.0000
  H   H5294     1.0  0.58736  0.55288  0.18641  1.0000
  H   H5295     1.0  0.69630  0.78150  0.18676  1.0000
  C   C3095     1.0  0.61966  0.89033  0.18672  1.0000
  H   H5296     1.0  0.75365  0.79049  0.18659  1.0000
  C   C3096     1.0  0.72279  0.81268  0.18572  1.0000
  H   H5297     1.0  0.98572  0.66901  0.55294  1.0000
  N   N220      1.0  0.99715  0.50514  0.48538  1.0000
  H   H5298     1.0  0.99600  0.52420  0.52670  1.0000
  H   H5299     1.0  0.96361  0.69400  0.52592  1.0000
  H   H5300     1.0  0.54752  0.97888  0.48115  1.0000
  C   C3097     1.0  0.98228  0.52085  0.48813  1.0000
  H   H5301     1.0  0.93271  0.51382  0.49153  1.0000
  H   H5302     1.0  0.98747  0.59920  0.42599  1.0000
  Fe  Fe444     1.0  0.95404  0.60819  0.51539  1.0000
  S   S891      1.0  0.92832  0.62303  0.52544  1.0000
  S   S892      1.0  0.97273  0.62358  0.50051  1.0000
  Fe  Fe445     1.0  0.94542  0.57210  0.52927  1.0000
  S   S893      1.0  0.91931  0.58412  0.54075  1.0000
  S   S894      1.0  0.95599  0.54287  0.53028  1.0000
  Fe  Fe446     1.0  0.91600  0.60279  0.52215  1.0000
  S   S895      1.0  0.89060  0.60979  0.51480  1.0000
  Fe  Fe447     1.0  0.93449  0.60290  0.54285  1.0000
  S   S896      1.0  0.93631  0.60767  0.56146  1.0000
  S   S897      1.0  0.94132  0.58967  0.51070  1.0000
  S   S898      1.0  0.96111  0.58914  0.53276  1.0000
  C   C3098     1.0  0.99138  0.62402  0.51780  1.0000
  S   S899      1.0  0.56463  0.96013  0.51232  1.0000
  H   H5303     1.0  0.64838  0.91645  0.51020  1.0000
  C   C3099     1.0  0.98165  0.56319  0.56973  1.0000
  H   H5304     1.0  0.67313  0.89613  0.53659  1.0000
  Fe  Fe448     1.0  0.57831  0.97374  0.49329  1.0000
  S   S900      1.0  0.58589  0.96347  0.47534  1.0000
  H   H5305     1.0  0.54138  0.89955  0.50438  1.0000
  S   S901      1.0  0.59616  0.95454  0.53656  1.0000
  S   S902      1.0  0.93281  0.71671  0.57502  1.0000
  Fe  Fe449     1.0  0.54672  0.98703  0.51301  1.0000
  H   H5306     1.0  0.96585  0.59040  0.45282  1.0000
  H   H5307     1.0  0.94142  0.67456  0.55768  1.0000
  H   H5308     1.0  0.92836  0.70515  0.55329  1.0000
  H   H5309     1.0  0.52219  0.89065  0.51314  1.0000
  C   C3100     1.0  0.63654  0.97985  0.53089  1.0000
  S   S903      1.0  0.52910  0.95316  0.41601  1.0000
  H   H5310     1.0  0.52169  0.95191  0.38752  1.0000
  C   C3101     1.0  0.99058  0.58615  0.42333  1.0000
  H   H5311     1.0  0.97034  0.63577  0.55810  1.0000
  Fe  Fe450     1.0  0.55527  0.95878  0.40320  1.0000
  C   C3102     1.0  0.97466  0.52142  0.50226  1.0000
  C   C3103     1.0  0.53552  0.91473  0.39914  1.0000
  Fe  Fe451     1.0  0.91358  0.57669  0.45239  1.0000
  S   S904      1.0  0.92739  0.55093  0.46262  1.0000
  S   S905      1.0  0.88924  0.59253  0.46324  1.0000
  Fe  Fe452     1.0  0.93923  0.57334  0.42725  1.0000
  S   S906      1.0  0.95485  0.54696  0.43559  1.0000
  Fe  Fe453     1.0  0.92815  0.54063  0.44582  1.0000
  S   S907      1.0  0.92466  0.51252  0.45098  1.0000
  Fe  Fe454     1.0  0.95265  0.55952  0.45154  1.0000
  S   S908      1.0  0.97650  0.55194  0.46035  1.0000
  S   S909      1.0  0.91235  0.56590  0.43609  1.0000
  S   S910      1.0  0.93895  0.58646  0.44263  1.0000
  C   C3104     1.0  0.97885  0.58697  0.45516  1.0000
  C   C3105     1.0  0.98689  0.56918  0.45912  1.0000
  C   C3106     1.0  0.64222  0.97383  0.54241  1.0000
  H   H5312     1.0  0.61118  0.94878  0.55845  1.0000
  C   C3107     1.0  0.99596  0.55687  0.40711  1.0000
  N   N221      1.0  0.94454  0.52276  0.39515  1.0000
  H   H5313     1.0  0.88775  0.79826  0.57985  1.0000
  H   H5314     1.0  0.88759  0.55104  0.48064  1.0000
  C   C3108     1.0  0.76256  0.95481  0.57957  1.0000
  S   S911      1.0  0.95218  0.58423  0.40711  1.0000
  C   C3109     1.0  0.66813  0.92818  0.54288  1.0000
  H   H5315     1.0  0.99854  0.68712  0.53487  1.0000
  H   H5316     1.0  0.52327  0.98176  0.47013  1.0000
  H   H5317     1.0  0.50313  0.91030  0.49899  1.0000
  H   H5318     1.0  0.98504  0.51921  0.50776  1.0000
  C   C3110     1.0  0.94356  0.54729  0.56346  1.0000
  C   C3111     1.0  0.91313  0.50541  0.44256  1.0000
  C   C3112     1.0  0.90620  0.51671  0.43232  1.0000
  C   C3113     1.0  0.89926  0.50983  0.42479  1.0000
  C   C3114     1.0  0.96048  0.53333  0.58100  1.0000
  H   H5319     1.0  0.98916  0.59073  0.48687  1.0000
  H   H5320     1.0  0.90651  0.53062  0.43011  1.0000
  H   H5321     1.0  0.89429  0.51845  0.41668  1.0000
  C   C3115     1.0  0.56836  0.96608  0.46766  1.0000
  C   C3116     1.0  0.97626  0.53622  0.55832  1.0000
  H   H5322     1.0  0.94293  0.52782  0.42024  1.0000
  C   C3117     1.0  0.54083  0.96944  0.45511  1.0000
  C   C3118     1.0  0.55849  0.96147  0.45025  1.0000
  C   C3119     1.0  0.57219  0.95972  0.45654  1.0000
  H   H5323     1.0  0.98534  0.65578  0.49133  1.0000
  H   H5324     1.0  0.63960  0.94649  0.50019  1.0000
  H   H5325     1.0  0.56157  0.95620  0.44183  1.0000
  H   H5326     1.0  0.58579  0.95334  0.45280  1.0000
  C   C3120     1.0  0.61257  0.96357  0.53919  1.0000
  H   H5327     1.0  0.91278  0.52080  0.47803  1.0000
  H   H5328     1.0  0.92199  0.50888  0.50817  1.0000
  C   C3121     1.0  0.92655  0.55664  0.57167  1.0000
  H   H5329     1.0  0.99268  0.56131  0.56133  1.0000
  N   N222      1.0  0.65643  0.91901  0.52655  1.0000
  S   S912      1.0  0.68687  0.95229  0.57279  1.0000
  H   H5330     1.0  0.86009  0.50852  0.51756  1.0000
  C   C3122     1.0  0.89023  0.60286  0.50121  1.0000
  C   C3123     1.0  0.90460  0.59095  0.49546  1.0000
  C   C3124     1.0  0.90437  0.58725  0.48391  1.0000
  C   C3125     1.0  0.88962  0.59526  0.47821  1.0000
  C   C3126     1.0  0.87494  0.60642  0.48429  1.0000
  C   C3127     1.0  0.87526  0.61022  0.49569  1.0000
  H   H5331     1.0  0.91595  0.58471  0.49981  1.0000
  H   H5332     1.0  0.91571  0.57850  0.47933  1.0000
  H   H5333     1.0  0.86343  0.61255  0.47999  1.0000
  H   H5334     1.0  0.86401  0.61927  0.50011  1.0000
  C   C3128     1.0  0.92752  0.62871  0.56542  1.0000
  C   C3129     1.0  0.91581  0.64189  0.55876  1.0000
  C   C3130     1.0  0.90892  0.65843  0.56223  1.0000
  C   C3131     1.0  0.55070  0.97420  0.47247  1.0000
  H   H5335     1.0  0.95297  0.56881  0.57468  1.0000
  H   H5336     1.0  0.62731  0.91068  0.55533  1.0000
  H   H5337     1.0  0.91186  0.63928  0.55105  1.0000
  H   H5338     1.0  0.89976  0.66851  0.55709  1.0000
  C   C3132     1.0  0.50562  0.97856  0.51791  1.0000
  C   C3133     1.0  0.98996  0.64899  0.49998  1.0000
  C   C3134     1.0  0.91426  0.51061  0.53420  1.0000
  C   C3135     1.0  0.90883  0.52876  0.53420  1.0000
  C   C3136     1.0  0.92156  0.53884  0.53277  1.0000
  C   C3137     1.0  0.93977  0.53073  0.53162  1.0000
  C   C3138     1.0  0.94520  0.51261  0.53159  1.0000
  C   C3139     1.0  0.93251  0.50261  0.53270  1.0000
  H   H5339     1.0  0.89473  0.53506  0.53529  1.0000
  H   H5340     1.0  0.91720  0.55284  0.53268  1.0000
  H   H5341     1.0  0.95927  0.50631  0.53071  1.0000
  H   H5342     1.0  0.96681  0.52926  0.39970  1.0000
  H   H5343     1.0  0.96589  0.53467  0.50300  1.0000
  C   C3140     1.0  0.93365  0.55518  0.39808  1.0000
  S   S913      1.0  0.57738  0.93751  0.39543  1.0000
  Fe  Fe455     1.0  0.58306  0.96972  0.52005  1.0000
  H   H5344     1.0  0.64774  0.95491  0.51017  1.0000
  H   H5345     1.0  0.88098  0.56262  0.50054  1.0000
  H   H5346     1.0  0.97692  0.54505  0.54871  1.0000
  C   C3141     1.0  0.63836  0.91704  0.53505  1.0000
  H   H5347     1.0  0.62823  0.94487  0.51635  1.0000
  C   C3142     1.0  0.94252  0.66917  0.53065  1.0000
  C   C3143     1.0  0.61807  0.95770  0.55081  1.0000
  H   H5348     1.0  0.54040  0.93026  0.45953  1.0000
  H   H5349     1.0  0.97066  0.52202  0.48405  1.0000
  H   H5350     1.0  0.92139  0.53295  0.40879  1.0000
  H   H5351     1.0  0.86965  0.54003  0.48700  1.0000
  S   S914      1.0  0.52330  0.97042  0.44791  1.0000
  H   H5352     1.0  0.93391  0.69988  0.53817  1.0000
  H   H5353     1.0  0.90343  0.54020  0.50557  1.0000
  C   C3144     1.0  0.96350  0.56249  0.56744  1.0000
  H   H5354     1.0  0.63703  0.95824  0.56139  1.0000
  H   H5355     1.0  0.91298  0.54415  0.48914  1.0000
  H   H5356     1.0  0.89574  0.62322  0.39769  1.0000
  H   H5357     1.0  0.87655  0.50977  0.48354  1.0000
  C   C3145     1.0  0.97957  0.66094  0.54933  1.0000
  H   H5358     1.0  0.94141  0.62215  0.58070  1.0000
  H   H5359     1.0  0.96786  0.65171  0.53283  1.0000
  C   C3146     1.0  0.86818  0.51033  0.50770  1.0000
  C   C3147     1.0  0.92388  0.50689  0.38979  1.0000
  H   H5360     1.0  0.89908  0.63655  0.45341  1.0000
  C   C3148     1.0  0.88915  0.51346  0.47765  1.0000
  H   H5361     1.0  0.98748  0.58885  0.41384  1.0000
  C   C3149     1.0  0.87130  0.55657  0.49853  1.0000
  H   H5362     1.0  0.91452  0.55571  0.56878  1.0000
  C   C3150     1.0  0.92525  0.51956  0.49991  1.0000
  C   C3151     1.0  0.88056  0.54349  0.48967  1.0000
  H   H5363     1.0  0.50575  0.94897  0.49076  1.0000
  H   H5364     1.0  0.96196  0.57164  0.55822  1.0000
  H   H5365     1.0  0.88607  0.52566  0.47034  1.0000
  H   H5366     1.0  0.52708  0.95702  0.52319  1.0000
  H   H5367     1.0  0.99541  0.58868  0.50771  1.0000
  H   H5368     1.0  0.92081  0.49352  0.39190  1.0000
  S   S915      1.0  0.66235  0.97857  0.54322  1.0000
  C   C3152     1.0  0.88806  0.96328  0.58438  1.0000
  H   H5369     1.0  0.89617  0.50263  0.47250  1.0000
  C   C3153     1.0  0.63269  0.96304  0.55249  1.0000
  H   H5370     1.0  0.98493  0.56016  0.41509  1.0000
  C   C3154     1.0  0.93982  0.70065  0.54580  1.0000
  H   H5371     1.0  0.99203  0.56592  0.39842  1.0000
  Fe  Fe456     1.0  0.67105  0.97603  0.56143  1.0000
  H   H5372     1.0  0.94930  0.51272  0.57704  1.0000
  H   H5373     1.0  0.99068  0.65409  0.54267  1.0000
  S   S916      1.0  0.98101  0.70158  0.58160  1.0000
  H   H5374     1.0  0.98509  0.64013  0.56569  1.0000
  Fe  Fe457     1.0  0.51684  0.97785  0.40356  1.0000
  C   C3155     1.0  0.90835  0.53374  0.49728  1.0000
  H   H5375     1.0  0.77110  0.95932  0.57058  1.0000
  C   C3156     1.0  0.95879  0.51881  0.40272  1.0000
  H   H5376     1.0  0.89471  0.50468  0.51051  1.0000
  H   H5377     1.0  0.98081  0.57661  0.57114  1.0000
  H   H5378     1.0  0.86191  0.56768  0.49374  1.0000
  H   H5379     1.0  0.97930  0.57467  0.49922  1.0000
  H   H5380     1.0  0.85901  0.51992  0.50196  1.0000
  C   C3157     1.0  0.52903  0.92346  0.46218  1.0000
  N   N223      1.0  0.96498  0.67254  0.54259  1.0000
  H   H5381     1.0  0.66687  0.88950  0.51269  1.0000
  H   H5382     1.0  0.96389  0.51292  0.42166  1.0000
  C   C3158     1.0  0.95705  0.66041  0.53847  1.0000
  H   H5383     1.0  0.98932  0.53475  0.56082  1.0000
  H   H5384     1.0  0.67406  0.93891  0.54352  1.0000
  H   H5385     1.0  0.53019  0.95168  0.49523  1.0000
  C   C3159     1.0  0.97370  0.64655  0.56089  1.0000
  C   C3160     1.0  0.67015  0.90178  0.52706  1.0000
  H   H5386     1.0  0.94078  0.53485  0.56270  1.0000
  H   H5387     1.0  0.91374  0.59828  0.41069  1.0000
  H   H5388     1.0  0.92517  0.55057  0.58190  1.0000
  H   H5389     1.0  0.65062  0.90134  0.55179  1.0000
  C   C3161     1.0  0.51391  0.96066  0.52103  1.0000
  H   H5390     1.0  0.94674  0.67920  0.52217  1.0000
  H   H5391     1.0  0.92971  0.67473  0.53666  1.0000
  H   H5392     1.0  0.97440  0.52813  0.58262  1.0000
  Fe  Fe458     1.0  0.53221  0.97160  0.42687  1.0000
  H   H5393     1.0  0.53825  0.90270  0.47700  1.0000
  C   C3162     1.0  0.50877  0.94140  0.48318  1.0000
  C   C3163     1.0  0.93240  0.63229  0.57548  1.0000
  H   H5394     1.0  0.99892  0.56786  0.48750  1.0000
  H   H5395     1.0  0.99377  0.54759  0.50858  1.0000
  C   C3164     1.0  0.93913  0.60229  0.39846  1.0000
  H   H5396     1.0  0.65582  0.92816  0.55050  1.0000
  N   N224      1.0  0.96084  0.54438  0.56774  1.0000
  H   H5397     1.0  0.94568  0.50433  0.42118  1.0000
  C   C3165     1.0  0.92041  0.60620  0.40220  1.0000
  H   H5398     1.0  0.99651  0.54330  0.40614  1.0000
  C   C3166     1.0  0.95102  0.68280  0.55163  1.0000
  S   S917      1.0  0.55967  0.97459  0.41543  1.0000
  C   C3167     1.0  0.54006  0.92946  0.48520  1.0000
  H   H5399     1.0  0.98795  0.61149  0.52296  1.0000
  H   H5400     1.0  0.94779  0.71111  0.54222  1.0000
  C   C3168     1.0  0.92576  0.64896  0.57880  1.0000
  C   C3169     1.0  0.54003  0.93886  0.49553  1.0000
  H   H5401     1.0  0.99336  0.55024  0.43279  1.0000
  H   H5402     1.0  0.94464  0.55541  0.55364  1.0000
  H   H5403     1.0  0.98245  0.67664  0.52402  1.0000
  H   H5404     1.0  0.55128  0.91759  0.48553  1.0000
  H   H5405     1.0  0.54423  0.93834  0.47597  1.0000
  C   C3170     1.0  0.91388  0.66207  0.57223  1.0000
  H   H5406     1.0  0.86327  0.55026  0.50752  1.0000
  H   H5407     1.0  0.54603  0.90674  0.40447  1.0000
  C   C3171     1.0  0.63819  0.90445  0.54823  1.0000
  H   H5408     1.0  0.95715  0.68585  0.55843  1.0000
  H   H5409     1.0  0.63024  0.93017  0.53664  1.0000
  C   C3172     1.0  0.98588  0.50049  0.46700  1.0000
  S   S918      1.0  0.89798  0.49828  0.53608  1.0000
  C   C3173     1.0  0.64170  0.94404  0.50996  1.0000
  H   H5410     1.0  0.98144  0.57825  0.43047  1.0000
  C   C3174     1.0  0.66525  0.88696  0.52312  1.0000
  H   H5411     1.0  0.95058  0.65138  0.54678  1.0000
  N   N225      1.0  0.52265  0.92461  0.48581  1.0000
  H   H5412     1.0  0.92416  0.56183  0.40555  1.0000
  H   H5413     1.0  0.93270  0.56403  0.38867  1.0000
  H   H5414     1.0  0.98153  0.61418  0.45123  1.0000
  H   H5415     1.0  0.96418  0.51699  0.55411  1.0000
  Fe  Fe459     1.0  0.70548  0.97003  0.57107  1.0000
  N   N226      1.0  0.92631  0.63501  0.47395  1.0000
  C   C3175     1.0  0.93847  0.61722  0.47262  1.0000
  C   C3176     1.0  0.90961  0.63607  0.46951  1.0000
  C   C3177     1.0  0.92157  0.63585  0.48782  1.0000
  C   C3178     1.0  0.93647  0.64909  0.46607  1.0000
  C   C3179     1.0  0.95540  0.61237  0.47816  1.0000
  C   C3180     1.0  0.91244  0.63411  0.45577  1.0000
  C   C3181     1.0  0.90387  0.64840  0.49252  1.0000
  C   C3182     1.0  0.92626  0.66853  0.46516  1.0000
  H   H5416     1.0  0.93101  0.60640  0.47723  1.0000
  H   H5417     1.0  0.94337  0.61627  0.46250  1.0000
  H   H5418     1.0  0.89966  0.64860  0.47042  1.0000
  H   H5419     1.0  0.90252  0.62561  0.47574  1.0000
  H   H5420     1.0  0.92031  0.62255  0.49393  1.0000
  H   H5421     1.0  0.93249  0.63952  0.49044  1.0000
  H   H5422     1.0  0.94835  0.64815  0.46991  1.0000
  H   H5423     1.0  0.94259  0.64689  0.45629  1.0000
  H   H5424     1.0  0.95225  0.61328  0.48816  1.0000
  H   H5425     1.0  0.96203  0.59836  0.47790  1.0000
  H   H5426     1.0  0.96527  0.62066  0.47268  1.0000
  H   H5427     1.0  0.88170  0.52409  0.51515  1.0000
  H   H5428     1.0  0.91984  0.64381  0.44882  1.0000
  H   H5429     1.0  0.91919  0.62042  0.45462  1.0000
  H   H5430     1.0  0.90286  0.66218  0.48704  1.0000
  H   H5431     1.0  0.90303  0.64862  0.50253  1.0000
  H   H5432     1.0  0.89202  0.64344  0.49257  1.0000
  H   H5433     1.0  0.92685  0.67361  0.47329  1.0000
  H   H5434     1.0  0.91215  0.67075  0.46446  1.0000
  H   H5435     1.0  0.93260  0.67674  0.45625  1.0000
  H   H5436     1.0  0.67460  0.87420  0.52587  1.0000
  S   S919      1.0  0.73572  0.96347  0.56643  1.0000
  H   H5437     1.0  0.97860  0.70141  0.54192  1.0000
  H   H5438     1.0  0.51677  0.93317  0.45994  1.0000
  C   C3183     1.0  0.97367  0.68449  0.53104  1.0000
  H   H5439     1.0  0.93447  0.52588  0.50224  1.0000
  C   C3184     1.0  0.62159  0.97504  0.52936  1.0000
  H   H5440     1.0  0.51107  0.93363  0.52461  1.0000
  H   H5441     1.0  0.93123  0.50207  0.40755  1.0000
  H   H5442     1.0  0.87206  0.49738  0.50480  1.0000
  C   C3185     1.0  0.65414  0.92566  0.51300  1.0000
  C   C3186     1.0  0.91024  0.62029  0.39483  1.0000
  C   C3187     1.0  0.74457  0.95511  0.58013  1.0000
  H   H5443     1.0  0.93958  0.65874  0.52718  1.0000
  H   H5444     1.0  0.63460  0.89192  0.54836  1.0000
  H   H5445     1.0  0.67823  0.91573  0.54464  1.0000
  H   H5446     1.0  0.55348  0.94193  0.49383  1.0000
  C   C3188     1.0  0.92903  0.53724  0.39909  1.0000
  C   C3189     1.0  0.95215  0.51588  0.41724  1.0000
  C   C3190     1.0  0.93773  0.50606  0.39742  1.0000
  H   H5447     1.0  0.96611  0.51163  0.50696  1.0000
  H   H5448     1.0  0.67606  0.93521  0.52257  1.0000
  H   H5449     1.0  0.89045  0.95904  0.57532  1.0000
  H   H5450     1.0  0.98698  0.53343  0.48342  1.0000
  H   H5451     1.0  0.91890  0.54031  0.39318  1.0000
  H   H5452     1.0  0.53180  0.88726  0.49742  1.0000
  H   H5453     1.0  0.97278  0.50982  0.46872  1.0000
  C   C3191     1.0  0.53695  0.97579  0.46624  1.0000
  S   S920      1.0  0.90565  0.68347  0.57565  1.0000
  C   C3192     1.0  0.98763  0.60043  0.45440  1.0000
  H   H5454     1.0  0.63051  0.91224  0.53027  1.0000
  C   C3193     1.0  0.88494  0.51686  0.50734  1.0000
  H   H5455     1.0  0.66740  0.92623  0.50634  1.0000
  C   C3194     1.0  0.66368  0.93251  0.52970  1.0000
  H   H5456     1.0  0.53769  0.93039  0.50516  1.0000
  H   H5457     1.0  0.96882  0.50664  0.40088  1.0000
  H   H5458     1.0  0.65142  0.88516  0.52781  1.0000
  H   H5459     1.0  0.68332  0.90403  0.52085  1.0000
  C   C3195     1.0  0.51577  0.91414  0.49874  1.0000
  C   C3196     1.0  0.52609  0.91348  0.47616  1.0000
  H   H5460     1.0  0.90790  0.50204  0.48991  1.0000
  C   C3197     1.0  0.90166  0.51562  0.48531  1.0000
  C   C3198     1.0  0.98541  0.63279  0.50661  1.0000
  N   N227      1.0  0.89351  0.52729  0.49489  1.0000
  H   H5461     1.0  0.94713  0.55390  0.39971  1.0000
  C   C3199     1.0  0.52874  0.89696  0.50351  1.0000
  H   H5462     1.0  0.65389  0.94537  0.52925  1.0000
  H   H5463     1.0  0.98340  0.80493  0.58216  1.0000
  C   C3200     1.0  0.50484  0.94743  0.52182  1.0000
  H   H5464     1.0  0.91094  0.51594  0.39273  1.0000
  H   H5465     1.0  0.51384  0.95076  0.47445  1.0000
  H   H5466     1.0  0.98964  0.65090  0.58505  1.0000
  H   H5467     1.0  0.53235  0.91380  0.45598  1.0000
  H   H5468     1.0  0.51505  0.90639  0.47792  1.0000
  H   H5469     1.0  0.97834  0.50747  0.56572  1.0000
  C   C3201     1.0  0.94766  0.61262  0.38744  1.0000
  C   C3202     1.0  0.95107  0.51744  0.58490  1.0000
  C   C3203     1.0  0.97629  0.51758  0.55700  1.0000
  H   H5470     1.0  0.51188  0.92237  0.50596  1.0000
  C   C3204     1.0  0.99230  0.57772  0.49341  1.0000
  H   H5471     1.0  0.98739  0.55705  0.52189  1.0000
  H   H5472     1.0  0.96232  0.65221  0.56792  1.0000
  C   C3205     1.0  0.98520  0.69543  0.53354  1.0000
  H   H5473     1.0  0.98771  0.70631  0.52516  1.0000
  H   H5474     1.0  0.99003  0.50163  0.45659  1.0000
  H   H5475     1.0  0.89893  0.97002  0.58366  1.0000
  H   H5476     1.0  0.00148  0.67948  0.39330  1.0000
  H   H5477     1.0  0.61758  0.97956  0.52036  1.0000
  H   H5478     1.0  0.53033  0.92740  0.40231  1.0000
  C   C3206     1.0  0.00023  0.65656  0.50459  1.0000
  H   H5479     1.0  0.52463  0.90726  0.40177  1.0000
  S   S921      1.0  0.59855  0.98069  0.50084  1.0000
  C   C3207     1.0  0.99936  0.55035  0.51571  1.0000
  H   H5480     1.0  0.96488  0.78364  0.58302  1.0000
  H   H5481     1.0  0.98515  0.55350  0.57828  1.0000
  H   H5482     1.0  0.86807  0.98483  0.57744  1.0000
  H   H5483     1.0  0.92622  0.57098  0.57013  1.0000
  H   H5484     1.0  0.98787  0.51364  0.54942  1.0000
  H   H5485     1.0  0.50766  0.92836  0.38928  1.0000
  S   S922      1.0  0.65359  0.98657  0.57836  1.0000
  C   C3208     1.0  0.89929  0.49167  0.42752  1.0000
  H   H5486     1.0  0.64405  0.98785  0.52295  1.0000
  H   H5487     1.0  0.96540  0.49469  0.49070  1.0000
  H   H5488     1.0  0.78555  0.98179  0.57725  1.0000
  H   H5489     1.0  0.94903  0.49469  0.39556  1.0000
  H   H5490     1.0  0.99861  0.66818  0.57363  1.0000
  H   H5491     1.0  0.58823  0.98999  0.44211  1.0000
  S   S923      1.0  0.54260  0.98248  0.39017  1.0000
  H   H5492     1.0  0.99570  0.64943  0.40258  1.0000
  S   S924      1.0  0.90507  0.76224  0.58239  1.0000
  H   H5493     1.0  0.99182  0.76547  0.58135  1.0000
  C   C3209     1.0  0.00067  0.50464  0.47154  1.0000
  H   H5494     1.0  0.99764  0.63731  0.38630  1.0000
  H   H5495     1.0  0.70633  0.92902  0.66420  1.0000
  S   S925      1.0  0.93724  0.68296  0.59925  1.0000
  C   C3210     1.0  0.86857  0.97203  0.60904  1.0000
  S   S926      1.0  0.93633  0.72363  0.60158  1.0000
  C   C3211     1.0  0.83018  0.75878  0.63285  1.0000
  C   C3212     1.0  0.99055  0.76718  0.60513  1.0000
  Fe  Fe460     1.0  0.92078  0.70236  0.61143  1.0000
  S   S927      1.0  0.91777  0.69635  0.63263  1.0000
  H   H5496     1.0  0.72476  0.92844  0.67024  1.0000
  S   S928      1.0  0.89951  0.71358  0.59990  1.0000
  H   H5497     1.0  0.80543  0.87079  0.66792  1.0000
  H   H5498     1.0  0.65913  0.87933  0.62927  1.0000
  H   H5499     1.0  0.83577  0.72047  0.71881  1.0000
  C   C3213     1.0  0.58940  0.87918  0.75450  1.0000
  C   C3214     1.0  0.81594  0.87563  0.65988  1.0000
  Fe  Fe461     1.0  0.84294  0.78603  0.67090  1.0000
  S   S929      1.0  0.84923  0.78057  0.69005  1.0000
  S   S930      1.0  0.83736  0.81387  0.65951  1.0000
  Fe  Fe462     1.0  0.84374  0.74753  0.67254  1.0000
  S   S931      1.0  0.84974  0.73859  0.69197  1.0000
  S   S932      1.0  0.84086  0.72961  0.66128  1.0000
  Fe  Fe463     1.0  0.82934  0.76300  0.69614  1.0000
  S   S933      1.0  0.80916  0.76490  0.71450  1.0000
  Fe  Fe464     1.0  0.86899  0.75688  0.68416  1.0000
  S   S934      1.0  0.89640  0.74784  0.68853  1.0000
  S   S935      1.0  0.82140  0.77024  0.67742  1.0000
  S   S936      1.0  0.86464  0.76397  0.66433  1.0000
  Fe  Fe465     1.0  0.82810  0.94431  0.61477  1.0000
  S   S937      1.0  0.85446  0.93264  0.60329  1.0000
  Fe  Fe466     1.0  0.80412  0.94455  0.64067  1.0000
  S   S938      1.0  0.80130  0.93379  0.66157  1.0000
  S   S939      1.0  0.81023  0.92632  0.62742  1.0000
  Fe  Fe467     1.0  0.95922  0.83417  0.61563  1.0000
  S   S940      1.0  0.93397  0.85076  0.60943  1.0000
  Fe  Fe468     1.0  0.93958  0.81840  0.64150  1.0000
  S   S941      1.0  0.91246  0.83330  0.63800  1.0000
  S   S942      1.0  0.94762  0.80055  0.65913  1.0000
  Fe  Fe469     1.0  0.92259  0.82638  0.61885  1.0000
  H   H5500     1.0  0.58627  0.87740  0.76497  1.0000
  Fe  Fe470     1.0  0.92535  0.85659  0.62894  1.0000
  S   S943      1.0  0.91135  0.88256  0.63472  1.0000
  S   S944      1.0  0.94859  0.80915  0.62321  1.0000
  S   S945      1.0  0.95164  0.84230  0.63421  1.0000
  Fe  Fe471     1.0  0.69921  0.86207  0.67495  1.0000
  S   S946      1.0  0.71381  0.85381  0.65670  1.0000
  S   S947      1.0  0.67326  0.85293  0.68380  1.0000
  Fe  Fe472     1.0  0.72854  0.87927  0.67527  1.0000
  S   S948      1.0  0.74576  0.87216  0.65725  1.0000
  S   S949      1.0  0.73695  0.89407  0.68630  1.0000
  Fe  Fe473     1.0  0.72023  0.88067  0.65032  1.0000
  S   S950      1.0  0.72409  0.89331  0.62968  1.0000
  Fe  Fe474     1.0  0.73807  0.84592  0.66498  1.0000
  S   S951      1.0  0.75622  0.82051  0.66094  1.0000
  S   S952      1.0  0.70318  0.89010  0.66776  1.0000
  S   S953      1.0  0.72316  0.85189  0.68389  1.0000
  C   C3215     1.0  0.97309  0.87308  0.64493  1.0000
  S   S954      1.0  0.78695  0.66065  0.76775  1.0000
  Fe  Fe475     1.0  0.78846  0.94578  0.61869  1.0000
  C   C3216     1.0  0.86695  0.86474  0.65751  1.0000
  S   S955      1.0  0.74487  0.68211  0.76917  1.0000
  C   C3217     1.0  0.71155  0.96812  0.63281  1.0000
  H   H5501     1.0  0.92968  0.65163  0.58650  1.0000
  H   H5502     1.0  0.57754  0.88732  0.75069  1.0000
  Fe  Fe476     1.0  0.77212  0.68730  0.75903  1.0000
  S   S956      1.0  0.77784  0.69605  0.73779  1.0000
  C   C3218     1.0  0.73676  0.93889  0.64627  1.0000
  S   S957      1.0  0.77444  0.70126  0.77321  1.0000
  H   H5503     1.0  0.74317  0.94740  0.63757  1.0000
  S   S958      1.0  0.62087  0.82422  0.77399  1.0000
  H   H5504     1.0  0.84848  0.71656  0.74300  1.0000
  Fe  Fe477     1.0  0.66018  0.78738  0.76308  1.0000
  S   S959      1.0  0.63912  0.80129  0.75169  1.0000
  S   S960      1.0  0.68348  0.76740  0.75515  1.0000
  Fe  Fe478     1.0  0.64212  0.82585  0.75604  1.0000
  S   S961      1.0  0.64330  0.85198  0.74225  1.0000
  Fe  Fe479     1.0  0.61988  0.79832  0.77052  1.0000
  S   S962      1.0  0.59269  0.79237  0.77349  1.0000
  H   H5505     1.0  0.71989  0.94883  0.59214  1.0000
  H   H5506     1.0  0.75990  0.78123  0.67865  1.0000
  C   C3219     1.0  0.85766  0.77516  0.61027  1.0000
  H   H5507     1.0  0.84673  0.84963  0.62806  1.0000
  C   C3220     1.0  0.00029  0.87144  0.61431  1.0000
  H   H5508     1.0  0.83744  0.74479  0.63375  1.0000
  C   C3221     1.0  0.98028  0.79534  0.59126  1.0000
  C   C3222     1.0  0.74647  0.77073  0.72390  1.0000
  H   H5509     1.0  0.74013  0.96862  0.66972  1.0000
  H   H5510     1.0  0.83427  0.85067  0.66459  1.0000
  H   H5511     1.0  0.70558  0.68754  0.77743  1.0000
  H   H5512     1.0  0.97659  0.80314  0.59879  1.0000
  H   H5513     1.0  0.71129  0.81127  0.70240  1.0000
  C   C3223     1.0  0.69478  0.75177  0.76617  1.0000
  C   C3224     1.0  0.71151  0.74139  0.76186  1.0000
  H   H5514     1.0  0.70108  0.81688  0.77934  1.0000
  C   C3225     1.0  0.75837  0.94297  0.60223  1.0000
  H   H5515     1.0  0.75717  0.98326  0.59341  1.0000
  H   H5516     1.0  0.71721  0.74294  0.75180  1.0000
  C   C3226     1.0  0.85521  0.85637  0.64260  1.0000
  C   C3227     1.0  0.99086  0.86092  0.61154  1.0000
  C   C3228     1.0  0.87133  0.75238  0.62729  1.0000
  H   H5517     1.0  0.85359  0.76573  0.59502  1.0000
  H   H5518     1.0  0.79375  0.79429  0.69256  1.0000
  H   H5519     1.0  0.81406  0.88992  0.65961  1.0000
  H   H5520     1.0  0.73909  0.80149  0.68878  1.0000
  H   H5521     1.0  0.81873  0.75912  0.64117  1.0000
  H   H5522     1.0  0.88298  0.84500  0.66994  1.0000
  C   C3229     1.0  0.73274  0.92350  0.64250  1.0000
  C   C3230     1.0  0.66630  0.85194  0.70020  1.0000
  C   C3231     1.0  0.65803  0.83822  0.70804  1.0000
  C   C3232     1.0  0.65170  0.83767  0.72109  1.0000
  C   C3233     1.0  0.65293  0.85124  0.72624  1.0000
  C   C3234     1.0  0.66112  0.86500  0.71837  1.0000
  C   C3235     1.0  0.66811  0.86518  0.70542  1.0000
  H   H5523     1.0  0.65665  0.82794  0.70404  1.0000
  H   H5524     1.0  0.64547  0.82698  0.72706  1.0000
  H   H5525     1.0  0.66212  0.87553  0.72231  1.0000
  H   H5526     1.0  0.67444  0.87582  0.69942  1.0000
  C   C3236     1.0  0.78412  0.92183  0.66831  1.0000
  C   C3237     1.0  0.77654  0.91989  0.68127  1.0000
  C   C3238     1.0  0.76228  0.91109  0.68670  1.0000
  C   C3239     1.0  0.75579  0.90377  0.67929  1.0000
  C   C3240     1.0  0.76379  0.90517  0.66639  1.0000
  C   C3241     1.0  0.77776  0.91444  0.66088  1.0000
  H   H5527     1.0  0.78143  0.92554  0.68707  1.0000
  H   H5528     1.0  0.75619  0.91004  0.69667  1.0000
  H   H5529     1.0  0.75880  0.89974  0.66056  1.0000
  H   H5530     1.0  0.78355  0.91599  0.65087  1.0000
  C   C3242     1.0  0.87002  0.91865  0.61219  1.0000
  H   H5531     1.0  0.68917  0.95667  0.67276  1.0000
  C   C3243     1.0  0.89406  0.89251  0.61485  1.0000
  C   C3244     1.0  0.89576  0.89646  0.62581  1.0000
  C   C3245     1.0  0.88459  0.91157  0.62992  1.0000
  C   C3246     1.0  0.87147  0.92244  0.62328  1.0000
  H   H5532     1.0  0.78098  0.77044  0.70013  1.0000
  C   C3247     1.0  0.86479  0.97907  0.62118  1.0000
  H   H5533     1.0  0.88592  0.91470  0.63837  1.0000
  H   H5534     1.0  0.86268  0.93384  0.62668  1.0000
  C   C3248     1.0  0.81525  0.81760  0.65787  1.0000
  C   C3249     1.0  0.80996  0.80500  0.65400  1.0000
  C   C3250     1.0  0.79184  0.80651  0.65433  1.0000
  C   C3251     1.0  0.77893  0.82045  0.65878  1.0000
  C   C3252     1.0  0.78424  0.83343  0.66226  1.0000
  C   C3253     1.0  0.80246  0.83205  0.66171  1.0000
  H   H5535     1.0  0.81977  0.79366  0.65127  1.0000
  H   H5536     1.0  0.78772  0.79639  0.65174  1.0000
  H   H5537     1.0  0.77429  0.84398  0.66601  1.0000
  H   H5538     1.0  0.80645  0.84146  0.66511  1.0000
  C   C3254     1.0  0.79858  0.74692  0.72061  1.0000
  C   C3255     1.0  0.78985  0.74363  0.73340  1.0000
  C   C3256     1.0  0.78284  0.72828  0.73872  1.0000
  C   C3257     1.0  0.78433  0.71641  0.73119  1.0000
  C   C3258     1.0  0.79213  0.72028  0.71824  1.0000
  C   C3259     1.0  0.79944  0.73543  0.71297  1.0000
  H   H5539     1.0  0.78911  0.75259  0.73930  1.0000
  H   H5540     1.0  0.77657  0.72551  0.74866  1.0000
  H   H5541     1.0  0.79313  0.71119  0.71237  1.0000
  H   H5542     1.0  0.80603  0.73802  0.70306  1.0000
  C   C3260     1.0  0.90952  0.76378  0.68129  1.0000
  C   C3261     1.0  0.92675  0.76053  0.68357  1.0000
  C   C3262     1.0  0.93813  0.77224  0.67700  1.0000
  C   C3263     1.0  0.93243  0.78711  0.66799  1.0000
  C   C3264     1.0  0.91505  0.79060  0.66586  1.0000
  C   C3265     1.0  0.90349  0.77903  0.67263  1.0000
  H   H5543     1.0  0.93137  0.74881  0.69032  1.0000
  H   H5544     1.0  0.95151  0.76956  0.67871  1.0000
  H   H5545     1.0  0.91053  0.80213  0.65897  1.0000
  H   H5546     1.0  0.89015  0.78165  0.67087  1.0000
  C   C3266     1.0  0.67818  0.93476  0.61510  1.0000
  C   C3267     1.0  0.69326  0.92768  0.60672  1.0000
  C   C3268     1.0  0.70740  0.91518  0.61132  1.0000
  C   C3269     1.0  0.70658  0.90976  0.62434  1.0000
  C   C3270     1.0  0.69178  0.91719  0.63280  1.0000
  C   C3271     1.0  0.67747  0.92964  0.62817  1.0000
  H   H5547     1.0  0.69395  0.93160  0.59664  1.0000
  H   H5548     1.0  0.71896  0.90963  0.60474  1.0000
  H   H5549     1.0  0.69139  0.91329  0.64285  1.0000
  H   H5550     1.0  0.66592  0.93537  0.63465  1.0000
  H   H5551     1.0  0.78007  0.76473  0.67987  1.0000
  H   H5552     1.0  0.87454  0.98708  0.62059  1.0000
  H   H5553     1.0  0.77891  0.90243  0.63636  1.0000
  H   H5554     1.0  0.66421  0.66049  0.78440  1.0000
  Fe  Fe480     1.0  0.95116  0.70524  0.58859  1.0000
  H   H5555     1.0  0.83653  0.87170  0.62994  1.0000
  H   H5556     1.0  0.75738  0.86659  0.63015  1.0000
  H   H5557     1.0  0.99026  0.86852  0.65789  1.0000
  C   C3272     1.0  0.89610  0.70377  0.64120  1.0000
  C   C3273     1.0  0.89418  0.70932  0.65238  1.0000
  C   C3274     1.0  0.87718  0.71698  0.65874  1.0000
  C   C3275     1.0  0.86192  0.71829  0.65426  1.0000
  C   C3276     1.0  0.86370  0.71161  0.64355  1.0000
  C   C3277     1.0  0.88082  0.70476  0.63684  1.0000
  H   H5558     1.0  0.90592  0.70815  0.65594  1.0000
  H   H5559     1.0  0.87588  0.72188  0.66710  1.0000
  H   H5560     1.0  0.85191  0.71239  0.64015  1.0000
  H   H5561     1.0  0.88220  0.70018  0.62833  1.0000
  C   C3278     1.0  0.74323  0.77357  0.78259  1.0000
  C   C3279     1.0  0.91793  0.77522  0.59816  1.0000
  C   C3280     1.0  0.91732  0.78848  0.60447  1.0000
  C   C3281     1.0  0.76945  0.94888  0.59065  1.0000
  H   H5562     1.0  0.77391  0.84105  0.61597  1.0000
  H   H5563     1.0  0.87021  0.75076  0.60278  1.0000
  H   H5564     1.0  0.92642  0.76226  0.60031  1.0000
  H   H5565     1.0  0.92511  0.78566  0.61161  1.0000
  C   C3282     1.0  0.96305  0.78991  0.59109  1.0000
  H   H5566     1.0  0.84535  0.78562  0.60911  1.0000
  H   H5567     1.0  0.69944  0.97327  0.62862  1.0000
  H   H5568     1.0  0.78587  0.80225  0.70717  1.0000
  C   C3283     1.0  0.84828  0.88745  0.64442  1.0000
  S   S963      1.0  0.76629  0.93539  0.61629  1.0000
  H   H5569     1.0  0.73404  0.72129  0.76712  1.0000
  H   H5570     1.0  0.79988  0.88803  0.63191  1.0000
  H   H5571     1.0  0.71837  0.67394  0.75859  1.0000
  H   H5572     1.0  0.97169  0.86849  0.63686  1.0000
  C   C3284     1.0  0.84659  0.90147  0.65203  1.0000
  H   H5573     1.0  0.83627  0.89137  0.64021  1.0000
  H   H5574     1.0  0.83765  0.89915  0.66153  1.0000
  H   H5575     1.0  0.85995  0.90189  0.65318  1.0000
  H   H5576     1.0  0.81312  0.87421  0.65115  1.0000
  H   H5577     1.0  0.82423  0.76329  0.62434  1.0000
  C   C3285     1.0  0.97588  0.82046  0.67151  1.0000
  H   H5578     1.0  0.69515  0.96680  0.65157  1.0000
  C   C3286     1.0  0.99162  0.70359  0.59284  1.0000
  C   C3287     1.0  0.87259  0.84551  0.66480  1.0000
  H   H5579     1.0  0.90012  0.76004  0.64456  1.0000
  C   C3288     1.0  0.84172  0.77137  0.63298  1.0000
  H   H5580     1.0  0.74751  0.93305  0.65168  1.0000
  C   C3289     1.0  0.99029  0.86280  0.64987  1.0000
  H   H5581     1.0  0.87165  0.77990  0.63543  1.0000
  H   H5582     1.0  0.86123  0.84068  0.67193  1.0000
  S   S964      1.0  0.64066  0.78230  0.78164  1.0000
  H   H5583     1.0  0.95225  0.80203  0.58991  1.0000
  H   H5584     1.0  0.75109  0.87446  0.61028  1.0000
  Fe  Fe481     1.0  0.74835  0.69378  0.78413  1.0000
  H   H5585     1.0  0.87134  0.74894  0.63759  1.0000
  H   H5586     1.0  0.91196  0.73891  0.64112  1.0000
  H   H5587     1.0  0.00075  0.66839  0.60929  1.0000
  H   H5588     1.0  0.64823  0.72214  0.77060  1.0000
  C   C3290     1.0  0.86851  0.78381  0.62582  1.0000
  H   H5589     1.0  0.74379  0.77034  0.77347  1.0000
  H   H5590     1.0  0.98623  0.84122  0.63673  1.0000
  H   H5591     1.0  0.80575  0.83740  0.61355  1.0000
  H   H5592     1.0  0.90261  0.88091  0.61160  1.0000
  N   N228      1.0  0.86512  0.98546  0.59716  1.0000
  C   C3291     1.0  0.76799  0.77493  0.69703  1.0000
  H   H5593     1.0  0.62385  0.68033  0.78419  1.0000
  H   H5594     1.0  0.95912  0.50597  0.59049  1.0000
  H   H5595     1.0  0.73211  0.93777  0.61157  1.0000
  N   N229      1.0  0.58202  0.85093  0.75201  1.0000
  C   C3292     1.0  0.57277  0.84773  0.76587  1.0000
  C   C3293     1.0  0.59620  0.86117  0.75050  1.0000
  C   C3294     1.0  0.59099  0.83304  0.74886  1.0000
  C   C3295     1.0  0.56815  0.86074  0.74419  1.0000
  H   H5596     1.0  0.75659  0.77607  0.78203  1.0000
  C   C3296     1.0  0.66545  0.68656  0.77121  1.0000
  C   C3297     1.0  0.60196  0.83285  0.73527  1.0000
  C   C3298     1.0  0.57491  0.87151  0.73080  1.0000
  H   H5597     1.0  0.58274  0.84098  0.77195  1.0000
  H   H5598     1.0  0.56602  0.86048  0.76886  1.0000
  H   H5599     1.0  0.60412  0.86374  0.74067  1.0000
  H   H5600     1.0  0.60637  0.85320  0.75612  1.0000
  H   H5601     1.0  0.60017  0.82545  0.75536  1.0000
  H   H5602     1.0  0.58098  0.82487  0.75032  1.0000
  H   H5603     1.0  0.56080  0.85138  0.74309  1.0000
  H   H5604     1.0  0.55780  0.87043  0.74927  1.0000
  H   H5605     1.0  0.72137  0.95968  0.62657  1.0000
  C   C3299     1.0  0.99821  0.65515  0.61010  1.0000
  H   H5606     1.0  0.99319  0.88388  0.61699  1.0000
  H   H5607     1.0  0.95800  0.78110  0.60009  1.0000
  H   H5608     1.0  0.99934  0.74478  0.61968  1.0000
  C   C3300     1.0  0.89529  0.80849  0.59303  1.0000
  H   H5609     1.0  0.61279  0.84034  0.73257  1.0000
  H   H5610     1.0  0.59319  0.83752  0.72832  1.0000
  H   H5611     1.0  0.60871  0.81893  0.73468  1.0000
  H   H5612     1.0  0.56707  0.87055  0.72425  1.0000
  H   H5613     1.0  0.58919  0.86712  0.72647  1.0000
  H   H5614     1.0  0.57213  0.88583  0.73085  1.0000
  H   H5615     1.0  0.86459  0.87320  0.66444  1.0000
  S   S965      1.0  0.66022  0.94982  0.60921  1.0000
  H   H5616     1.0  0.78885  0.88302  0.59865  1.0000
  H   H5617     1.0  0.97654  0.86530  0.61206  1.0000
  C   C3301     1.0  0.98244  0.70345  0.60542  1.0000
  H   H5618     1.0  0.97409  0.64659  0.60939  1.0000
  C   C3302     1.0  0.77222  0.77744  0.68252  1.0000
  H   H5619     1.0  0.76408  0.89411  0.62400  1.0000
  H   H5620     1.0  0.74109  0.94594  0.67114  1.0000
  H   H5621     1.0  0.88893  0.95094  0.59186  1.0000
  N   N230      1.0  0.85973  0.77048  0.62386  1.0000
  H   H5622     1.0  0.85315  0.80789  0.61519  1.0000
  H   H5623     1.0  0.55127  0.83686  0.77985  1.0000
  H   H5624     1.0  0.84632  0.80503  0.63238  1.0000
  H   H5625     1.0  0.78397  0.86192  0.60179  1.0000
  N   N231      1.0  0.94265  0.73731  0.65028  1.0000
  C   C3303     1.0  0.93651  0.72585  0.66304  1.0000
  C   C3304     1.0  0.92718  0.75262  0.64782  1.0000
  C   C3305     1.0  0.95839  0.74405  0.65098  1.0000
  C   C3306     1.0  0.94812  0.72602  0.64053  1.0000
  C   C3307     1.0  0.95104  0.71053  0.66823  1.0000
  C   C3308     1.0  0.90972  0.74772  0.64774  1.0000
  C   C3309     1.0  0.96189  0.76152  0.64175  1.0000
  C   C3310     1.0  0.95334  0.73535  0.62656  1.0000
  H   H5626     1.0  0.93051  0.73403  0.67034  1.0000
  H   H5627     1.0  0.92569  0.71957  0.66284  1.0000
  H   H5628     1.0  0.93061  0.76202  0.63874  1.0000
  H   H5629     1.0  0.92385  0.76066  0.65511  1.0000
  H   H5630     1.0  0.95662  0.74659  0.66059  1.0000
  H   H5631     1.0  0.97109  0.73388  0.64957  1.0000
  H   H5632     1.0  0.96007  0.71539  0.64229  1.0000
  H   H5633     1.0  0.93779  0.71842  0.64138  1.0000
  H   H5634     1.0  0.94483  0.70359  0.67776  1.0000
  H   H5635     1.0  0.95633  0.70053  0.66224  1.0000
  H   H5636     1.0  0.96224  0.71527  0.66949  1.0000
  C   C3311     1.0  0.72719  0.96441  0.65614  1.0000
  C   C3312     1.0  0.68747  0.74973  0.77918  1.0000
  H   H5637     1.0  0.90311  0.74160  0.65739  1.0000
  H   H5638     1.0  0.95140  0.77299  0.64449  1.0000
  H   H5639     1.0  0.96260  0.76149  0.63181  1.0000
  H   H5640     1.0  0.97488  0.76379  0.64229  1.0000
  H   H5641     1.0  0.96753  0.73674  0.62404  1.0000
  H   H5642     1.0  0.94438  0.74828  0.62388  1.0000
  H   H5643     1.0  0.75664  0.75808  0.72451  1.0000
  C   C3313     1.0  0.74059  0.94274  0.60269  1.0000
  C   C3314     1.0  0.72103  0.72913  0.77053  1.0000
  H   H5644     1.0  0.89773  0.73570  0.62213  1.0000
  H   H5645     1.0  0.73206  0.80167  0.77735  1.0000
  C   C3315     1.0  0.85779  0.80317  0.62424  1.0000
  H   H5646     1.0  0.84350  0.76883  0.64289  1.0000
  H   H5647     1.0  0.98277  0.81942  0.67916  1.0000
  H   H5648     1.0  0.78330  0.94874  0.59022  1.0000
  H   H5649     1.0  0.96890  0.84849  0.66851  1.0000
  H   H5650     1.0  0.67998  0.65926  0.76949  1.0000
  H   H5651     1.0  0.65316  0.85656  0.64802  1.0000
  S   S966      1.0  0.69077  0.98037  0.58854  1.0000
  C   C3316     1.0  0.88145  0.90378  0.60792  1.0000
  H   H5652     1.0  0.71575  0.97405  0.66047  1.0000
  H   H5653     1.0  0.98320  0.75847  0.60320  1.0000
  C   C3317     1.0  0.70078  0.94728  0.67625  1.0000
  S   S967      1.0  0.98815  0.83114  0.60511  1.0000
  H   H5654     1.0  0.68515  0.85959  0.63829  1.0000
  H   H5655     1.0  0.89243  0.75429  0.60982  1.0000
  H   H5656     1.0  0.89873  0.75713  0.62328  1.0000
  H   H5657     1.0  0.86665  0.81187  0.62415  1.0000
  H   H5658     1.0  0.88157  0.78430  0.61899  1.0000
  C   C3318     1.0  0.85699  0.75996  0.60448  1.0000
  H   H5659     1.0  0.70775  0.69672  0.75464  1.0000
  H   H5660     1.0  0.88625  0.82123  0.59115  1.0000
  H   H5661     1.0  0.87887  0.83621  0.65833  1.0000
  H   H5662     1.0  0.71936  0.80086  0.71659  1.0000
  H   H5663     1.0  0.73984  0.77279  0.73363  1.0000
  C   C3319     1.0  0.72342  0.80750  0.70653  1.0000
  N   N232      1.0  0.84291  0.69427  0.73028  1.0000
  C   C3320     1.0  0.83279  0.68622  0.72443  1.0000
  C   C3321     1.0  0.84147  0.68497  0.74404  1.0000
  C   C3322     1.0  0.86242  0.69215  0.72370  1.0000
  C   C3323     1.0  0.83476  0.71376  0.72894  1.0000
  C   C3324     1.0  0.83507  0.69185  0.70988  1.0000
  C   C3325     1.0  0.82290  0.68941  0.75284  1.0000
  C   C3326     1.0  0.87270  0.67292  0.72339  1.0000
  C   C3327     1.0  0.84317  0.72437  0.73455  1.0000
  H   H5664     1.0  0.83646  0.67149  0.72685  1.0000
  H   H5665     1.0  0.81813  0.68952  0.72846  1.0000
  H   H5666     1.0  0.85156  0.68755  0.74818  1.0000
  H   H5667     1.0  0.84475  0.67033  0.74502  1.0000
  H   H5668     1.0  0.86403  0.70008  0.71379  1.0000
  H   H5669     1.0  0.86981  0.69764  0.72837  1.0000
  C   C3328     1.0  0.55804  0.83679  0.76979  1.0000
  H   H5670     1.0  0.82011  0.71611  0.73290  1.0000
  H   H5671     1.0  0.84906  0.68759  0.70480  1.0000
  H   H5672     1.0  0.82658  0.68536  0.70692  1.0000
  H   H5673     1.0  0.83045  0.70629  0.70660  1.0000
  N   N233      1.0  0.99260  0.84286  0.65384  1.0000
  H   H5674     1.0  0.67446  0.75752  0.78254  1.0000
  H   H5675     1.0  0.81200  0.68719  0.74938  1.0000
  H   H5676     1.0  0.87336  0.66485  0.73305  1.0000
  H   H5677     1.0  0.88675  0.67307  0.71809  1.0000
  H   H5678     1.0  0.86688  0.66634  0.71843  1.0000
  H   H5679     1.0  0.86662  0.96758  0.62924  1.0000
  H   H5680     1.0  0.83266  0.73558  0.73772  1.0000
  N   N234      1.0  0.65231  0.88363  0.64850  1.0000
  C   C3329     1.0  0.66454  0.88441  0.63549  1.0000
  C   C3330     1.0  0.63359  0.89247  0.64648  1.0000
  C   C3331     1.0  0.65323  0.86433  0.65488  1.0000
  C   C3332     1.0  0.65895  0.89290  0.65581  1.0000
  C   C3333     1.0  0.68412  0.87410  0.63506  1.0000
  C   C3334     1.0  0.63079  0.91239  0.64016  1.0000
  C   C3335     1.0  0.63816  0.85986  0.66644  1.0000
  C   C3336     1.0  0.64664  0.89719  0.66837  1.0000
  H   H5681     1.0  0.97379  0.88728  0.64143  1.0000
  H   H5682     1.0  0.66540  0.89829  0.63060  1.0000
  H   H5683     1.0  0.62334  0.89126  0.65543  1.0000
  H   H5684     1.0  0.62961  0.88563  0.64057  1.0000
  H   H5685     1.0  0.61992  0.76076  0.77864  1.0000
  H   H5686     1.0  0.66612  0.85844  0.65810  1.0000
  H   H5687     1.0  0.67190  0.88495  0.65826  1.0000
  H   H5688     1.0  0.66237  0.90553  0.64984  1.0000
  H   H5689     1.0  0.96971  0.66574  0.61573  1.0000
  H   H5690     1.0  0.69080  0.87879  0.64061  1.0000
  H   H5691     1.0  0.66005  0.73846  0.76993  1.0000
  H   H5692     1.0  0.61634  0.91769  0.63999  1.0000
  H   H5693     1.0  0.63449  0.92022  0.64546  1.0000
  H   H5694     1.0  0.63824  0.91482  0.63015  1.0000
  H   H5695     1.0  0.62512  0.86219  0.66370  1.0000
  H   H5696     1.0  0.63669  0.86691  0.67397  1.0000
  H   H5697     1.0  0.64165  0.84550  0.67074  1.0000
  H   H5698     1.0  0.65077  0.88713  0.67661  1.0000
  H   H5699     1.0  0.63220  0.89847  0.66914  1.0000
  H   H5700     1.0  0.64793  0.91021  0.66933  1.0000
  H   H5701     1.0  0.72350  0.92831  0.63587  1.0000
  H   H5702     1.0  0.00175  0.86661  0.64219  1.0000
  H   H5703     1.0  0.76427  0.81167  0.68618  1.0000
  H   H5704     1.0  0.84099  0.91482  0.64677  1.0000
  C   C3337     1.0  0.71373  0.79542  0.76202  1.0000
  H   H5705     1.0  0.65115  0.69260  0.77467  1.0000
  H   H5706     1.0  0.74540  0.91601  0.63754  1.0000
  C   C3338     1.0  0.99717  0.83572  0.64198  1.0000
  H   H5707     1.0  0.78105  0.87914  0.64235  1.0000
  H   H5708     1.0  0.85416  0.72981  0.72731  1.0000
  H   H5709     1.0  0.96522  0.84003  0.65654  1.0000
  H   H5710     1.0  0.99605  0.62836  0.59992  1.0000
  H   H5711     1.0  0.69709  0.67939  0.75452  1.0000
  C   C3339     1.0  0.78443  0.80478  0.69725  1.0000
  H   H5712     1.0  0.85777  0.84223  0.64759  1.0000
  H   H5713     1.0  0.80503  0.85744  0.62853  1.0000
  H   H5714     1.0  0.81108  0.87361  0.61465  1.0000
  H   H5715     1.0  0.75688  0.81827  0.70081  1.0000
  C   C3340     1.0  0.67697  0.71199  0.77127  1.0000
  H   H5716     1.0  0.95187  0.72711  0.62057  1.0000
  H   H5717     1.0  0.96191  0.81895  0.67620  1.0000
  H   H5718     1.0  0.77520  0.85656  0.63777  1.0000
  Fe  Fe482     1.0  0.91667  0.73331  0.58907  1.0000
  H   H5719     1.0  0.78062  0.78736  0.67790  1.0000
  S   S968      1.0  0.66473  0.81226  0.76601  1.0000
  H   H5720     1.0  0.56368  0.82268  0.76935  1.0000
  C   C3341     1.0  0.90575  0.80507  0.60199  1.0000
  N   N235      1.0  0.67752  0.69256  0.77680  1.0000
  N   N236      1.0  0.99634  0.78040  0.59320  1.0000
  C   C3342     1.0  0.69666  0.68250  0.77375  1.0000
  H   H5721     1.0  0.75547  0.95703  0.65797  1.0000
  H   H5722     1.0  0.82302  0.68063  0.76238  1.0000
  H   H5723     1.0  0.93779  0.52054  0.59136  1.0000
  C   C3343     1.0  0.70514  0.68336  0.75953  1.0000
  H   H5724     1.0  0.83708  0.98386  0.60236  1.0000
  Fe  Fe483     1.0  0.64320  0.80853  0.78363  1.0000
  H   H5725     1.0  0.73346  0.78284  0.70019  1.0000
  S   S969      1.0  0.82411  0.96108  0.62882  1.0000
  C   C3344     1.0  0.00059  0.81552  0.64347  1.0000
  H   H5726     1.0  0.78893  0.81732  0.69222  1.0000
  H   H5727     1.0  0.75627  0.89634  0.60584  1.0000
  H   H5728     1.0  0.73312  0.97258  0.64704  1.0000
  C   C3345     1.0  0.89614  0.79548  0.58663  1.0000
  S   S970      1.0  0.90168  0.82106  0.61105  1.0000
  C   C3346     1.0  0.97514  0.83871  0.66230  1.0000
  H   H5729     1.0  0.88042  0.90083  0.59932  1.0000
  S   S971      1.0  0.78086  0.96280  0.63296  1.0000
  C   C3347     1.0  0.86925  0.97550  0.58667  1.0000
  Fe  Fe484     1.0  0.78688  0.67409  0.78288  1.0000
  H   H5730     1.0  0.71124  0.79019  0.75457  1.0000
  H   H5731     1.0  0.75902  0.83756  0.63073  1.0000
  H   H5732     1.0  0.71681  0.97973  0.63249  1.0000
  H   H5733     1.0  0.69542  0.93718  0.68432  1.0000
  C   C3348     1.0  0.74179  0.95856  0.66413  1.0000
  H   H5734     1.0  0.96074  0.87252  0.65248  1.0000
  C   C3349     1.0  0.77219  0.84126  0.62602  1.0000
  S   S972      1.0  0.80676  0.96233  0.60472  1.0000
  H   H5735     1.0  0.73579  0.76928  0.71987  1.0000
  H   H5736     1.0  0.84687  0.75218  0.61017  1.0000
  H   H5737     1.0  0.86892  0.78111  0.60383  1.0000
  H   H5738     1.0  0.76138  0.76340  0.70095  1.0000
  H   H5739     1.0  0.78272  0.83088  0.63017  1.0000
  C   C3350     1.0  0.75535  0.78651  0.71628  1.0000
  H   H5740     1.0  0.85971  0.88903  0.63614  1.0000
  H   H5741     1.0  0.98095  0.77424  0.61238  1.0000
  Fe  Fe485     1.0  0.80123  0.97786  0.61983  1.0000
  H   H5742     1.0  0.96862  0.70213  0.60833  1.0000
  N   N237      1.0  0.75662  0.79084  0.70218  1.0000
  H   H5743     1.0  0.87888  0.86808  0.65009  1.0000
  H   H5744     1.0  0.72736  0.81994  0.70608  1.0000
  H   H5745     1.0  0.74859  0.79828  0.72055  1.0000
  H   H5746     1.0  0.86790  0.85826  0.63551  1.0000
  H   H5747     1.0  0.81448  0.85412  0.60065  1.0000
  H   H5748     1.0  0.68090  0.71454  0.76074  1.0000
  H   H5749     1.0  0.81966  0.70323  0.75416  1.0000
  C   C3351     1.0  0.89114  0.74995  0.62016  1.0000
  H   H5750     1.0  0.76900  0.78295  0.71839  1.0000
  H   H5751     1.0  0.83303  0.78479  0.63112  1.0000
  H   H5752     1.0  0.69970  0.94717  0.64589  1.0000
  H   H5753     1.0  0.72740  0.91386  0.65083  1.0000
  H   H5754     1.0  0.86600  0.74197  0.62564  1.0000
  N   N238      1.0  0.72095  0.94969  0.65373  1.0000
  C   C3352     1.0  0.71373  0.93780  0.66596  1.0000
  H   H5755     1.0  0.86055  0.96174  0.61111  1.0000
  H   H5756     1.0  0.66789  0.69134  0.76074  1.0000
  H   H5757     1.0  0.98437  0.70387  0.62414  1.0000
  N   N239      1.0  0.78346  0.87093  0.61862  1.0000
  C   C3353     1.0  0.77886  0.88876  0.62217  1.0000
  C   C3354     1.0  0.78014  0.87422  0.60547  1.0000
  C   C3355     1.0  0.80309  0.86307  0.61864  1.0000
  C   C3356     1.0  0.77168  0.85947  0.62837  1.0000
  C   C3357     1.0  0.78514  0.88930  0.63392  1.0000
  C   C3358     1.0  0.76063  0.88270  0.60405  1.0000
  C   C3359     1.0  0.90701  0.77866  0.58939  1.0000
  H   H5758     1.0  0.70776  0.95425  0.68009  1.0000
  H   H5759     1.0  0.78470  0.89875  0.61419  1.0000
  H   H5760     1.0  0.83568  0.86785  0.67113  1.0000
  C   C3360     1.0  0.76481  0.80694  0.69636  1.0000
  C   C3361     1.0  0.83465  0.86500  0.66220  1.0000
  C   C3362     1.0  0.70613  0.95761  0.64648  1.0000
  N   N240      1.0  0.85077  0.86851  0.65174  1.0000
  C   C3363     1.0  0.84086  0.85804  0.63521  1.0000
  H   H5761     1.0  0.82926  0.85266  0.64154  1.0000
  H   H5762     1.0  0.70603  0.80930  0.76110  1.0000
  H   H5763     1.0  0.68708  0.71643  0.77418  1.0000
  C   C3364     1.0  0.73836  0.79508  0.69900  1.0000
  C   C3365     1.0  0.70747  0.78368  0.77504  1.0000
  C   C3366     1.0  0.65860  0.72462  0.77446  1.0000
  S   S973      1.0  0.75079  0.63112  0.78299  1.0000
  H   H5764     1.0  0.97725  0.66794  0.59914  1.0000
  H   H5765     1.0  0.98208  0.80920  0.66678  1.0000
  H   H5766     1.0  0.69186  0.87648  0.62511  1.0000
  H   H5767     1.0  0.60028  0.88677  0.75082  1.0000
  H   H5768     1.0  0.85084  0.98655  0.62367  1.0000
  H   H5769     1.0  0.82632  0.84291  0.61296  1.0000
  C   C3367     1.0  0.66676  0.66634  0.77411  1.0000
  C   C3368     1.0  0.59139  0.77104  0.78268  1.0000
  C   C3369     1.0  0.73364  0.94900  0.59170  1.0000
  C   C3370     1.0  0.81264  0.84854  0.61100  1.0000
  Fe  Fe486     1.0  0.75977  0.65666  0.77914  1.0000
  C   C3371     1.0  0.99141  0.70425  0.61440  1.0000
  H   H5770     1.0  0.72831  0.79510  0.75982  1.0000
  H   H5771     1.0  0.69798  0.66828  0.77862  1.0000
  H   H5772     1.0  0.88286  0.96486  0.60783  1.0000
  H   H5773     1.0  0.71471  0.76983  0.77457  1.0000
  H   H5774     1.0  0.65646  0.66367  0.77025  1.0000
  H   H5775     1.0  0.85927  0.96712  0.58844  1.0000
  H   H5776     1.0  0.69315  0.78381  0.77579  1.0000
  H   H5777     1.0  0.75971  0.88389  0.59414  1.0000
  C   C3372     1.0  0.97886  0.65880  0.60830  1.0000
  C   C3373     1.0  0.71380  0.72721  0.78353  1.0000
  H   H5778     1.0  0.54754  0.84240  0.76412  1.0000
  H   H5779     1.0  0.95350  0.54178  0.58806  1.0000
  Fe  Fe487     1.0  0.91735  0.69590  0.58672  1.0000
  H   H5780     1.0  0.98775  0.81117  0.64530  1.0000
  C   C3374     1.0  0.60704  0.75813  0.78403  1.0000
  Fe  Fe488     1.0  0.67099  0.96434  0.58956  1.0000
  H   H5781     1.0  0.99818  0.64805  0.62013  1.0000
  C   C3375     1.0  0.99994  0.84485  0.60804  1.0000
  C   C3376     1.0  0.72868  0.79023  0.78506  1.0000
  H   H5782     1.0  0.75535  0.98979  0.61654  1.0000
  H   H5783     1.0  0.65376  0.72409  0.78476  1.0000
  S   S974      1.0  0.57869  0.78110  0.86752  1.0000
  H   H5784     1.0  0.60423  0.68729  0.79546  1.0000
  H   H5785     1.0  0.59976  0.81197  0.80080  1.0000
  Fe  Fe489     1.0  0.92058  0.59362  0.92920  1.0000
  S   S975      1.0  0.89348  0.60701  0.93888  1.0000
  S   S976      1.0  0.93974  0.60908  0.91475  1.0000
  Fe  Fe490     1.0  0.91351  0.55735  0.94187  1.0000
  S   S977      1.0  0.88641  0.56737  0.95307  1.0000
  S   S978      1.0  0.92409  0.52841  0.94266  1.0000
  Fe  Fe491     1.0  0.88249  0.58652  0.93477  1.0000
  S   S979      1.0  0.85556  0.59046  0.92969  1.0000
  Fe  Fe492     1.0  0.89982  0.58672  0.95617  1.0000
  S   S980      1.0  0.89337  0.59591  0.97448  1.0000
  S   S981      1.0  0.90899  0.57525  0.92340  1.0000
  S   S982      1.0  0.92757  0.57467  0.94670  1.0000
  Fe  Fe493     1.0  0.56199  0.93974  0.91268  1.0000
  S   S983      1.0  0.53848  0.96176  0.91699  1.0000
  S   S984      1.0  0.56606  0.92938  0.89498  1.0000
  Fe  Fe494     1.0  0.57624  0.93950  0.93536  1.0000
  S   S985      1.0  0.55371  0.96106  0.94173  1.0000
  S   S986      1.0  0.59921  0.92594  0.94501  1.0000
  Fe  Fe495     1.0  0.53643  0.94679  0.93706  1.0000
  H   H5786     1.0  0.58147  0.81417  0.79378  1.0000
  Fe  Fe496     1.0  0.55773  0.97432  0.92117  1.0000
  C   C3377     1.0  0.96701  0.55533  0.88696  1.0000
  S   S987      1.0  0.55869  0.92372  0.93260  1.0000
  S   S988      1.0  0.58172  0.95370  0.91496  1.0000
  Fe  Fe497     1.0  0.82499  0.58777  0.86782  1.0000
  S   S989      1.0  0.83237  0.56689  0.85623  1.0000
  S   S990      1.0  0.84876  0.58971  0.87464  1.0000
  Fe  Fe498     1.0  0.78689  0.59994  0.86298  1.0000
  S   S991      1.0  0.79154  0.57998  0.85128  1.0000
  S   S992      1.0  0.75927  0.61784  0.86397  1.0000
  Fe  Fe499     1.0  0.80536  0.56122  0.86610  1.0000
  S   S993      1.0  0.80140  0.53333  0.87333  1.0000
  Fe  Fe500     1.0  0.81800  0.58762  0.84240  1.0000
  S   S994      1.0  0.82598  0.59006  0.82130  1.0000
  S   S995      1.0  0.79865  0.58049  0.87882  1.0000
  S   S996      1.0  0.81264  0.60914  0.85301  1.0000
  Fe  Fe501     1.0  0.55814  0.84273  0.87920  1.0000
  C   C3378     1.0  0.75327  0.59976  0.82762  1.0000
  S   S997      1.0  0.55740  0.85227  0.89675  1.0000
  H   H5787     1.0  0.98024  0.51365  0.89443  1.0000
  H   H5788     1.0  0.59391  0.75685  0.82026  1.0000
  C   C3379     1.0  0.70215  0.64827  0.80426  1.0000
  Fe  Fe502     1.0  0.56581  0.84591  0.85067  1.0000
  S   S998      1.0  0.57712  0.85904  0.83072  1.0000
  S   S999      1.0  0.58173  0.83046  0.86545  1.0000
  H   H5789     1.0  0.69470  0.69203  0.79664  1.0000
  S   S1000     1.0  0.51995  0.70090  0.84713  1.0000
  Fe  Fe503     1.0  0.56189  0.71420  0.82263  1.0000
  S   S1001     1.0  0.56290  0.70082  0.84284  1.0000
  C   C3380     1.0  0.89653  0.53122  0.91661  1.0000
  Fe  Fe504     1.0  0.54651  0.68347  0.84052  1.0000
  S   S1002     1.0  0.55172  0.65360  0.84417  1.0000
  Fe  Fe505     1.0  0.53648  0.71970  0.84730  1.0000
  S   S1003     1.0  0.52704  0.73685  0.86172  1.0000
  S   S1004     1.0  0.54727  0.69567  0.81997  1.0000
  S   S1005     1.0  0.53657  0.73435  0.82722  1.0000
  Fe  Fe506     1.0  0.66586  0.57106  0.83640  1.0000
  S   S1006     1.0  0.66125  0.56947  0.85727  1.0000
  S   S1007     1.0  0.67190  0.54763  0.82720  1.0000
  Fe  Fe507     1.0  0.66916  0.60974  0.82973  1.0000
  S   S1008     1.0  0.66569  0.61082  0.84998  1.0000
  H   H5790     1.0  0.58739  0.75914  0.83626  1.0000
  Fe  Fe508     1.0  0.68373  0.58395  0.85191  1.0000
  S   S1009     1.0  0.70533  0.57267  0.86320  1.0000
  Fe  Fe509     1.0  0.64350  0.59655  0.85341  1.0000
  S   S1010     1.0  0.61865  0.60698  0.86699  1.0000
  S   S1011     1.0  0.68947  0.58409  0.83128  1.0000
  S   S1012     1.0  0.64591  0.59695  0.83295  1.0000
  H   H5791     1.0  0.91388  0.57128  0.88740  1.0000
  H   H5792     1.0  0.62937  0.92995  0.97631  1.0000
  C   C3381     1.0  0.57063  0.64109  0.85032  1.0000
  C   C3382     1.0  0.57806  0.64775  0.85756  1.0000
  C   C3383     1.0  0.59290  0.63725  0.86260  1.0000
  C   C3384     1.0  0.60072  0.62033  0.86005  1.0000
  C   C3385     1.0  0.59353  0.61385  0.85256  1.0000
  C   C3386     1.0  0.57834  0.62411  0.84788  1.0000
  H   H5793     1.0  0.57207  0.66078  0.85958  1.0000
  H   H5794     1.0  0.59828  0.64223  0.86851  1.0000
  H   H5795     1.0  0.59934  0.60071  0.85071  1.0000
  H   H5796     1.0  0.57258  0.61886  0.84234  1.0000
  H   H5797     1.0  0.69526  0.65973  0.80827  1.0000
  C   C3387     1.0  0.59631  0.84576  0.82302  1.0000
  C   C3388     1.0  0.60111  0.84941  0.80975  1.0000
  C   C3389     1.0  0.61627  0.83885  0.80344  1.0000
  C   C3390     1.0  0.62690  0.82477  0.81038  1.0000
  C   C3391     1.0  0.62244  0.82148  0.82364  1.0000
  C   C3392     1.0  0.60697  0.83169  0.82994  1.0000
  H   H5798     1.0  0.59303  0.86040  0.80435  1.0000
  H   H5799     1.0  0.63071  0.81075  0.82907  1.0000
  H   H5800     1.0  0.60350  0.82885  0.84017  1.0000
  C   C3393     1.0  0.66391  0.51731  0.82563  1.0000
  C   C3394     1.0  0.60602  0.74168  0.79230  1.0000
  C   C3395     1.0  0.53454  0.76601  0.86577  1.0000
  C   C3396     1.0  0.54170  0.74935  0.86263  1.0000
  C   C3397     1.0  0.56025  0.74266  0.86079  1.0000
  C   C3398     1.0  0.57150  0.75238  0.86247  1.0000
  C   C3399     1.0  0.70302  0.61886  0.80200  1.0000
  C   C3400     1.0  0.75818  0.56207  0.84254  1.0000
  H   H5801     1.0  0.56585  0.72976  0.85847  1.0000
  H   H5802     1.0  0.58578  0.74698  0.86135  1.0000
  C   C3401     1.0  0.82330  0.61208  0.81268  1.0000
  C   C3402     1.0  0.82662  0.62536  0.81710  1.0000
  C   C3403     1.0  0.82336  0.64305  0.81041  1.0000
  C   C3404     1.0  0.81718  0.61648  0.80141  1.0000
  H   H5803     1.0  0.83185  0.62196  0.82561  1.0000
  H   H5804     1.0  0.82609  0.65326  0.81379  1.0000
  C   C3405     1.0  0.58412  0.94222  0.96558  1.0000
  C   C3406     1.0  0.74367  0.60576  0.86407  1.0000
  C   C3407     1.0  0.74610  0.58773  0.86972  1.0000
  C   C3408     1.0  0.73399  0.57790  0.86958  1.0000
  C   C3409     1.0  0.71970  0.58585  0.86343  1.0000
  C   C3410     1.0  0.71714  0.60394  0.85778  1.0000
  C   C3411     1.0  0.72899  0.61395  0.85827  1.0000
  H   H5805     1.0  0.75731  0.58134  0.87429  1.0000
  H   H5806     1.0  0.73597  0.56397  0.87409  1.0000
  H   H5807     1.0  0.70611  0.61018  0.85303  1.0000
  H   H5808     1.0  0.72706  0.62791  0.85389  1.0000
  H   H5809     1.0  0.64248  0.54020  0.84887  1.0000
  C   C3412     1.0  0.59943  0.93251  0.95875  1.0000
  C   C3413     1.0  0.61565  0.92809  0.96274  1.0000
  H   H5810     1.0  0.62750  0.92057  0.95755  1.0000
  C   C3414     1.0  0.56212  0.90849  0.89557  1.0000
  C   C3415     1.0  0.56629  0.90237  0.88429  1.0000
  C   C3416     1.0  0.56429  0.88540  0.88446  1.0000
  C   C3417     1.0  0.55820  0.87436  0.89594  1.0000
  C   C3418     1.0  0.55352  0.88068  0.90718  1.0000
  C   C3419     1.0  0.55535  0.89773  0.90700  1.0000
  H   H5811     1.0  0.57146  0.91066  0.87540  1.0000
  H   H5812     1.0  0.56795  0.88065  0.87575  1.0000
  C   C3420     1.0  0.79760  0.52716  0.83951  1.0000
  H   H5813     1.0  0.55177  0.90242  0.91571  1.0000
  C   C3421     1.0  0.91606  0.52290  0.93149  1.0000
  C   C3422     1.0  0.92505  0.50786  0.92658  1.0000
  C   C3423     1.0  0.90146  0.53427  0.92677  1.0000
  C   C3424     1.0  0.85251  0.51246  0.84013  1.0000
  H   H5814     1.0  0.89403  0.54558  0.93082  1.0000
  H   H5815     1.0  0.94682  0.53671  0.91737  1.0000
  H   H5816     1.0  0.92542  0.55272  0.90571  1.0000
  H   H5817     1.0  0.92839  0.57155  0.97340  1.0000
  C   C3425     1.0  0.85387  0.58961  0.91447  1.0000
  C   C3426     1.0  0.86910  0.58666  0.90486  1.0000
  C   C3427     1.0  0.86725  0.58656  0.89276  1.0000
  C   C3428     1.0  0.85020  0.58923  0.89018  1.0000
  C   C3429     1.0  0.83495  0.59178  0.89986  1.0000
  C   C3430     1.0  0.83680  0.59206  0.91195  1.0000
  H   H5818     1.0  0.88229  0.58479  0.90666  1.0000
  H   H5819     1.0  0.87910  0.58459  0.88531  1.0000
  H   H5820     1.0  0.82175  0.59401  0.89795  1.0000
  H   H5821     1.0  0.82495  0.59441  0.91933  1.0000
  H   H5822     1.0  0.82833  0.52025  0.98183  1.0000
  H   H5823     1.0  0.72396  0.52292  0.87214  1.0000
  C   C3431     1.0  0.96905  0.62315  0.90991  1.0000
  C   C3432     1.0  0.96114  0.60884  0.91679  1.0000
  C   C3433     1.0  0.97031  0.59513  0.92502  1.0000
  C   C3434     1.0  0.84172  0.54424  0.92142  1.0000
  H   H5824     1.0  0.78135  0.60728  0.80807  1.0000
  H   H5825     1.0  0.96215  0.63369  0.90345  1.0000
  H   H5826     1.0  0.96443  0.58386  0.93021  1.0000
  H   H5827     1.0  0.84493  0.50592  0.91375  1.0000
  C   C3435     1.0  0.56432  0.76902  0.86564  1.0000
  H   H5828     1.0  0.54436  0.79823  0.83845  1.0000
  H   H5829     1.0  0.51630  0.91955  0.97695  1.0000
  H   H5830     1.0  0.75132  0.62275  0.81148  1.0000
  H   H5831     1.0  0.52121  0.93522  0.87504  1.0000
  C   C3436     1.0  0.90935  0.58987  0.98400  1.0000
  C   C3437     1.0  0.98561  0.62424  0.91151  1.0000
  C   C3438     1.0  0.80139  0.53356  0.84877  1.0000
  C   C3439     1.0  0.52443  0.89164  0.98229  1.0000
  H   H5832     1.0  0.50939  0.97966  0.96826  1.0000
  C   C3440     1.0  0.76565  0.58837  0.80778  1.0000
  C   C3441     1.0  0.84905  0.51747  0.82661  1.0000
  H   H5833     1.0  0.54017  0.78875  0.86954  1.0000
  C   C3442     1.0  0.64082  0.50280  0.84041  1.0000
  C   C3443     1.0  0.58935  0.73803  0.79920  1.0000
  C   C3444     1.0  0.61671  0.93342  0.97335  1.0000
  H   H5834     1.0  0.73519  0.54008  0.86417  1.0000
  H   H5835     1.0  0.93916  0.52601  0.89834  1.0000
  C   C3445     1.0  0.96689  0.54389  0.95954  1.0000
  H   H5836     1.0  0.99068  0.53908  0.89493  1.0000
  C   C3446     1.0  0.78336  0.59454  0.80526  1.0000
  H   H5837     1.0  0.74528  0.59707  0.83745  1.0000
  H   H5838     1.0  0.76635  0.60130  0.82863  1.0000
  H   H5839     1.0  0.78005  0.57082  0.82849  1.0000
  H   H5840     1.0  0.93556  0.57147  0.89893  1.0000
  C   C3447     1.0  0.85725  0.51667  0.97493  1.0000
  H   H5841     1.0  0.63651  0.65673  0.80157  1.0000
  H   H5842     1.0  0.58559  0.66157  0.82797  1.0000
  C   C3448     1.0  0.53286  0.95514  0.87696  1.0000
  C   C3449     1.0  0.70587  0.51128  0.85979  1.0000
  H   H5843     1.0  0.67462  0.69273  0.80860  1.0000
  H   H5844     1.0  0.90269  0.63647  0.94841  1.0000
  H   H5845     1.0  0.60202  0.97110  0.95553  1.0000
  C   C3450     1.0  0.53275  0.98944  0.96643  1.0000
  H   H5846     1.0  0.98618  0.57457  0.97889  1.0000
  H   H5847     1.0  0.80788  0.54470  0.84597  1.0000
  N   N241      1.0  0.94282  0.62794  0.95408  1.0000
  C   C3451     1.0  0.95058  0.61228  0.96346  1.0000
  C   C3452     1.0  0.93312  0.64243  0.96125  1.0000
  C   C3453     1.0  0.95837  0.63383  0.94408  1.0000
  N   N242      1.0  0.95366  0.54608  0.89706  1.0000
  H   H5848     1.0  0.65770  0.97789  0.93673  1.0000
  C   C3454     1.0  0.89434  0.52109  0.97496  1.0000
  C   C3455     1.0  0.95381  0.64993  0.93347  1.0000
  H   H5849     1.0  0.72387  0.56396  0.81810  1.0000
  H   H5850     1.0  0.95879  0.61624  0.96846  1.0000
  H   H5851     1.0  0.50485  0.65776  0.81357  1.0000
  H   H5852     1.0  0.92767  0.65486  0.95504  1.0000
  H   H5853     1.0  0.94270  0.64620  0.96522  1.0000
  H   H5854     1.0  0.96795  0.63677  0.94852  1.0000
  H   H5855     1.0  0.96616  0.62309  0.93906  1.0000
  C   C3456     1.0  0.96041  0.55806  0.91415  1.0000
  H   H5856     1.0  0.76908  0.57644  0.80364  1.0000
  C   C3457     1.0  0.52251  0.94006  0.88308  1.0000
  H   H5857     1.0  0.72990  0.61754  0.82026  1.0000
  H   H5858     1.0  0.50439  0.88042  0.85355  1.0000
  H   H5859     1.0  0.61818  0.73183  0.79343  1.0000
  H   H5860     1.0  0.57698  0.81939  0.80897  1.0000
  H   H5861     1.0  0.64450  0.96241  0.93716  1.0000
  H   H5862     1.0  0.96659  0.65308  0.92722  1.0000
  H   H5863     1.0  0.94623  0.66200  0.93704  1.0000
  H   H5864     1.0  0.94668  0.64683  0.92734  1.0000
  C   C3458     1.0  0.92723  0.56217  0.88574  1.0000
  H   H5865     1.0  0.91841  0.65059  0.94021  1.0000
  H   H5866     1.0  0.95382  0.53114  0.88349  1.0000
  H   H5867     1.0  0.55045  0.79668  0.82227  1.0000
  C   C3459     1.0  0.58466  0.79061  0.80881  1.0000
  H   H5868     1.0  0.69977  0.50084  0.85882  1.0000
  S   S1013     1.0  0.64538  0.81068  0.80272  1.0000
  H   H5869     1.0  0.61859  0.67853  0.83911  1.0000
  C   C3460     1.0  0.96616  0.51218  0.89794  1.0000
  H   H5870     1.0  0.57840  0.80767  0.83018  1.0000
  C   C3461     1.0  0.73771  0.58150  0.82181  1.0000
  C   C3462     1.0  0.95258  0.52928  0.89387  1.0000
  H   H5871     1.0  0.83448  0.52021  0.82683  1.0000
  H   H5872     1.0  0.59759  0.97001  0.93355  1.0000
  H   H5873     1.0  0.57758  0.67555  0.80265  1.0000
  Fe  Fe510     1.0  0.56592  0.80983  0.86777  1.0000
  H   H5874     1.0  0.92315  0.61277  0.95570  1.0000
  H   H5875     1.0  0.88590  0.54067  0.91255  1.0000
  H   H5876     1.0  0.96333  0.50626  0.94187  1.0000
  C   C3463     1.0  0.90538  0.51611  0.91173  1.0000
  H   H5877     1.0  0.56049  0.76666  0.81925  1.0000
  H   H5878     1.0  0.84251  0.51474  0.86589  1.0000
  H   H5879     1.0  0.96418  0.55720  0.87745  1.0000
  H   H5880     1.0  0.71072  0.77465  0.80592  1.0000
  C   C3464     1.0  0.78518  0.50438  0.85581  1.0000
  C   C3465     1.0  0.65960  0.53064  0.83254  1.0000
  C   C3466     1.0  0.93064  0.62222  0.94837  1.0000
  H   H5881     1.0  0.51901  0.81655  0.92215  1.0000
  N   N243      1.0  0.85451  0.49320  0.84676  1.0000
  H   H5882     1.0  0.55030  0.81668  0.82654  1.0000
  C   C3467     1.0  0.79698  0.52540  0.86159  1.0000
  C   C3468     1.0  0.72047  0.61814  0.79454  1.0000
  S   S1014     1.0  0.54353  0.85997  0.86415  1.0000
  C   C3469     1.0  0.64592  0.52997  0.84348  1.0000
  C   C3470     1.0  0.52056  0.63213  0.83356  1.0000
  H   H5883     1.0  0.67442  0.51779  0.81713  1.0000
  C   C3471     1.0  0.96235  0.59612  0.95806  1.0000
  C   C3472     1.0  0.73737  0.51252  0.82675  1.0000
  H   H5884     1.0  0.59544  0.78245  0.80276  1.0000
  C   C3473     1.0  0.67098  0.68914  0.79100  1.0000
  H   H5885     1.0  0.86418  0.51786  0.83993  1.0000
  H   H5886     1.0  0.99090  0.53666  0.87933  1.0000
  H   H5887     1.0  0.50723  0.91778  0.90271  1.0000
  H   H5888     1.0  0.74250  0.55237  0.82520  1.0000
  C   C3474     1.0  0.69728  0.81341  0.79934  1.0000
  H   H5889     1.0  0.85631  0.50753  0.82083  1.0000
  H   H5890     1.0  0.72604  0.65854  0.79502  1.0000
  H   H5891     1.0  0.96487  0.58473  0.96601  1.0000
  H   H5892     1.0  0.61991  0.84186  0.79323  1.0000
  H   H5893     1.0  0.80766  0.63754  0.78668  1.0000
  H   H5894     1.0  0.73755  0.49216  0.87298  1.0000
  S   S1015     1.0  0.54404  0.82031  0.88297  1.0000
  C   C3475     1.0  0.93536  0.55832  0.89752  1.0000
  H   H5895     1.0  0.56070  0.74784  0.80272  1.0000
  H   H5896     1.0  0.75918  0.57085  0.84830  1.0000
  H   H5897     1.0  0.70710  0.50775  0.86980  1.0000
  H   H5898     1.0  0.72521  0.53908  0.84702  1.0000
  H   H5899     1.0  0.98936  0.51017  0.96956  1.0000
  C   C3476     1.0  0.78950  0.51254  0.84301  1.0000
  C   C3477     1.0  0.58239  0.66304  0.80916  1.0000
  H   H5900     1.0  0.93969  0.60724  0.97099  1.0000
  H   H5901     1.0  0.99134  0.63563  0.90632  1.0000
  S   S1016     1.0  0.78455  0.50494  0.83129  1.0000
  H   H5902     1.0  0.95604  0.54851  0.96722  1.0000
  H   H5903     1.0  0.51601  0.67268  0.83221  1.0000
  H   H5904     1.0  0.77037  0.55701  0.82370  1.0000
  C   C3478     1.0  0.98724  0.59604  0.92645  1.0000
  H   H5905     1.0  0.53599  0.97790  0.97417  1.0000
  S   S1017     1.0  0.89920  0.51259  0.89892  1.0000
  N   N244      1.0  0.66131  0.60271  0.89084  1.0000
  C   C3479     1.0  0.66495  0.58467  0.88776  1.0000
  C   C3480     1.0  0.67822  0.60983  0.88502  1.0000
  C   C3481     1.0  0.64595  0.61436  0.88489  1.0000
  C   C3482     1.0  0.65630  0.60045  0.90504  1.0000
  C   C3483     1.0  0.64886  0.57546  0.89178  1.0000
  C   C3484     1.0  0.69470  0.59977  0.89082  1.0000
  C   C3485     1.0  0.64429  0.63459  0.88197  1.0000
  C   C3486     1.0  0.65411  0.61688  0.91041  1.0000
  H   H5906     1.0  0.66991  0.58557  0.87737  1.0000
  H   H5907     1.0  0.67575  0.57520  0.89223  1.0000
  H   H5908     1.0  0.67627  0.62382  0.88557  1.0000
  H   H5909     1.0  0.68214  0.61002  0.87467  1.0000
  H   H5910     1.0  0.64691  0.61128  0.87563  1.0000
  H   H5911     1.0  0.63280  0.61163  0.89080  1.0000
  H   H5912     1.0  0.64324  0.59623  0.90886  1.0000
  H   H5913     1.0  0.66586  0.58933  0.90971  1.0000
  H   H5914     1.0  0.64414  0.57220  0.90221  1.0000
  H   H5915     1.0  0.63751  0.58331  0.88727  1.0000
  H   H5916     1.0  0.65322  0.56271  0.88858  1.0000
  H   H5917     1.0  0.69943  0.58601  0.88937  1.0000
  H   H5918     1.0  0.70604  0.60656  0.88597  1.0000
  H   H5919     1.0  0.69215  0.59979  0.90102  1.0000
  H   H5920     1.0  0.63139  0.64120  0.87895  1.0000
  H   H5921     1.0  0.65510  0.63875  0.87390  1.0000
  H   H5922     1.0  0.64416  0.63964  0.89023  1.0000
  H   H5923     1.0  0.64008  0.62472  0.91130  1.0000
  H   H5924     1.0  0.66347  0.62561  0.90488  1.0000
  H   H5925     1.0  0.65731  0.61249  0.91997  1.0000
  N   N245      1.0  0.77479  0.66392  0.83530  1.0000
  C   C3487     1.0  0.78095  0.67296  0.84307  1.0000
  C   C3488     1.0  0.78000  0.67306  0.82163  1.0000
  C   C3489     1.0  0.78503  0.64495  0.83703  1.0000
  C   C3490     1.0  0.75481  0.66500  0.83992  1.0000
  C   C3491     1.0  0.77878  0.66457  0.85738  1.0000
  C   C3492     1.0  0.77123  0.69290  0.81822  1.0000
  C   C3493     1.0  0.78072  0.63284  0.83020  1.0000
  C   C3494     1.0  0.74450  0.66318  0.83057  1.0000
  H   H5926     1.0  0.79542  0.67352  0.83931  1.0000
  H   H5927     1.0  0.77349  0.68696  0.84241  1.0000
  H   H5928     1.0  0.77725  0.66649  0.81511  1.0000
  H   H5929     1.0  0.79480  0.67202  0.81881  1.0000
  H   H5930     1.0  0.79975  0.64441  0.83415  1.0000
  H   H5931     1.0  0.78255  0.63822  0.84714  1.0000
  H   H5932     1.0  0.75208  0.65474  0.84873  1.0000
  H   H5933     1.0  0.74814  0.67799  0.84261  1.0000
  H   H5934     1.0  0.78090  0.67390  0.86231  1.0000
  H   H5935     1.0  0.76521  0.66181  0.86182  1.0000
  H   H5936     1.0  0.78910  0.65223  0.85920  1.0000
  H   H5937     1.0  0.77385  0.69732  0.80773  1.0000
  H   H5938     1.0  0.75649  0.69567  0.82175  1.0000
  H   H5939     1.0  0.77729  0.70107  0.82176  1.0000
  H   H5940     1.0  0.78987  0.61964  0.83187  1.0000
  H   H5941     1.0  0.78292  0.63769  0.81979  1.0000
  H   H5942     1.0  0.76695  0.63050  0.83428  1.0000
  H   H5943     1.0  0.73414  0.65535  0.83591  1.0000
  H   H5944     1.0  0.75277  0.65643  0.82292  1.0000
  H   H5945     1.0  0.73695  0.67631  0.82636  1.0000
  C   C3495     1.0  0.73779  0.56422  0.81820  1.0000
  C   C3496     1.0  0.69739  0.80642  0.78775  1.0000
  H   H5946     1.0  0.73070  0.59242  0.81521  1.0000
  H   H5947     1.0  0.57148  0.94548  0.96269  1.0000
  H   H5948     1.0  0.67675  0.71156  0.79601  1.0000
  C   C3497     1.0  0.57465  0.76720  0.78929  1.0000
  Fe  Fe511     1.0  0.52185  0.71428  0.82671  1.0000
  H   H5949     1.0  0.93664  0.49935  0.93000  1.0000
  H   H5950     1.0  0.54864  0.87225  0.91609  1.0000
  H   H5951     1.0  0.70091  0.80283  0.80744  1.0000
  C   C3498     1.0  0.56550  0.76168  0.82812  1.0000
  H   H5952     1.0  0.61526  0.62680  0.80828  1.0000
  H   H5953     1.0  0.93870  0.61467  0.94099  1.0000
  H   H5954     1.0  0.99431  0.58555  0.93282  1.0000
  C   C3499     1.0  0.73505  0.52629  0.86416  1.0000
  H   H5955     1.0  0.53036  0.66304  0.81913  1.0000
  C   C3500     1.0  0.76687  0.56835  0.82849  1.0000
  N   N246      1.0  0.75589  0.58450  0.82143  1.0000
  C   C3501     1.0  0.57335  0.79556  0.83109  1.0000
  H   H5956     1.0  0.57282  0.78854  0.84114  1.0000
  H   H5957     1.0  0.59009  0.65312  0.80347  1.0000
  H   H5958     1.0  0.94604  0.49585  0.95329  1.0000
  C   C3502     1.0  0.71963  0.64752  0.79686  1.0000
  H   H5959     1.0  0.97625  0.52426  0.94844  1.0000
  H   H5960     1.0  0.81537  0.60618  0.79766  1.0000
  C   C3503     1.0  0.55370  0.80198  0.82927  1.0000
  C   C3504     1.0  0.59227  0.66669  0.81809  1.0000
  C   C3505     1.0  0.80873  0.55193  0.90730  1.0000
  H   H5961     1.0  0.69689  0.53998  0.85933  1.0000
  N   N247      1.0  0.84095  0.53244  0.90218  1.0000
  C   C3506     1.0  0.85376  0.52619  0.89079  1.0000
  C   C3507     1.0  0.83373  0.51665  0.91063  1.0000
  C   C3508     1.0  0.85167  0.53828  0.90895  1.0000
  C   C3509     1.0  0.82654  0.54760  0.89760  1.0000
  C   C3510     1.0  0.86424  0.53967  0.88123  1.0000
  H   H5962     1.0  0.84105  0.52072  0.84565  1.0000
  C   C3511     1.0  0.54584  0.77593  0.86709  1.0000
  H   H5963     1.0  0.98008  0.54173  0.96202  1.0000
  H   H5964     1.0  0.86383  0.51406  0.89377  1.0000
  H   H5965     1.0  0.84636  0.52244  0.88517  1.0000
  H   H5966     1.0  0.82477  0.51964  0.91956  1.0000
  S   S1018     1.0  0.80987  0.66991  0.79222  1.0000
  H   H5967     1.0  0.86324  0.52737  0.91114  1.0000
  H   H5968     1.0  0.85741  0.54975  0.90284  1.0000
  H   H5969     1.0  0.83184  0.55995  0.89368  1.0000
  H   H5970     1.0  0.82275  0.54505  0.88948  1.0000
  H   H5971     1.0  0.87199  0.53385  0.87292  1.0000
  H   H5972     1.0  0.85518  0.55207  0.87762  1.0000
  H   H5973     1.0  0.87424  0.54266  0.88518  1.0000
  H   H5974     1.0  0.74158  0.62776  0.82675  1.0000
  H   H5975     1.0  0.50343  0.83089  0.90126  1.0000
  C   C3512     1.0  0.92567  0.57790  0.98125  1.0000
  C   C3513     1.0  0.81299  0.63423  0.79512  1.0000
  C   C3514     1.0  0.58421  0.76508  0.82679  1.0000
  H   H5976     1.0  0.57210  0.78882  0.80728  1.0000
  H   H5977     1.0  0.54151  0.98636  0.95747  1.0000
  H   H5978     1.0  0.97170  0.52016  0.98044  1.0000
  H   H5979     1.0  0.78910  0.59689  0.79490  1.0000
  C   C3515     1.0  0.61863  0.68074  0.79436  1.0000
  H   H5980     1.0  0.62418  0.77973  0.83475  1.0000
  H   H5981     1.0  0.90828  0.63184  0.96973  1.0000
  S   S1019     1.0  0.55146  0.82466  0.85225  1.0000
  C   C3516     1.0  0.64937  0.96844  0.94299  1.0000
  C   C3517     1.0  0.60528  0.78408  0.82278  1.0000
  C   C3518     1.0  0.60984  0.77948  0.83600  1.0000
  H   H5982     1.0  0.61522  0.77491  0.81704  1.0000
  H   H5983     1.0  0.60837  0.79733  0.81836  1.0000
  H   H5984     1.0  0.69658  0.60784  0.80385  1.0000
  H   H5985     1.0  0.60195  0.78950  0.84168  1.0000
  H   H5986     1.0  0.60817  0.76610  0.84149  1.0000
  H   H5987     1.0  0.50314  0.82163  0.83248  1.0000
  N   N248      1.0  0.60604  0.88171  0.91568  1.0000
  C   C3519     1.0  0.60169  0.90175  0.91281  1.0000
  C   C3520     1.0  0.59244  0.87567  0.92733  1.0000
  C   C3521     1.0  0.60436  0.87573  0.90444  1.0000
  C   C3522     1.0  0.62499  0.87559  0.91773  1.0000
  C   C3523     1.0  0.61202  0.91100  0.90005  1.0000
  C   C3524     1.0  0.59321  0.88029  0.93964  1.0000
  C   C3525     1.0  0.60066  0.85705  0.90677  1.0000
  C   C3526     1.0  0.63179  0.85549  0.92212  1.0000
  H   H5988     1.0  0.58715  0.90688  0.91283  1.0000
  H   H5989     1.0  0.60428  0.90697  0.92024  1.0000
  H   H5990     1.0  0.59357  0.86114  0.92955  1.0000
  H   H5991     1.0  0.57857  0.88132  0.92566  1.0000
  H   H5992     1.0  0.59316  0.88481  0.90021  1.0000
  H   H5993     1.0  0.61661  0.87648  0.89673  1.0000
  H   H5994     1.0  0.63467  0.87962  0.90881  1.0000
  H   H5995     1.0  0.62725  0.88244  0.92441  1.0000
  H   H5996     1.0  0.60898  0.90813  0.89181  1.0000
  H   H5997     1.0  0.60757  0.92558  0.89920  1.0000
  H   H5998     1.0  0.62671  0.90774  0.89941  1.0000
  H   H5999     1.0  0.59028  0.89476  0.93903  1.0000
  H   H6000     1.0  0.58273  0.87502  0.94750  1.0000
  H   H6001     1.0  0.60630  0.87413  0.94240  1.0000
  H   H6002     1.0  0.60120  0.85416  0.89750  1.0000
  H   H6003     1.0  0.58689  0.85634  0.91243  1.0000
  H   H6004     1.0  0.61058  0.84646  0.91127  1.0000
  H   H6005     1.0  0.63784  0.84910  0.91386  1.0000
  H   H6006     1.0  0.62140  0.84859  0.92865  1.0000
  H   H6007     1.0  0.64222  0.85326  0.92763  1.0000
  N   N249      1.0  0.96315  0.51103  0.96682  1.0000
  S   S1020     1.0  0.76091  0.66780  0.79505  1.0000
  C   C3527     1.0  0.97567  0.50919  0.97535  1.0000
  C   C3528     1.0  0.96454  0.52726  0.95624  1.0000
  C   C3529     1.0  0.94398  0.51160  0.97402  1.0000
  H   H6008     1.0  0.68315  0.76202  0.81004  1.0000
  C   C3530     1.0  0.63412  0.97743  0.95255  1.0000
  H   H6009     1.0  0.88243  0.53036  0.97907  1.0000
  H   H6010     1.0  0.99536  0.55621  0.88186  1.0000
  H   H6011     1.0  0.63137  0.63559  0.82178  1.0000
  H   H6012     1.0  0.68751  0.53224  0.84926  1.0000
  S   S1021     1.0  0.50869  0.94515  0.94845  1.0000
  H   H6013     1.0  0.61073  0.63865  0.83304  1.0000
  C   C3531     1.0  0.96067  0.49527  0.95011  1.0000
  H   H6014     1.0  0.95261  0.53137  0.95189  1.0000
  H   H6015     1.0  0.93526  0.51292  0.96741  1.0000
  C   C3532     1.0  0.96918  0.49481  0.96108  1.0000
  H   H6016     1.0  0.79772  0.54825  0.90485  1.0000
  N   N250      1.0  0.58631  0.78407  0.82246  1.0000
  H   H6017     1.0  0.96671  0.55487  0.95102  1.0000
  C   C3533     1.0  0.74347  0.61786  0.82101  1.0000
  H   H6018     1.0  0.71279  0.52856  0.83472  1.0000
  H   H6019     1.0  0.57336  0.95490  0.98165  1.0000
  H   H6020     1.0  0.52590  0.92042  0.93228  1.0000
  H   H6021     1.0  0.51365  0.96299  0.89840  1.0000
  H   H6022     1.0  0.51687  0.82904  0.84727  1.0000
  H   H6023     1.0  0.73032  0.79321  0.79376  1.0000
  H   H6024     1.0  0.52020  0.77124  0.86723  1.0000
  H   H6025     1.0  0.96468  0.50149  0.89398  1.0000
  H   H6026     1.0  0.73312  0.51612  0.81756  1.0000
  H   H6027     1.0  0.97220  0.56325  0.90793  1.0000
  H   H6028     1.0  0.97571  0.59864  0.95261  1.0000
  H   H6029     1.0  0.83133  0.55651  0.91980  1.0000
  H   H6030     1.0  0.51951  0.87609  0.89064  1.0000
  C   C3534     1.0  0.51042  0.86683  0.89249  1.0000
  H   H6031     1.0  0.51364  0.65005  0.85202  1.0000
  H   H6032     1.0  0.59192  0.99002  0.94606  1.0000
  H   H6033     1.0  0.51442  0.90144  0.92387  1.0000
  H   H6034     1.0  0.80903  0.54587  0.91733  1.0000
  H   H6035     1.0  0.85151  0.54768  0.92535  1.0000
  H   H6036     1.0  0.51530  0.61619  0.85310  1.0000
  H   H6037     1.0  0.53822  0.95857  0.88396  1.0000
  H   H6038     1.0  0.68347  0.82065  0.80291  1.0000
  H   H6039     1.0  0.88793  0.52045  0.95784  1.0000
  H   H6040     1.0  0.56645  0.74713  0.83066  1.0000
  H   H6041     1.0  0.90929  0.65025  0.97544  1.0000
  H   H6042     1.0  0.74498  0.49862  0.82777  1.0000
  H   H6043     1.0  0.61370  0.61378  0.82392  1.0000
  C   C3535     1.0  0.91630  0.63697  0.94236  1.0000
  C   C3536     1.0  0.61368  0.66863  0.83640  1.0000
  H   H6044     1.0  0.51532  0.98059  0.94728  1.0000
  H   H6045     1.0  0.78558  0.50435  0.87496  1.0000
  C   C3537     1.0  0.67994  0.69691  0.79828  1.0000
  H   H6046     1.0  0.96309  0.55349  0.92387  1.0000
  C   C3538     1.0  0.69190  0.52887  0.85835  1.0000
  C   C3539     1.0  0.50278  0.82880  0.84976  1.0000
  H   H6047     1.0  0.61710  0.68433  0.81765  1.0000
  C   C3540     1.0  0.62172  0.66167  0.80240  1.0000
  H   H6048     1.0  0.80098  0.53356  0.82963  1.0000
  C   C3541     1.0  0.63657  0.51607  0.84740  1.0000
  H   H6049     1.0  0.62597  0.51562  0.85584  1.0000
  H   H6050     1.0  0.85837  0.52853  0.96703  1.0000
  C   C3542     1.0  0.91950  0.50428  0.91685  1.0000
  H   H6051     1.0  0.79358  0.58443  0.80991  1.0000
  H   H6052     1.0  0.63515  0.66575  0.82006  1.0000
  H   H6053     1.0  0.92902  0.53882  0.97489  1.0000
  C   C3543     1.0  0.60514  0.98096  0.94660  1.0000
  C   C3544     1.0  0.62020  0.66992  0.82197  1.0000
  C   C3545     1.0  0.61657  0.64040  0.82272  1.0000
  H   H6054     1.0  0.50742  0.76656  0.84029  1.0000
  N   N251      1.0  0.61230  0.65962  0.81617  1.0000
  H   H6055     1.0  0.86323  0.51417  0.94954  1.0000
  H   H6056     1.0  0.56250  0.77710  0.78821  1.0000
  H   H6057     1.0  0.67831  0.78548  0.80832  1.0000
  H   H6058     1.0  0.61407  0.98407  0.97485  1.0000
  H   H6059     1.0  0.74615  0.52453  0.84495  1.0000
  C   C3546     1.0  0.95768  0.54225  0.91006  1.0000
  H   H6060     1.0  0.59885  0.67173  0.83933  1.0000
  S   S1022     1.0  0.67171  0.63537  0.81563  1.0000
  N   N252      1.0  0.50441  0.94471  0.89171  1.0000
  H   H6061     1.0  0.75692  0.59862  0.80189  1.0000
  C   C3547     1.0  0.69379  0.63401  0.80676  1.0000
  C   C3548     1.0  0.73247  0.52569  0.85115  1.0000
  H   H6062     1.0  0.91603  0.63436  0.93318  1.0000
  H   H6063     1.0  0.74648  0.52125  0.82601  1.0000
  H   H6064     1.0  0.96556  0.56914  0.88795  1.0000
  H   H6065     1.0  0.92482  0.55005  0.88409  1.0000
  H   H6066     1.0  0.58914  0.68129  0.81709  1.0000
  H   H6067     1.0  0.53149  0.92895  0.88825  1.0000
  C   C3549     1.0  0.72878  0.63246  0.79197  1.0000
  N   N253      1.0  0.72383  0.51131  0.85069  1.0000
  H   H6068     1.0  0.50735  0.86598  0.91217  1.0000
  H   H6069     1.0  0.70663  0.82259  0.79670  1.0000
  C   C3550     1.0  0.82335  0.50841  0.90469  1.0000
  H   H6070     1.0  0.59473  0.63006  0.82047  1.0000
  H   H6071     1.0  0.83263  0.50055  0.89787  1.0000
  H   H6072     1.0  0.68330  0.80650  0.78772  1.0000
  H   H6073     1.0  0.69141  0.73597  0.79792  1.0000
  H   H6074     1.0  0.71206  0.50594  0.83708  1.0000
  C   C3551     1.0  0.78899  0.51072  0.86507  1.0000
  H   H6075     1.0  0.52471  0.96716  0.87197  1.0000
  C   C3552     1.0  0.58578  0.81017  0.80296  1.0000
  H   H6076     1.0  0.93550  0.56893  0.87709  1.0000
  C   C3553     1.0  0.51738  0.82972  0.91557  1.0000
  H   H6077     1.0  0.55559  0.76705  0.83599  1.0000
  C   C3554     1.0  0.51659  0.67004  0.82293  1.0000
  H   H6078     1.0  0.51905  0.85373  0.89138  1.0000
  S   S1023     1.0  0.72543  0.71166  0.79441  1.0000
  H   H6079     1.0  0.61751  0.95695  0.93889  1.0000
  H   H6080     1.0  0.61930  0.65548  0.84186  1.0000
  S   S1024     1.0  0.58872  0.71760  0.80988  1.0000
  H   H6081     1.0  0.61784  0.97715  0.92685  1.0000
  H   H6082     1.0  0.62921  0.96660  0.96024  1.0000
  H   H6083     1.0  0.51691  0.60450  0.84088  1.0000
  H   H6084     1.0  0.90405  0.52925  0.96889  1.0000
  H   H6085     1.0  0.96340  0.50748  0.90840  1.0000
  H   H6086     1.0  0.81319  0.51844  0.89995  1.0000
  H   H6087     1.0  0.67970  0.52753  0.86596  1.0000
  Fe  Fe512     1.0  0.53081  0.83693  0.86718  1.0000
  H   H6088     1.0  0.65840  0.95759  0.94828  1.0000
  C   C3555     1.0  0.51202  0.90912  0.98523  1.0000
  H   H6089     1.0  0.61805  0.65331  0.79754  1.0000
  C   C3556     1.0  0.57363  0.75070  0.79757  1.0000
  C   C3557     1.0  0.72050  0.51480  0.83749  1.0000
  H   H6090     1.0  0.74802  0.51773  0.86607  1.0000
  H   H6091     1.0  0.96992  0.53185  0.91106  1.0000
  H   H6092     1.0  0.74400  0.56131  0.84410  1.0000
  C   C3558     1.0  0.52207  0.61439  0.84335  1.0000
  H   H6093     1.0  0.80480  0.56649  0.90662  1.0000
  H   H6094     1.0  0.94220  0.49883  0.98071  1.0000
  N   N254      1.0  0.70965  0.78871  0.78647  1.0000
  H   H6095     1.0  0.95571  0.59185  0.95224  1.0000
  H   H6096     1.0  0.57014  0.65821  0.81493  1.0000
  H   H6097     1.0  0.52785  0.62931  0.82408  1.0000
  C   C3559     1.0  0.81600  0.64756  0.79964  1.0000
  H   H6098     1.0  0.76548  0.54864  0.84630  1.0000
  C   C3560     1.0  0.84608  0.50015  0.86912  1.0000
  H   H6099     1.0  0.74598  0.56326  0.80860  1.0000
  N   N255      1.0  0.87386  0.50223  0.97281  1.0000
  C   C3561     1.0  0.51174  0.92095  0.93453  1.0000
  H   H6100     1.0  0.74132  0.76186  0.79038  1.0000
  H   H6101     1.0  0.83601  0.53369  0.92875  1.0000
  C   C3562     1.0  0.73619  0.49331  0.85319  1.0000
  H   H6102     1.0  0.52875  0.63968  0.83573  1.0000
  H   H6103     1.0  0.94840  0.56898  0.91458  1.0000
  C   C3563     1.0  0.60959  0.62734  0.81836  1.0000
  H   H6104     1.0  0.72865  0.58191  0.83129  1.0000
  H   H6105     1.0  0.52909  0.82868  0.90751  1.0000
  C   C3564     1.0  0.88988  0.51076  0.96683  1.0000
  H   H6106     1.0  0.52672  0.89157  0.97208  1.0000
  C   C3565     1.0  0.50737  0.95128  0.90223  1.0000
  C   C3566     1.0  0.61014  0.97071  0.93588  1.0000
  C   C3567     1.0  0.58515  0.94747  0.97635  1.0000
  C   C3568     1.0  0.50519  0.91017  0.92974  1.0000
  C   C3569     1.0  0.60154  0.94308  0.98021  1.0000
  H   H6107     1.0  0.54480  0.95046  0.86983  1.0000
  H   H6108     1.0  0.53650  0.60868  0.84346  1.0000
  C   C3570     1.0  0.93496  0.52670  0.98122  1.0000
  C   C3571     1.0  0.91742  0.63791  0.97235  1.0000
  H   H6109     1.0  0.59249  0.98575  0.97143  1.0000
  H   H6110     1.0  0.51422  0.68311  0.81632  1.0000
  H   H6111     1.0  0.85410  0.52969  0.82140  1.0000
  H   H6112     1.0  0.50784  0.91185  0.88256  1.0000
  H   H6113     1.0  0.62588  0.68913  0.79664  1.0000
  H   H6114     1.0  0.82554  0.49819  0.85313  1.0000
  C   C3572     1.0  0.65453  0.50351  0.82950  1.0000
  H   H6115     1.0  0.92240  0.62897  0.98069  1.0000
  H   H6116     1.0  0.51861  0.83932  0.92054  1.0000
  C   C3573     1.0  0.87283  0.50120  0.95019  1.0000
  H   H6117     1.0  0.51690  0.94089  0.90747  1.0000
  H   H6118     1.0  0.64076  0.98399  0.95706  1.0000
  C   C3574     1.0  0.98699  0.54606  0.88577  1.0000
  H   H6119     1.0  0.67304  0.67468  0.79512  1.0000
  H   H6120     1.0  0.65625  0.69426  0.79366  1.0000
  H   H6121     1.0  0.72752  0.60651  0.79073  1.0000
  H   H6122     1.0  0.90086  0.51194  0.98258  1.0000
  C   C3575     1.0  0.97781  0.49179  0.98538  1.0000
  C   C3576     1.0  0.99473  0.61084  0.91983  1.0000
  H   H6123     1.0  0.88647  0.50316  0.94497  1.0000
  H   H6124     1.0  0.83549  0.51672  0.96620  1.0000
  H   H6125     1.0  0.90223  0.50067  0.96414  1.0000
  C   C3577     1.0  0.83906  0.51232  0.97565  1.0000
  C   C3578     1.0  0.86014  0.49114  0.85900  1.0000
  H   H6126     1.0  0.88772  0.49898  0.82996  1.0000
  H   H6127     1.0  0.83813  0.49834  0.97965  1.0000
  H   H6128     1.0  0.81620  0.49898  0.91223  1.0000
  H   H6129     1.0  0.85610  0.52116  0.98373  1.0000
  H   H6130     1.0  0.86894  0.49298  0.94525  1.0000
  H   H6131     1.0  0.71144  0.76099  0.79584  1.0000
  H   H6132     1.0  0.85206  0.49734  0.87750  1.0000
  H   H6133     1.0  0.67765  0.77602  0.79563  1.0000
  C   C3579     1.0  0.87295  0.49131  0.96404  1.0000
  C   C3580     1.0  0.68486  0.77463  0.80315  1.0000
  H   H6134     1.0  0.98397  0.49203  0.95750  1.0000
  C   C3581     1.0  0.70505  0.77437  0.79793  1.0000
  H   H6135     1.0  0.53757  0.89024  0.98466  1.0000
  H   H6136     1.0  0.87232  0.49658  0.85728  1.0000
  H   H6137     1.0  0.75040  0.49411  0.84857  1.0000
  H   H6138     1.0  0.92684  0.49296  0.91281  1.0000
  H   H6139     1.0  0.83373  0.49470  0.87245  1.0000
  C   C3582     1.0  0.69706  0.73756  0.78786  1.0000
  H   H6140     1.0  0.77847  0.49346  0.85868  1.0000
  H   H6141     1.0  0.65781  0.49355  0.82395  1.0000
  H   H6142     1.0  0.50232  0.87179  0.88510  1.0000
  N   N256      1.0  0.61864  0.99049  0.94747  1.0000
  H   H6143     1.0  0.83209  0.49126  0.83077  1.0000
  C   C3583     1.0  0.99548  0.56900  0.98547  1.0000
  C   C3584     1.0  0.50234  0.65993  0.82337  1.0000
  H   H6144     1.0  0.00198  0.54488  0.97894  1.0000
