data_image0
_chemical_formula_structural       C2HFeS2HS2FeSH2CH2C7H4FeH7SH4CH2CSFeH2NH3CHCHSH2CHNHSCH2CHC2HC2H4C4H3NH3SHSHFeS2FeSCFeSFeS3H3NHC6H4C7H4SCH4NC3HCH5FeCH4CFeCHCH5CHNC2H5C2HCH2CH2CH3C2H2CH2CH5CH2FeSHFeS2H3FeS2H2CH2C6H4C2H5CH11CH3CSH4CHC2H3C3HCSNH2CH2CH2CH3C2FeH4SH2C4S2FeSHFeS2FeSHFeSFeHS2CHCHC7H4C6HCH10NFeH8C2H2NHCHC2HCHCHCH2CHC3H3CH3CSHCH2CH5CH2SHCH8FeS2FeS2HCSH3C5H3FeS2FeS2H2C8H4CH2CH9C3HNC6HCH12CH2C2H2NC2H2CHCHCH10CHCHCH2CHCHCH6CH2NHCH2CHC3H2C2HSCH2CHCH4C4HCHCH2CHSHC2FeCHSHSH2CFeNH3CSC2HCHC2SC2HSHFeHSH3CH2S2H4C2HFeCH7C3HC2H3CHC3SH3SCH3CH2CH2NCHCH2CH2C3H4CHSFeHSFeS2HS2HC4HC6H7SH6CH4FeCH8CH5NHCHC4H2C2FeSHCHCNHFeS2HSFe2S2FeS2FeSFeCS2C3H2CHSC3H4C6H5CHC2H3CH6CH2CHC2H4C2H2CH3C2H5CHN2CHC2H7NH5CHC2FeHSFeNSFeS2FeS2H2C2H2C6H4C3H4SH2NH3CH4CH2CH3CH2C2H3CH3CH2C2NH3CHCHC2HCHCHCHCH4S2C2SFeS2FeS2FeSFeHS2H2FeH2C6HCH2C6H3CH2CH3CHCSH4NH2CH4CHCH5NHC3H2CH3CHCH3FeH5CH2C3H3CHCH5CH2
_chemical_formula_sum              "C336 H576 Fe48 S96 N24"
_cell_length_a       40.4605
_cell_length_b       40.2131
_cell_length_c       25.6604
_cell_angle_alpha    89.8247
_cell_angle_beta     90.4592
_cell_angle_gamma    119.732

_space_group_name_H-M_alt    "P 1"
_space_group_IT_number       1

loop_
  _space_group_symop_operation_xyz
  'x, y, z'

loop_
  _atom_site_type_symbol
  _atom_site_label
  _atom_site_symmetry_multiplicity
  _atom_site_fract_x
  _atom_site_fract_y
  _atom_site_fract_z
  _atom_site_occupancy
  C   C1        1.0  0.25796  0.50995  0.25513  1.0000
  C   C2        1.0  0.07196  0.33428  0.46780  1.0000
  H   H1        1.0  0.24163  0.25308  0.09630  1.0000
  Fe  Fe1       1.0  0.22243  0.47824  0.47814  1.0000
  S   S1        1.0  0.16240  0.44224  0.44455  1.0000
  S   S2        1.0  0.27101  0.47017  0.45375  1.0000
  H   H2        1.0  0.29146  0.30707  0.04816  1.0000
  S   S3        1.0  0.06085  0.30519  0.10918  1.0000
  S   S4        1.0  0.05397  0.21175  0.05228  1.0000
  Fe  Fe2       1.0  0.07323  0.30796  0.19546  1.0000
  S   S5        1.0  0.13073  0.35110  0.23051  1.0000
  H   H3        1.0  0.03460  0.20848  0.47482  1.0000
  H   H4        1.0  0.26230  0.47727  0.32168  1.0000
  C   C3        1.0  0.26368  0.27842  0.11760  1.0000
  H   H5        1.0  0.11254  0.29153  0.42024  1.0000
  H   H6        1.0  0.18193  0.45114  0.27538  1.0000
  C   C4        1.0  0.26045  0.47584  0.27851  1.0000
  C   C5        1.0  0.13769  0.37408  0.29151  1.0000
  C   C6        1.0  0.17180  0.38538  0.31907  1.0000
  C   C7        1.0  0.17976  0.40631  0.36585  1.0000
  C   C8        1.0  0.15358  0.41604  0.38573  1.0000
  C   C9        1.0  0.11926  0.40436  0.35846  1.0000
  C   C10       1.0  0.11146  0.38375  0.31133  1.0000
  H   H7        1.0  0.19241  0.37830  0.30381  1.0000
  H   H8        1.0  0.20615  0.41483  0.38653  1.0000
  H   H9        1.0  0.09888  0.41186  0.37345  1.0000
  H   H10       1.0  0.08547  0.37590  0.28988  1.0000
  Fe  Fe3       1.0  0.04129  0.24251  0.11672  1.0000
  H   H11       1.0  0.20933  0.45417  0.18685  1.0000
  H   H12       1.0  0.02284  0.27715  0.47234  1.0000
  H   H13       1.0  0.32218  0.23864  0.02231  1.0000
  H   H14       1.0  0.05390  0.32471  0.36005  1.0000
  H   H15       1.0  0.03102  0.22503  0.36010  1.0000
  H   H16       1.0  0.24352  0.19870  0.04037  1.0000
  H   H17       1.0  0.21686  0.48943  0.34600  1.0000
  S   S6        1.0  0.31838  0.04940  0.34955  1.0000
  H   H18       1.0  0.10934  0.32655  0.38341  1.0000
  H   H19       1.0  0.10324  0.34866  0.46224  1.0000
  H   H20       1.0  0.15949  0.43654  0.18482  1.0000
  H   H21       1.0  0.19390  0.28565  0.06505  1.0000
  C   C11       1.0  0.13265  0.25416  0.05950  1.0000
  H   H22       1.0  0.30876  0.24984  0.15094  1.0000
  H   H23       1.0  0.31858  0.32801  0.10593  1.0000
  C   C12       1.0  0.26989  0.20868  0.06414  1.0000
  S   S7        1.0  0.05727  0.24595  0.20157  1.0000
  Fe  Fe4       1.0  0.29088  0.02630  0.42840  1.0000
  H   H24       1.0  0.25146  0.29756  0.12301  1.0000
  H   H25       1.0  0.26221  0.21041  0.10473  1.0000
  N   N1        1.0  0.32314  0.28012  0.07643  1.0000
  H   H26       1.0  0.26847  0.27054  0.15717  1.0000
  H   H27       1.0  0.13362  0.29545  0.32884  1.0000
  H   H28       1.0  0.15891  0.49641  0.33368  1.0000
  C   C13       1.0  0.09558  0.29503  0.38859  1.0000
  H   H29       1.0  0.12859  0.26852  0.09238  1.0000
  C   C14       1.0  0.18728  0.47538  0.24963  1.0000
  H   H30       1.0  0.34922  0.29552  0.15297  1.0000
  S   S8        1.0  0.31733  0.04078  0.50804  1.0000
  H   H31       1.0  0.06001  0.34821  0.44260  1.0000
  H   H32       1.0  0.23655  0.44779  0.26603  1.0000
  C   C15       1.0  0.30051  0.30012  0.08580  1.0000
  H   H33       1.0  0.09481  0.24863  0.34168  1.0000
  N   N2        1.0  0.05440  0.27862  0.40361  1.0000
  H   H34       1.0  0.08760  0.28289  0.30430  1.0000
  S   S9        1.0  0.24017  0.03198  0.45068  1.0000
  C   C16       1.0  0.30202  0.24624  0.04049  1.0000
  H   H35       1.0  0.16144  0.47828  0.25311  1.0000
  H   H36       1.0  0.19076  0.48460  0.16428  1.0000
  C   C17       1.0  0.18736  0.46254  0.19304  1.0000
  H   H37       1.0  0.35042  0.09565  0.25875  1.0000
  C   C18       1.0  0.04851  0.21484  0.43609  1.0000
  C   C19       1.0  0.10275  0.27918  0.33794  1.0000
  H   H38       1.0  0.28711  0.47721  0.26493  1.0000
  C   C20       1.0  0.10098  0.22550  0.03309  1.0000
  C   C21       1.0  0.16964  0.26375  0.04397  1.0000
  H   H39       1.0  0.04242  0.18748  0.41730  1.0000
  H   H40       1.0  0.07969  0.23111  0.44191  1.0000
  H   H41       1.0  0.27753  0.18573  0.06184  1.0000
  H   H42       1.0  0.06700  0.28000  0.48594  1.0000
  C   C22       1.0  0.33385  0.26959  0.12786  1.0000
  C   C23       1.0  0.03324  0.23550  0.40082  1.0000
  C   C24       1.0  0.05278  0.29062  0.45863  1.0000
  C   C25       1.0  0.03593  0.29340  0.36584  1.0000
  H   H43       1.0  0.03332  0.28071  0.32653  1.0000
  H   H44       1.0  0.34722  0.22614  0.09727  1.0000
  H   H45       1.0  0.26227  0.51022  0.21233  1.0000
  N   N3        1.0  0.22231  0.51140  0.26733  1.0000
  H   H46       1.0  0.22835  0.19689  0.50675  1.0000
  H   H47       1.0  0.18941  0.38016  0.89471  1.0000
  H   H48       1.0  0.24026  0.16080  0.52280  1.0000
  S   S10       1.0  0.31572  0.45224  0.58171  1.0000
  H   H49       1.0  0.13754  0.28159  0.94328  1.0000
  S   S11       1.0  0.28413  0.09792  0.57995  1.0000
  H   H50       1.0  0.18673  0.36603  0.77712  1.0000
  Fe  Fe5       1.0  0.26209  0.28468  0.79529  1.0000
  S   S12       1.0  0.21325  0.23096  0.82815  1.0000
  S   S13       1.0  0.23744  0.31369  0.74368  1.0000
  Fe  Fe6       1.0  0.31983  0.27147  0.85907  1.0000
  S   S14       1.0  0.27439  0.21710  0.89480  1.0000
  C   C26       1.0  0.17698  0.35937  0.86191  1.0000
  Fe  Fe7       1.0  0.24945  0.20385  0.81341  1.0000
  S   S15       1.0  0.22005  0.14460  0.77585  1.0000
  Fe  Fe8       1.0  0.24262  0.24935  0.90563  1.0000
  S   S16       1.0  0.22249  0.25786  0.98457  1.0000
  S   S17       1.0  0.29689  0.25651  0.77652  1.0000
  S   S18       1.0  0.28952  0.30469  0.87399  1.0000
  H   H51       1.0  0.15098  0.36071  0.85117  1.0000
  H   H52       1.0  0.17984  0.20055  0.71827  1.0000
  H   H53       1.0  0.29137  0.26663  0.56937  1.0000
  N   N4        1.0  0.24147  0.22666  0.61331  1.0000
  H   H54       1.0  0.22569  0.36727  0.81295  1.0000
  C   C27       1.0  0.26566  0.10914  0.63531  1.0000
  C   C28       1.0  0.22864  0.08532  0.65313  1.0000
  C   C29       1.0  0.21516  0.09637  0.69657  1.0000
  C   C30       1.0  0.23850  0.13120  0.72251  1.0000
  C   C31       1.0  0.27570  0.15458  0.70523  1.0000
  C   C32       1.0  0.28908  0.14372  0.66166  1.0000
  H   H55       1.0  0.21028  0.05869  0.63311  1.0000
  H   H56       1.0  0.18635  0.07802  0.70987  1.0000
  H   H57       1.0  0.29421  0.18097  0.72564  1.0000
  H   H58       1.0  0.31787  0.16218  0.64838  1.0000
  C   C33       1.0  0.26020  0.35287  0.69987  1.0000
  C   C34       1.0  0.23816  0.36644  0.67469  1.0000
  C   C35       1.0  0.25468  0.39695  0.63876  1.0000
  C   C36       1.0  0.29347  0.41410  0.62731  1.0000
  C   C37       1.0  0.31542  0.40032  0.65231  1.0000
  C   C38       1.0  0.29896  0.36994  0.68847  1.0000
  C   C39       1.0  0.14375  0.21703  0.97447  1.0000
  H   H59       1.0  0.20124  0.26721  0.64416  1.0000
  H   H60       1.0  0.21804  0.34768  0.96604  1.0000
  H   H61       1.0  0.31630  0.35983  0.70743  1.0000
  H   H62       1.0  0.23743  0.40716  0.61976  1.0000
  S   S19       1.0  0.23895  0.48825  0.56376  1.0000
  C   C40       1.0  0.33344  0.09883  0.72670  1.0000
  H   H63       1.0  0.32532  0.05859  0.78760  1.0000
  H   H64       1.0  0.12226  0.29727  0.81882  1.0000
  H   H65       1.0  0.24719  0.17578  0.61480  1.0000
  H   H66       1.0  0.24425  0.37618  0.91004  1.0000
  N   N5        1.0  0.16652  0.31937  0.87834  1.0000
  C   C41       1.0  0.23019  0.22061  0.66984  1.0000
  C   C42       1.0  0.23352  0.18879  0.59087  1.0000
  C   C43       1.0  0.17536  0.24520  0.00155  1.0000
  H   H67       1.0  0.19324  0.28838  0.90927  1.0000
  C   C44       1.0  0.21919  0.24117  0.58275  1.0000
  H   H68       1.0  0.24617  0.30015  0.61405  1.0000
  H   H69       1.0  0.16470  0.29837  0.80020  1.0000
  H   H70       1.0  0.18258  0.16262  0.68458  1.0000
  H   H71       1.0  0.14952  0.24201  0.85910  1.0000
  H   H72       1.0  0.20255  0.16756  0.59254  1.0000
  Fe  Fe9       1.0  0.26522  0.04344  0.53207  1.0000
  C   C45       1.0  0.31148  0.24386  0.62991  1.0000
  H   H73       1.0  0.33378  0.10150  0.68369  1.0000
  H   H74       1.0  0.23879  0.24812  0.69034  1.0000
  H   H75       1.0  0.10560  0.33444  0.91134  1.0000
  H   H76       1.0  0.20240  0.28494  0.58003  1.0000
  C   C46       1.0  0.20333  0.37543  0.81410  1.0000
  Fe  Fe10      1.0  0.28969  0.48356  0.53802  1.0000
  C   C47       1.0  0.14540  0.29247  0.83399  1.0000
  H   H77       1.0  0.14779  0.20230  0.94207  1.0000
  C   C48       1.0  0.23065  0.34733  0.92803  1.0000
  H   H78       1.0  0.30702  0.23539  0.67135  1.0000
  H   H79       1.0  0.10517  0.23960  0.87611  1.0000
  H   H80       1.0  0.26193  0.04730  0.70632  1.0000
  H   H81       1.0  0.25374  0.34075  0.93661  1.0000
  H   H82       1.0  0.15735  0.33053  0.95810  1.0000
  C   C49       1.0  0.28316  0.25631  0.61008  1.0000
  H   H83       1.0  0.23150  0.25070  0.54321  1.0000
  N   N6        1.0  0.30089  0.02537  0.71734  1.0000
  C   C50       1.0  0.18779  0.19240  0.68107  1.0000
  C   C51       1.0  0.30729  0.02595  0.65931  1.0000
  H   H84       1.0  0.18950  0.21800  0.57512  1.0000
  H   H85       1.0  0.31058  0.22038  0.60632  1.0000
  H   H86       1.0  0.11440  0.23266  0.81031  1.0000
  H   H87       1.0  0.28931  0.28232  0.63291  1.0000
  H   H88       1.0  0.20810  0.35329  0.68291  1.0000
  C   C52       1.0  0.14238  0.30917  0.92666  1.0000
  C   C53       1.0  0.20143  0.31639  0.89095  1.0000
  H   H89       1.0  0.16810  0.19291  0.65146  1.0000
  C   C54       1.0  0.21743  0.27526  0.60720  1.0000
  H   H90       1.0  0.21908  0.40722  0.81580  1.0000
  H   H91       1.0  0.24606  0.20881  0.69122  1.0000
  C   C55       1.0  0.24549  0.18978  0.53372  1.0000
  H   H92       1.0  0.21671  0.31637  0.85513  1.0000
  H   H93       1.0  0.34616  0.22359  0.93445  1.0000
  C   C56       1.0  0.10308  0.30629  0.92027  1.0000
  H   H94       1.0  0.34546  0.41341  0.64375  1.0000
  H   H95       1.0  0.33726  0.30601  0.97073  1.0000
  H   H96       1.0  0.29522  0.04211  0.63901  1.0000
  C   C57       1.0  0.26304  0.02332  0.72646  1.0000
  C   C58       1.0  0.10671  0.20711  0.99039  1.0000
  H   H97       1.0  0.08770  0.29658  0.95790  1.0000
  H   H98       1.0  0.25908  0.02683  0.76867  1.0000
  C   C59       1.0  0.12778  0.24940  0.84630  1.0000
  H   H99       1.0  0.08493  0.28492  0.89061  1.0000
  H   H100      1.0  0.08233  0.18484  0.96987  1.0000
  C   C60       1.0  0.33072  0.06090  0.74483  1.0000
  H   H101      1.0  0.30962  0.10198  0.74238  1.0000
  H   H102      1.0  0.27618  0.20989  0.52757  1.0000
  H   H103      1.0  0.35024  0.02773  0.60689  1.0000
  H   H104      1.0  0.34085  0.26855  0.62695  1.0000
  H   H105      1.0  0.06734  0.33967  0.50881  1.0000
  C   C61       1.0  0.34906  0.04421  0.64077  1.0000
  H   H106      1.0  0.34580  0.34796  0.00787  1.0000
  H   H107      1.0  0.28952  0.25394  0.00705  1.0000
  Fe  Fe11      1.0  0.30321  0.53395  0.44065  1.0000
  S   S20       1.0  0.25335  0.54111  0.46087  1.0000
  H   H108      1.0  0.04578  0.95267  0.25841  1.0000
  Fe  Fe12      1.0  0.21255  0.96916  0.47100  1.0000
  S   S21       1.0  0.15223  0.92028  0.45419  1.0000
  S   S22       1.0  0.26169  0.96288  0.44394  1.0000
  H   H109      1.0  0.34131  0.63746  0.49478  1.0000
  H   H110      1.0  0.25247  0.59082  0.29836  1.0000
  H   H111      1.0  0.18946  0.54796  0.33044  1.0000
  Fe  Fe13      1.0  0.03962  0.79647  0.19812  1.0000
  S   S23       1.0  0.09136  0.85168  0.22684  1.0000
  S   S24       1.0  0.04171  0.74262  0.18167  1.0000
  H   H112      1.0  0.14947  0.77527  0.12420  1.0000
  H   H113      1.0  0.14836  0.88210  0.05290  1.0000
  C   C62       1.0  0.04092  0.93336  0.22469  1.0000
  H   H114      1.0  0.07812  0.91743  0.18107  1.0000
  H   H115      1.0  0.17725  0.82888  0.21927  1.0000
  C   C63       1.0  0.10841  0.86850  0.29092  1.0000
  C   C64       1.0  0.14355  0.90241  0.29683  1.0000
  C   C65       1.0  0.15767  0.91805  0.34654  1.0000
  C   C66       1.0  0.13646  0.90029  0.39106  1.0000
  C   C67       1.0  0.10131  0.86627  0.38527  1.0000
  C   C68       1.0  0.08743  0.85026  0.33549  1.0000
  H   H116      1.0  0.15988  0.91705  0.26274  1.0000
  H   H117      1.0  0.18466  0.94431  0.35034  1.0000
  H   H118      1.0  0.08461  0.85236  0.41944  1.0000
  H   H119      1.0  0.06029  0.82422  0.33160  1.0000
  C   C69       1.0  0.13233  0.72076  0.03860  1.0000
  C   C70       1.0  0.14259  0.79491  0.45328  1.0000
  H   H120      1.0  0.18538  0.85055  0.02298  1.0000
  H   H121      1.0  0.09782  0.85248  0.06022  1.0000
  H   H122      1.0  0.15869  0.80069  0.03367  1.0000
  H   H123      1.0  0.32548  0.65038  0.38228  1.0000
  H   H124      1.0  0.22323  0.87405  0.14124  1.0000
  C   C71       1.0  0.15511  0.80449  0.19653  1.0000
  H   H125      1.0  0.29338  0.62607  0.43428  1.0000
  H   H126      1.0  0.12755  0.80399  0.19841  1.0000
  H   H127      1.0  0.21102  0.89418  0.08838  1.0000
  H   H128      1.0  0.13309  0.76433  0.46090  1.0000
  H   H129      1.0  0.10147  0.96468  0.20762  1.0000
  H   H130      1.0  0.14392  0.71038  0.06856  1.0000
  H   H131      1.0  0.25269  0.60710  0.23366  1.0000
  H   H132      1.0  0.12022  0.83570  0.13454  1.0000
  H   H133      1.0  0.24246  0.85027  0.06990  1.0000
  H   H134      1.0  0.19693  0.80703  0.14491  1.0000
  H   H135      1.0  0.34735  0.72366  0.04985  1.0000
  C   C72       1.0  0.13004  0.82883  0.09812  1.0000
  H   H136      1.0  0.20051  0.87955  0.47675  1.0000
  H   H137      1.0  0.22824  0.54329  0.19657  1.0000
  H   H138      1.0  0.08596  0.71500  0.08658  1.0000
  C   C73       1.0  0.07913  0.93464  0.21533  1.0000
  S   S25       1.0  0.32565  0.56121  0.36131  1.0000
  H   H139      1.0  0.17249  0.80995  0.43976  1.0000
  H   H140      1.0  0.16477  0.90229  0.14009  1.0000
  H   H141      1.0  0.28406  0.58952  0.24989  1.0000
  H   H142      1.0  0.08847  0.92507  0.25023  1.0000
  C   C74       1.0  0.25514  0.58504  0.25686  1.0000
  H   H143      1.0  0.15081  0.77813  0.21660  1.0000
  C   C75       1.0  0.16837  0.80440  0.14048  1.0000
  C   C76       1.0  0.22369  0.54495  0.23896  1.0000
  H   H144      1.0  0.02466  0.90724  0.12363  1.0000
  H   H145      1.0  0.17056  0.87744  0.19459  1.0000
  H   H146      1.0  0.18789  0.52212  0.38780  1.0000
  C   C77       1.0  0.12476  0.85206  0.05410  1.0000
  C   C78       1.0  0.09958  0.72342  0.04896  1.0000
  C   C79       1.0  0.19856  0.87428  0.12201  1.0000
  H   H147      1.0  0.03526  0.94746  0.19112  1.0000
  C   C80       1.0  0.18148  0.82770  0.05098  1.0000
  S   S26       1.0  0.04387  0.74144  0.02180  1.0000
  N   N7        1.0  0.16965  0.83446  0.10384  1.0000
  H   H148      1.0  0.24717  0.53932  0.34094  1.0000
  H   H149      1.0  0.20934  0.92170  0.17340  1.0000
  C   C81       1.0  0.18455  0.89453  0.15962  1.0000
  H   H150      1.0  0.12209  0.83822  0.01568  1.0000
  H   H151      1.0  0.02441  0.85967  0.18929  1.0000
  C   C82       1.0  0.21865  0.82584  0.04930  1.0000
  H   H152      1.0  0.10902  0.79810  0.09072  1.0000
  H   H153      1.0  0.12486  0.79562  0.42042  1.0000
  C   C83       1.0  0.13687  0.81478  0.50089  1.0000
  H   H154      1.0  0.03575  0.86812  0.27588  1.0000
  H   H155      1.0  0.21446  0.79832  0.06531  1.0000
  H   H156      1.0  0.19594  0.54434  0.24162  1.0000
  C   C84       1.0  0.18709  0.52081  0.34455  1.0000
  C   C85       1.0  0.32147  0.65120  0.42493  1.0000
  Fe  Fe14      1.0  0.02071  0.74480  0.10114  1.0000
  H   H157      1.0  0.28354  0.53603  0.26964  1.0000
  H   H158      1.0  0.24495  0.88205  0.48265  1.0000
  H   H159      1.0  0.14083  0.84254  0.48648  1.0000
  H   H160      1.0  0.02915  0.90030  0.31428  1.0000
  S   S27       1.0  0.02270  0.80075  0.11568  1.0000
  H   H161      1.0  0.32022  0.67729  0.43515  1.0000
  H   H162      1.0  0.07274  0.63214  0.01837  1.0000
  C   C86       1.0  0.22003  0.87793  0.50564  1.0000
  C   C87       1.0  0.08446  0.73684  0.01051  1.0000
  C   C88       1.0  0.22014  0.51528  0.32547  1.0000
  C   C89       1.0  0.15359  0.84013  0.59079  1.0000
  S   S28       1.0  0.23265  0.98121  0.55512  1.0000
  S   S29       1.0  0.30961  0.94758  0.57104  1.0000
  Fe  Fe15      1.0  0.27483  0.55107  0.54344  1.0000
  S   S30       1.0  0.28711  0.60859  0.57821  1.0000
  H   H163      1.0  0.18008  0.63673  0.96260  1.0000
  Fe  Fe16      1.0  0.25289  0.79227  0.80281  1.0000
  S   S31       1.0  0.20585  0.73279  0.82340  1.0000
  S   S32       1.0  0.23246  0.82728  0.75574  1.0000
  Fe  Fe17      1.0  0.31070  0.78415  0.87183  1.0000
  S   S33       1.0  0.26774  0.72526  0.89671  1.0000
  H   H164      1.0  0.30058  0.64478  0.85754  1.0000
  Fe  Fe18      1.0  0.24969  0.71447  0.81277  1.0000
  S   S34       1.0  0.23360  0.65405  0.78678  1.0000
  Fe  Fe19      1.0  0.22738  0.74796  0.90551  1.0000
  H   H165      1.0  0.20114  0.79253  0.61650  1.0000
  S   S35       1.0  0.29538  0.77262  0.78608  1.0000
  S   S36       1.0  0.27187  0.80835  0.88653  1.0000
  C   C90       1.0  0.34958  0.71707  0.83975  1.0000
  H   H166      1.0  0.32262  0.70333  0.81661  1.0000
  C   C91       1.0  0.31467  0.66404  0.93644  1.0000
  H   H167      1.0  0.13547  0.65646  0.83576  1.0000
  C   C92       1.0  0.10552  0.62351  0.95894  1.0000
  C   C93       1.0  0.27191  0.62025  0.63675  1.0000
  C   C94       1.0  0.28364  0.65892  0.64708  1.0000
  C   C95       1.0  0.27217  0.66975  0.69272  1.0000
  C   C96       1.0  0.24885  0.64194  0.72870  1.0000
  C   C97       1.0  0.23738  0.60330  0.71867  1.0000
  C   C98       1.0  0.24881  0.59246  0.67294  1.0000
  H   H168      1.0  0.30147  0.68065  0.61938  1.0000
  H   H169      1.0  0.28123  0.69957  0.69988  1.0000
  H   H170      1.0  0.21938  0.58155  0.74627  1.0000
  H   H171      1.0  0.23963  0.56263  0.66557  1.0000
  C   C99       1.0  0.25558  0.86171  0.70596  1.0000
  C   C100      1.0  0.28997  0.86864  0.68413  1.0000
  C   C101      1.0  0.30626  0.89521  0.64309  1.0000
  C   C102      1.0  0.28829  0.91490  0.62325  1.0000
  C   C103      1.0  0.25411  0.90828  0.64550  1.0000
  C   C104      1.0  0.23804  0.88202  0.68682  1.0000
  H   H172      1.0  0.30384  0.85329  0.69853  1.0000
  C   C105      1.0  0.34345  0.65630  0.76667  1.0000
  H   H173      1.0  0.24002  0.92329  0.63083  1.0000
  H   H174      1.0  0.21165  0.87712  0.70394  1.0000
  H   H175      1.0  0.16199  0.79072  0.65254  1.0000
  H   H176      1.0  0.10164  0.59781  0.98077  1.0000
  H   H177      1.0  0.09042  0.75740  0.93153  1.0000
  H   H178      1.0  0.14737  0.60787  0.85333  1.0000
  H   H179      1.0  0.33634  0.67009  0.96721  1.0000
  H   H180      1.0  0.06063  0.64678  0.87754  1.0000
  H   H181      1.0  0.27590  0.96378  0.72507  1.0000
  H   H182      1.0  0.22009  0.96229  0.73508  1.0000
  N   N8        1.0  0.10966  0.61877  0.90144  1.0000
  Fe  Fe20      1.0  0.28310  0.97792  0.52657  1.0000
  H   H183      1.0  0.22091  0.84604  0.57120  1.0000
  H   H184      1.0  0.29278  0.98945  0.78457  1.0000
  H   H185      1.0  0.07819  0.65911  0.96128  1.0000
  H   H186      1.0  0.08055  0.65532  0.81277  1.0000
  H   H187      1.0  0.14843  0.88984  0.61118  1.0000
  H   H188      1.0  0.32783  0.75155  0.97770  1.0000
  H   H189      1.0  0.20247  0.63238  0.90539  1.0000
  H   H190      1.0  0.15962  0.74792  0.62932  1.0000
  C   C106      1.0  0.33485  0.98629  0.73695  1.0000
  C   C107      1.0  0.07516  0.57396  0.82366  1.0000
  H   H191      1.0  0.18892  0.66833  0.90762  1.0000
  H   H192      1.0  0.34347  0.73018  0.87366  1.0000
  N   N9        1.0  0.16163  0.81958  0.54779  1.0000
  H   H193      1.0  0.04866  0.58850  0.88456  1.0000
  C   C108      1.0  0.10205  0.74709  0.96151  1.0000
  H   H194      1.0  0.14885  0.75365  0.91388  1.0000
  C   C109      1.0  0.16970  0.77835  0.61934  1.0000
  C   C110      1.0  0.08706  0.66200  0.85483  1.0000
  H   H195      1.0  0.12664  0.82013  0.61109  1.0000
  C   C111      1.0  0.07381  0.58470  0.88103  1.0000
  H   H196      1.0  0.09665  0.69302  0.85851  1.0000
  C   C112      1.0  0.15042  0.73187  0.99001  1.0000
  H   H197      1.0  0.33002  0.96026  0.75857  1.0000
  C   C113      1.0  0.12005  0.65527  0.87215  1.0000
  H   H198      1.0  0.33281  0.90025  0.62629  1.0000
  H   H199      1.0  0.23041  0.97814  0.66802  1.0000
  C   C114      1.0  0.14927  0.87486  0.57534  1.0000
  H   H200      1.0  0.17621  0.85028  0.62115  1.0000
  C   C115      1.0  0.18022  0.63868  0.91945  1.0000
  C   C116      1.0  0.29926  0.99054  0.74224  1.0000
  C   C117      1.0  0.13511  0.74495  0.95139  1.0000
  H   H201      1.0  0.08644  0.59909  0.79737  1.0000
  H   H202      1.0  0.13344  0.58110  0.91232  1.0000
  H   H203      1.0  0.09242  0.55962  0.81947  1.0000
  C   C118      1.0  0.14150  0.60966  0.89529  1.0000
  H   H204      1.0  0.06665  0.55887  0.90507  1.0000
  H   H205      1.0  0.14034  0.68062  0.89551  1.0000
  H   H206      1.0  0.04462  0.60772  0.96289  1.0000
  C   C119      1.0  0.07312  0.63084  0.97512  1.0000
  S   S37       1.0  0.19200  0.72897  0.97954  1.0000
  H   H207      1.0  0.13180  0.64818  0.97513  1.0000
  C   C120      1.0  0.32617  0.65522  0.88323  1.0000
  H   H208      1.0  0.29157  0.99641  0.64307  1.0000
  H   H209      1.0  0.11930  0.76265  0.57309  1.0000
  C   C121      1.0  0.20347  0.83962  0.53500  1.0000
  H   H210      1.0  0.31547  0.63232  0.77878  1.0000
  H   H211      1.0  0.17314  0.89603  0.55180  1.0000
  H   H212      1.0  0.10622  0.79833  0.51168  1.0000
  H   H213      1.0  0.33956  0.98141  0.69578  1.0000
  H   H214      1.0  0.28791  0.63863  0.94940  1.0000
  C   C122      1.0  0.22730  0.98646  0.70792  1.0000
  H   H215      1.0  0.12210  0.86584  0.55406  1.0000
  H   H216      1.0  0.30907  0.68822  0.93420  1.0000
  S   S38       1.0  0.32669  0.54711  0.52223  1.0000
  H   H217      1.0  0.15788  0.76406  0.53854  1.0000
  C   C123      1.0  0.15070  0.78000  0.56749  1.0000
  H   H218      1.0  0.33931  0.67868  0.74741  1.0000
  H   H219      1.0  0.21115  0.82065  0.51285  1.0000
  H   H220      1.0  0.04589  0.55317  0.81013  1.0000
  H   H221      1.0  0.20260  0.99140  0.70742  1.0000
  H   H222      1.0  0.22996  0.90218  0.53330  1.0000
  H   H223      1.0  0.33040  0.63012  0.88883  1.0000
  H   H224      1.0  0.33588  0.70211  0.52362  1.0000
  H   H225      1.0  0.22716  0.82669  0.00800  1.0000
  Fe  Fe21      1.0  0.50022  0.22745  0.23157  1.0000
  S   S39       1.0  0.48789  0.27370  0.20694  1.0000
  S   S40       1.0  0.47938  0.19632  0.30894  1.0000
  Fe  Fe22      1.0  0.48569  0.25264  0.12497  1.0000
  S   S41       1.0  0.43149  0.23144  0.07606  1.0000
  S   S42       1.0  0.49452  0.20386  0.15096  1.0000
  H   H226      1.0  0.49185  0.34129  0.35485  1.0000
  C   C124      1.0  0.55093  0.37344  0.42088  1.0000
  S   S43       1.0  0.67834  0.40801  0.43895  1.0000
  H   H227      1.0  0.46781  0.13677  0.22696  1.0000
  H   H228      1.0  0.55285  0.38255  0.37966  1.0000
  H   H229      1.0  0.65953  0.21757  0.07390  1.0000
  C   C125      1.0  0.61352  0.25929  0.01587  1.0000
  C   C126      1.0  0.40592  0.14197  0.28056  1.0000
  C   C127      1.0  0.43268  0.15863  0.32078  1.0000
  C   C128      1.0  0.42336  0.14293  0.37113  1.0000
  C   C129      1.0  0.38786  0.11029  0.38104  1.0000
  H   H230      1.0  0.41270  0.15390  0.24170  1.0000
  H   H231      1.0  0.44400  0.15548  0.40240  1.0000
  H   H232      1.0  0.38122  0.09801  0.41972  1.0000
  Fe  Fe23      1.0  0.55695  0.24557  0.14139  1.0000
  S   S44       1.0  0.54823  0.29320  0.11034  1.0000
  S   S45       1.0  0.59750  0.22538  0.11368  1.0000
  Fe  Fe24      1.0  0.55122  0.30997  0.19533  1.0000
  S   S46       1.0  0.58260  0.37083  0.22825  1.0000
  S   S47       1.0  0.56358  0.26491  0.22493  1.0000
  H   H233      1.0  0.40134  0.08260  0.20458  1.0000
  H   H234      1.0  0.46689  0.30048  0.31212  1.0000
  C   C130      1.0  0.62277  0.24039  0.05416  1.0000
  C   C131      1.0  0.65216  0.23215  0.04446  1.0000
  C   C132      1.0  0.61214  0.38282  0.28444  1.0000
  C   C133      1.0  0.62124  0.41635  0.31245  1.0000
  C   C134      1.0  0.64298  0.42549  0.35887  1.0000
  C   C135      1.0  0.65613  0.40130  0.37726  1.0000
  C   C136      1.0  0.64781  0.36834  0.34854  1.0000
  C   C137      1.0  0.62608  0.35922  0.30233  1.0000
  H   H235      1.0  0.61052  0.43477  0.29896  1.0000
  H   H236      1.0  0.64841  0.45045  0.38133  1.0000
  H   H237      1.0  0.51026  0.13611  0.32432  1.0000
  H   H238      1.0  0.61988  0.33371  0.28079  1.0000
  C   C138      1.0  0.51160  0.10390  0.25484  1.0000
  H   H239      1.0  0.41425  0.05874  0.27421  1.0000
  H   H240      1.0  0.45333  0.22652  0.43171  1.0000
  C   C139      1.0  0.48103  0.05208  0.15933  1.0000
  H   H241      1.0  0.57552  0.39735  0.44136  1.0000
  H   H242      1.0  0.42369  0.11805  0.15535  1.0000
  H   H243      1.0  0.44821  0.24779  0.37234  1.0000
  H   H244      1.0  0.55642  0.15109  0.29882  1.0000
  H   H245      1.0  0.37685  0.29478  0.03951  1.0000
  H   H246      1.0  0.53016  0.11253  0.21989  1.0000
  H   H247      1.0  0.44802  0.10198  0.30367  1.0000
  H   H248      1.0  0.57115  0.24856  0.39360  1.0000
  H   H249      1.0  0.38860  0.27190  0.11277  1.0000
  C   C140      1.0  0.46439  0.11173  0.20421  1.0000
  C   C141      1.0  0.42524  0.09475  0.17670  1.0000
  C   C142      1.0  0.52628  0.14072  0.28769  1.0000
  H   H250      1.0  0.52598  0.16409  0.26495  1.0000
  N   N10       1.0  0.52277  0.30074  0.40299  1.0000
  C   C143      1.0  0.53256  0.26957  0.41315  1.0000
  C   C144      1.0  0.48638  0.28971  0.43176  1.0000
  C   C145      1.0  0.55461  0.33728  0.42577  1.0000
  C   C146      1.0  0.51911  0.30441  0.34492  1.0000
  C   C147      1.0  0.56995  0.27542  0.38911  1.0000
  C   C148      1.0  0.45162  0.25119  0.41522  1.0000
  H   H251      1.0  0.50943  0.34118  0.29189  1.0000
  C   C149      1.0  0.49532  0.32283  0.32632  1.0000
  H   H252      1.0  0.53408  0.26518  0.45584  1.0000
  H   H253      1.0  0.50998  0.24165  0.39776  1.0000
  H   H254      1.0  0.47767  0.31171  0.42827  1.0000
  H   H255      1.0  0.52492  0.37033  0.43938  1.0000
  H   H256      1.0  0.42526  0.24941  0.43086  1.0000
  H   H257      1.0  0.58200  0.34501  0.40681  1.0000
  H   H258      1.0  0.54768  0.32078  0.32700  1.0000
  H   H259      1.0  0.50581  0.27564  0.32632  1.0000
  H   H260      1.0  0.55873  0.33339  0.46791  1.0000
  H   H261      1.0  0.59537  0.29816  0.40953  1.0000
  H   H262      1.0  0.57160  0.28148  0.34677  1.0000
  H   H263      1.0  0.49068  0.28800  0.47446  1.0000
  C   C150      1.0  0.35988  0.30855  0.05038  1.0000
  H   H264      1.0  0.37832  0.33222  0.07765  1.0000
  H   H265      1.0  0.42097  0.07274  0.14745  1.0000
  C   C151      1.0  0.35908  0.25088  0.12435  1.0000
  C   C152      1.0  0.37069  0.10895  0.29030  1.0000
  H   H266      1.0  0.48668  0.12419  0.17362  1.0000
  H   H267      1.0  0.36126  0.24005  0.16338  1.0000
  N   N11       1.0  0.47023  0.08473  0.23894  1.0000
  C   C153      1.0  0.44480  0.07548  0.28574  1.0000
  C   C154      1.0  0.36157  0.09281  0.34044  1.0000
  H   H268      1.0  0.51807  0.08372  0.27641  1.0000
  H   H269      1.0  0.47156  0.30513  0.02013  1.0000
  C   C155      1.0  0.45053  0.05247  0.32960  1.0000
  H   H270      1.0  0.47938  0.06812  0.34721  1.0000
  C   C156      1.0  0.42025  0.25031  0.02036  1.0000
  H   H271      1.0  0.47721  0.07060  0.13071  1.0000
  C   C157      1.0  0.46003  0.04790  0.21105  1.0000
  H   H272      1.0  0.46632  0.02907  0.23610  1.0000
  H   H273      1.0  0.42885  0.03108  0.20307  1.0000
  H   H274      1.0  0.65768  0.34936  0.36260  1.0000
  H   H275      1.0  0.51184  0.06291  0.16583  1.0000
  H   H276      1.0  0.43008  0.04779  0.36131  1.0000
  H   H277      1.0  0.59094  0.26573  0.02275  1.0000
  H   H278      1.0  0.68349  0.42146  0.19388  1.0000
  H   H279      1.0  0.46929  0.02334  0.14108  1.0000
  H   H280      1.0  0.36622  0.19884  0.00970  1.0000
  H   H281      1.0  0.44437  0.02374  0.31635  1.0000
  C   C158      1.0  0.39690  0.27875  0.93476  1.0000
  H   H282      1.0  0.51439  0.11015  0.83869  1.0000
  C   C159      1.0  0.62396  0.16991  0.78011  1.0000
  H   H283      1.0  0.65337  0.17789  0.76784  1.0000
  C   C160      1.0  0.35595  0.32743  0.99999  1.0000
  H   H284      1.0  0.62366  0.17029  0.96166  1.0000
  H   H285      1.0  0.63016  0.11147  0.74346  1.0000
  C   C161      1.0  0.63313  0.26938  0.96818  1.0000
  H   H286      1.0  0.36015  0.12335  0.74208  1.0000
  C   C162      1.0  0.43263  0.30137  0.95877  1.0000
  H   H287      1.0  0.56393  0.09520  0.85986  1.0000
  C   C163      1.0  0.44426  0.28730  0.00153  1.0000
  H   H288      1.0  0.62769  0.22041  0.74280  1.0000
  H   H289      1.0  0.58783  0.12675  0.93414  1.0000
  H   H290      1.0  0.62664  0.10423  0.86343  1.0000
  H   H291      1.0  0.62546  0.28365  0.93865  1.0000
  H   H292      1.0  0.36961  0.04446  0.66946  1.0000
  H   H293      1.0  0.65680  0.19106  0.87531  1.0000
  C   C164      1.0  0.61787  0.14948  0.92979  1.0000
  H   H294      1.0  0.45122  0.33009  0.94465  1.0000
  H   H295      1.0  0.59846  0.20649  0.79950  1.0000
  N   N12       1.0  0.61293  0.14554  0.82899  1.0000
  H   H296      1.0  0.60537  0.15356  0.74660  1.0000
  C   C165      1.0  0.54428  0.13406  0.83752  1.0000
  H   H297      1.0  0.63723  0.13775  0.93657  1.0000
  H   H298      1.0  0.54974  0.14953  0.87510  1.0000
  C   C166      1.0  0.57079  0.11734  0.82929  1.0000
  H   H299      1.0  0.56162  0.10120  0.79189  1.0000
  C   C167      1.0  0.62566  0.17055  0.87704  1.0000
  C   C168      1.0  0.62562  0.09639  0.78120  1.0000
  C   C169      1.0  0.66243  0.26108  0.95841  1.0000
  H   H300      1.0  0.61235  0.18890  0.87934  1.0000
  H   H301      1.0  0.66511  0.14278  0.83059  1.0000
  C   C170      1.0  0.63373  0.12304  0.82864  1.0000
  C   C171      1.0  0.62444  0.20851  0.78275  1.0000
  H   H302      1.0  0.54591  0.15274  0.80478  1.0000
  S   S48       1.0  0.38219  0.29788  0.88285  1.0000
  C   C172      1.0  0.37334  0.24160  0.95308  1.0000
  H   H303      1.0  0.64570  0.08505  0.78236  1.0000
  H   H304      1.0  0.59644  0.07134  0.78234  1.0000
  C   C173      1.0  0.38490  0.22756  0.99566  1.0000
  H   H305      1.0  0.64936  0.22970  0.80562  1.0000
  C   C174      1.0  0.67216  0.24273  0.99698  1.0000
  H   H306      1.0  0.35954  0.06447  0.74163  1.0000
  H   H307      1.0  0.38445  0.34416  0.98185  1.0000
  H   H308      1.0  0.68378  0.10212  0.65747  1.0000
  H   H309      1.0  0.35914  0.07361  0.62572  1.0000
  C   C175      1.0  0.44078  0.63224  0.35673  1.0000
  C   C176      1.0  0.37708  0.61687  0.29661  1.0000
  C   C177      1.0  0.37227  0.59606  0.34278  1.0000
  C   C178      1.0  0.40753  0.76077  0.03872  1.0000
  H   H310      1.0  0.65217  0.89227  0.11450  1.0000
  C   C179      1.0  0.44551  0.65352  0.31100  1.0000
  H   H311      1.0  0.46549  0.63796  0.37995  1.0000
  C   C180      1.0  0.64030  0.89463  0.15225  1.0000
  H   H312      1.0  0.46514  0.71963  0.39990  1.0000
  H   H313      1.0  0.37994  0.73155  0.45927  1.0000
  C   C181      1.0  0.41345  0.64569  0.28098  1.0000
  H   H314      1.0  0.65862  0.96923  0.36624  1.0000
  S   S49       1.0  0.53306  0.81149  0.12204  1.0000
  H   H315      1.0  0.63784  0.72700  0.50628  1.0000
  C   C182      1.0  0.44417  0.72953  0.39391  1.0000
  C   C183      1.0  0.58423  0.86234  0.34026  1.0000
  Fe  Fe25      1.0  0.53588  0.81733  0.20953  1.0000
  C   C184      1.0  0.63209  0.91201  0.39709  1.0000
  H   H316      1.0  0.57888  0.71130  0.05964  1.0000
  S   S50       1.0  0.65576  0.92492  0.45834  1.0000
  H   H317      1.0  0.45131  0.75457  0.41912  1.0000
  S   S51       1.0  0.41949  0.73847  0.08966  1.0000
  H   H318      1.0  0.40102  0.58758  0.40800  1.0000
  H   H319      1.0  0.44748  0.73932  0.35272  1.0000
  C   C185      1.0  0.60398  0.72793  0.03630  1.0000
  Fe  Fe26      1.0  0.47600  0.75885  0.13328  1.0000
  N   N13       1.0  0.39110  0.68429  0.45762  1.0000
  H   H320      1.0  0.67219  0.77601  0.49738  1.0000
  H   H321      1.0  0.67327  0.92794  0.25978  1.0000
  H   H322      1.0  0.65056  0.92500  0.16224  1.0000
  C   C186      1.0  0.60489  0.87348  0.38755  1.0000
  S   S52       1.0  0.49171  0.69005  0.29358  1.0000
  C   C187      1.0  0.36885  0.74668  0.02677  1.0000
  C   C188      1.0  0.39018  0.71666  0.48608  1.0000
  H   H323      1.0  0.67134  0.83938  0.33283  1.0000
  C   C189      1.0  0.66340  0.85416  0.30279  1.0000
  H   H324      1.0  0.38426  0.70605  0.38290  1.0000
  C   C190      1.0  0.62548  0.76760  0.04335  1.0000
  C   C191      1.0  0.63815  0.93943  0.35907  1.0000
  S   S53       1.0  0.56296  0.87749  0.24388  1.0000
  C   C192      1.0  0.58954  0.88991  0.30288  1.0000
  C   C193      1.0  0.40303  0.69661  0.40196  1.0000
  H   H325      1.0  0.44864  0.70123  0.48316  1.0000
  S   S54       1.0  0.56330  0.78142  0.22104  1.0000
  H   H326      1.0  0.56348  0.83258  0.33332  1.0000
  Fe  Fe27      1.0  0.55818  0.77295  0.13410  1.0000
  H   H327      1.0  0.62041  0.95004  0.28419  1.0000
  S   S55       1.0  0.47638  0.76813  0.22026  1.0000
  H   H328      1.0  0.35255  0.61103  0.27298  1.0000
  H   H329      1.0  0.62803  0.86921  0.22768  1.0000
  H   H330      1.0  0.63890  0.84366  0.18118  1.0000
  C   C194      1.0  0.61635  0.92850  0.31272  1.0000
  H   H331      1.0  0.65491  0.69463  0.11769  1.0000
  H   H332      1.0  0.39969  0.67210  0.37827  1.0000
  S   S56       1.0  0.50068  0.71921  0.13952  1.0000
  S   S57       1.0  0.61448  0.79194  0.09184  1.0000
  H   H333      1.0  0.59977  0.85212  0.41691  1.0000
  H   H334      1.0  0.41675  0.66180  0.24565  1.0000
  H   H335      1.0  0.67503  0.81938  0.01813  1.0000
  H   H336      1.0  0.63332  0.83415  0.29186  1.0000
  C   C195      1.0  0.41989  0.67533  0.48187  1.0000
  C   C196      1.0  0.64815  0.87301  0.19607  1.0000
  H   H337      1.0  0.60905  0.88101  0.14619  1.0000
  Fe  Fe28      1.0  0.50364  0.73133  0.22582  1.0000
  C   C197      1.0  0.40430  0.60375  0.37276  1.0000
  H   H338      1.0  0.42277  0.65399  0.45761  1.0000
  H   H339      1.0  0.66543  0.87995  0.32123  1.0000
  H   H340      1.0  0.41943  0.73871  0.49834  1.0000
  H   H341      1.0  0.46492  0.80180  0.01738  1.0000
  H   H342      1.0  0.68321  0.66796  0.05860  1.0000
  H   H343      1.0  0.68259  0.83642  0.23591  1.0000
  H   H344      1.0  0.35550  0.62439  0.43791  1.0000
  C   C198      1.0  0.35281  0.64818  0.45558  1.0000
  C   C199      1.0  0.65821  0.78870  0.01297  1.0000
  C   C200      1.0  0.43504  0.79073  0.00874  1.0000
  H   H345      1.0  0.44532  0.82894  0.94375  1.0000
  C   C201      1.0  0.41236  0.65998  0.53809  1.0000
  C   C202      1.0  0.66934  0.77049  0.97582  1.0000
  H   H346      1.0  0.36799  0.76934  0.79531  1.0000
  H   H347      1.0  0.40563  0.76935  0.83109  1.0000
  H   H348      1.0  0.36071  0.01073  0.75391  1.0000
  C   C203      1.0  0.66726  0.74934  0.51701  1.0000
  H   H349      1.0  0.64872  0.76305  0.58651  1.0000
  C   C204      1.0  0.38510  0.79179  0.95503  1.0000
  C   C205      1.0  0.64827  0.73076  0.96943  1.0000
  C   C206      1.0  0.42384  0.80603  0.96698  1.0000
  S   S58       1.0  0.37204  0.81065  0.90087  1.0000
  H   H350      1.0  0.64540  0.76802  0.67264  1.0000
  H   H351      1.0  0.42892  0.69786  0.95067  1.0000
  H   H352      1.0  0.59913  0.67882  0.99532  1.0000
  S   S59       1.0  0.66374  0.70618  0.92753  1.0000
  C   C207      1.0  0.39339  0.70716  0.89541  1.0000
  H   H353      1.0  0.41891  0.73026  0.87578  1.0000
  H   H354      1.0  0.41620  0.68255  0.56615  1.0000
  H   H355      1.0  0.37680  0.64862  0.82552  1.0000
  C   C208      1.0  0.37984  0.75084  0.80756  1.0000
  H   H356      1.0  0.38352  0.65630  0.94181  1.0000
  H   H357      1.0  0.40005  0.69449  0.79674  1.0000
  C   C209      1.0  0.67514  0.79115  0.67930  1.0000
  H   H358      1.0  0.43381  0.65148  0.54881  1.0000
  H   H359      1.0  0.67938  0.81859  0.66324  1.0000
  N   N14       1.0  0.36037  0.68797  0.85776  1.0000
  C   C210      1.0  0.40663  0.68094  0.92104  1.0000
  H   H360      1.0  0.38705  0.72197  0.92702  1.0000
  C   C211      1.0  0.35768  0.76229  0.98558  1.0000
  H   H361      1.0  0.38775  0.74152  0.77150  1.0000
  H   H362      1.0  0.38415  0.63404  0.54292  1.0000
  C   C212      1.0  0.66981  0.75398  0.57667  1.0000
  H   H363      1.0  0.65879  0.72488  0.59390  1.0000
  H   H364      1.0  0.36024  0.68041  0.55611  1.0000
  C   C213      1.0  0.36418  0.70584  0.53442  1.0000
  C   C214      1.0  0.61554  0.70960  0.99980  1.0000
  C   C215      1.0  0.37211  0.67240  0.81253  1.0000
  H   H365      1.0  0.41974  0.67054  0.89226  1.0000
  H   H366      1.0  0.37669  0.73010  0.56246  1.0000
  H   H367      1.0  0.67900  0.79510  0.72221  1.0000
  H   H368      1.0  0.35465  0.64477  0.73653  1.0000
  C   C216      1.0  0.81590  0.49052  0.31087  1.0000
  H   H369      1.0  0.91663  0.33626  0.04715  1.0000
  S   S60       1.0  0.81928  0.04634  0.34150  1.0000
  Fe  Fe29      1.0  0.72335  0.46396  0.47582  1.0000
  H   H370      1.0  0.93973  0.24309  0.03821  1.0000
  S   S61       1.0  0.78381  0.48641  0.45052  1.0000
  Fe  Fe30      1.0  0.99800  0.23471  0.21841  1.0000
  S   S62       1.0  0.01525  0.29720  0.21706  1.0000
  S   S63       1.0  0.96650  0.20722  0.29361  1.0000
  H   H371      1.0  0.73132  0.45543  0.17634  1.0000
  S   S64       1.0  0.96644  0.31405  0.09740  1.0000
  S   S65       1.0  0.98002  0.22509  0.13410  1.0000
  H   H372      1.0  0.82436  0.16147  0.28251  1.0000
  C   C217      1.0  0.84078  0.16648  0.24601  1.0000
  C   C218      1.0  0.81446  0.23883  0.13071  1.0000
  C   C219      1.0  0.93164  0.29176  0.04758  1.0000
  C   C220      1.0  0.82859  0.18757  0.20637  1.0000
  H   H373      1.0  0.77674  0.45168  0.25573  1.0000
  C   C221      1.0  0.86022  0.09118  0.32855  1.0000
  C   C222      1.0  0.87824  0.11864  0.36765  1.0000
  C   C223      1.0  0.91073  0.15392  0.35605  1.0000
  C   C224      1.0  0.92557  0.16220  0.30532  1.0000
  C   C225      1.0  0.90751  0.13487  0.26603  1.0000
  C   C226      1.0  0.87495  0.09952  0.27768  1.0000
  H   H374      1.0  0.86716  0.11260  0.40688  1.0000
  H   H375      1.0  0.92443  0.17488  0.38668  1.0000
  H   H376      1.0  0.91870  0.14084  0.22688  1.0000
  H   H377      1.0  0.86120  0.07840  0.24722  1.0000
  H   H378      1.0  0.87108  0.18181  0.25751  1.0000
  H   H379      1.0  0.75821  0.44455  0.31997  1.0000
  H   H380      1.0  0.92464  0.28811  0.25259  1.0000
  S   S66       1.0  0.74498  0.03694  0.44871  1.0000
  H   H381      1.0  0.86079  0.23783  0.09203  1.0000
  H   H382      1.0  0.81916  0.50983  0.34353  1.0000
  H   H383      1.0  0.90815  0.22426  0.12705  1.0000
  H   H384      1.0  0.90049  0.19688  0.18377  1.0000
  H   H385      1.0  0.86310  0.26527  0.20880  1.0000
  H   H386      1.0  0.80467  0.16453  0.18354  1.0000
  C   C227      1.0  0.83941  0.22025  0.12194  1.0000
  H   H387      1.0  0.81595  0.20216  0.22877  1.0000
  H   H388      1.0  0.90086  0.27554  0.16508  1.0000
  H   H389      1.0  0.99650  0.30250  0.41523  1.0000
  H   H390      1.0  0.84052  0.14160  0.13709  1.0000
  Fe  Fe31      1.0  0.79302  0.02795  0.42234  1.0000
  C   C228      1.0  0.88186  0.25437  0.19457  1.0000
  H   H391      1.0  0.92743  0.24737  0.23308  1.0000
  H   H392      1.0  0.00299  0.22375  0.41203  1.0000
  H   H393      1.0  0.83295  0.13746  0.23152  1.0000
  H   H394      1.0  0.69366  0.50337  0.32172  1.0000
  H   H395      1.0  0.88971  0.24258  0.27626  1.0000
  H   H396      1.0  0.83211  0.26999  0.13855  1.0000
  H   H397      1.0  0.97517  0.25534  0.38591  1.0000
  H   H398      1.0  0.69903  0.43912  0.28820  1.0000
  C   C229      1.0  0.74934  0.50622  0.32633  1.0000
  H   H399      1.0  0.79350  0.22466  0.16225  1.0000
  H   H400      1.0  0.86006  0.16993  0.07850  1.0000
  H   H401      1.0  0.72100  0.41468  0.21786  1.0000
  H   H402      1.0  0.82513  0.47047  0.32598  1.0000
  H   H403      1.0  0.82052  0.19218  0.10288  1.0000
  N   N15       1.0  0.85875  0.21541  0.16974  1.0000
  H   H404      1.0  0.88710  0.15382  0.11500  1.0000
  C   C230      1.0  0.88524  0.20169  0.15124  1.0000
  H   H405      1.0  0.78834  0.50760  0.20686  1.0000
  C   C231      1.0  0.86663  0.16453  0.11872  1.0000
  C   C232      1.0  0.90706  0.25743  0.24167  1.0000
  C   C233      1.0  0.71519  0.46027  0.25726  1.0000
  C   C234      1.0  0.77473  0.46707  0.29035  1.0000
  H   H406      1.0  0.79822  0.23612  0.09428  1.0000
  H   H407      1.0  0.98477  0.29596  0.34750  1.0000
  C   C235      1.0  0.99588  0.28608  0.38027  1.0000
  C   C236      1.0  0.71339  0.43703  0.20849  1.0000
  Fe  Fe32      1.0  0.00076  0.28817  0.13147  1.0000
  S   S67       1.0  0.82270  0.04244  0.50005  1.0000
  H   H408      1.0  0.69837  0.47447  0.24713  1.0000
  C   C237      1.0  0.92347  0.25654  0.02611  1.0000
  H   H409      1.0  0.73632  0.48397  0.35731  1.0000
  C   C238      1.0  0.91049  0.30901  0.03080  1.0000
  N   N16       1.0  0.75442  0.48898  0.27703  1.0000
  H   H410      1.0  0.83574  0.50685  0.27895  1.0000
  Fe  Fe33      1.0  0.79683  0.48750  0.53625  1.0000
  S   S68       1.0  0.73644  0.46173  0.56087  1.0000
  S   S69       1.0  0.83760  0.46900  0.56867  1.0000
  H   H411      1.0  0.87188  0.05559  0.60114  1.0000
  S   S70       1.0  0.79501  0.10087  0.58093  1.0000
  Fe  Fe34      1.0  0.77299  0.04808  0.52837  1.0000
  Fe  Fe35      1.0  0.79804  0.30198  0.79147  1.0000
  S   S71       1.0  0.73548  0.26463  0.77945  1.0000
  S   S72       1.0  0.83589  0.35425  0.74213  1.0000
  Fe  Fe36      1.0  0.80068  0.25064  0.87892  1.0000
  S   S73       1.0  0.73731  0.20998  0.87275  1.0000
  S   S74       1.0  0.83417  0.23004  0.92839  1.0000
  Fe  Fe37      1.0  0.74627  0.21505  0.78607  1.0000
  S   S75       1.0  0.71398  0.16399  0.73174  1.0000
  Fe  Fe38      1.0  0.73220  0.26307  0.86721  1.0000
  C   C239      1.0  0.79333  0.25347  0.56042  1.0000
  S   S76       1.0  0.80943  0.25241  0.79216  1.0000
  S   S77       1.0  0.79497  0.30378  0.87918  1.0000
  C   C240      1.0  0.87253  0.25549  0.97259  1.0000
  C   C241      1.0  0.71440  0.11457  0.65798  1.0000
  C   C242      1.0  0.83708  0.09587  0.71959  1.0000
  H   H412      1.0  0.74888  0.41831  0.70354  1.0000
  H   H413      1.0  0.81611  0.05017  0.63628  1.0000
  C   C243      1.0  0.77124  0.11650  0.62372  1.0000
  H   H414      1.0  0.88735  0.21087  0.97344  1.0000
  S   S78       1.0  0.68499  0.27319  0.89684  1.0000
  C   C244      1.0  0.73654  0.14523  0.69192  1.0000
  C   C245      1.0  0.77605  0.16094  0.69231  1.0000
  C   C246      1.0  0.79329  0.14700  0.65790  1.0000
  H   H415      1.0  0.85829  0.36634  0.54307  1.0000
  H   H416      1.0  0.68851  0.41434  0.69035  1.0000
  H   H417      1.0  0.79335  0.18396  0.71896  1.0000
  H   H418      1.0  0.82395  0.15983  0.65794  1.0000
  C   C247      1.0  0.83232  0.38465  0.69476  1.0000
  C   C248      1.0  0.79789  0.38118  0.67613  1.0000
  C   C249      1.0  0.79835  0.40661  0.63712  1.0000
  C   C250      1.0  0.83319  0.43540  0.61702  1.0000
  C   C251      1.0  0.86701  0.43822  0.63572  1.0000
  C   C252      1.0  0.86659  0.41333  0.67418  1.0000
  H   H419      1.0  0.77116  0.35910  0.69169  1.0000
  H   H420      1.0  0.77199  0.40380  0.62223  1.0000
  H   H421      1.0  0.89401  0.46009  0.62042  1.0000
  H   H422      1.0  0.89329  0.41628  0.68793  1.0000
  H   H423      1.0  0.69876  0.45336  0.73289  1.0000
  C   C253      1.0  0.83685  0.31756  0.59568  1.0000
  H   H424      1.0  0.75514  0.19998  0.60625  1.0000
  C   C254      1.0  0.73162  0.10004  0.62425  1.0000
  C   C255      1.0  0.73275  0.24882  0.63716  1.0000
  H   H425      1.0  0.85260  0.50167  0.68190  1.0000
  H   H426      1.0  0.82151  0.28320  0.68816  1.0000
  H   H427      1.0  0.81925  0.43474  0.82943  1.0000
  C   C256      1.0  0.79490  0.43732  0.81384  1.0000
  H   H428      1.0  0.84735  0.33565  0.63145  1.0000
  H   H429      1.0  0.79096  0.23593  0.66845  1.0000
  H   H430      1.0  0.77895  0.30450  0.65726  1.0000
  H   H431      1.0  0.87608  0.28542  0.64531  1.0000
  H   H432      1.0  0.81986  0.25928  0.53993  1.0000
  H   H433      1.0  0.78659  0.47490  0.65711  1.0000
  C   C257      1.0  0.84912  0.25763  0.64642  1.0000
  H   H434      1.0  0.86629  0.11403  0.70430  1.0000
  H   H435      1.0  0.86130  0.31471  0.58179  1.0000
  C   C258      1.0  0.77128  0.49675  0.77911  1.0000
  H   H436      1.0  0.87381  0.02236  0.64533  1.0000
  C   C259      1.0  0.89381  0.23837  0.98926  1.0000
  C   C260      1.0  0.77055  0.28474  0.62325  1.0000
  H   H437      1.0  0.73071  0.42025  0.76552  1.0000
  H   H438      1.0  0.75467  0.47875  0.81265  1.0000
  H   H439      1.0  0.81625  0.09170  0.68882  1.0000
  H   H440      1.0  0.71432  0.07657  0.59812  1.0000
  C   C261      1.0  0.83273  0.05869  0.74405  1.0000
  C   C262      1.0  0.81454  0.26342  0.65439  1.0000
  H   H441      1.0  0.86493  0.30449  0.98094  1.0000
  H   H442      1.0  0.73571  0.23234  0.66964  1.0000
  C   C263      1.0  0.82397  0.03002  0.65426  1.0000
  H   H443      1.0  0.77691  0.26061  0.53188  1.0000
  H   H444      1.0  0.86219  0.06538  0.75446  1.0000
  H   H445      1.0  0.76304  0.29852  0.59125  1.0000
  C   C264      1.0  0.86637  0.04543  0.64215  1.0000
  C   C265      1.0  0.77084  0.20953  0.56928  1.0000
  H   H446      1.0  0.78584  0.44991  0.84514  1.0000
  H   H447      1.0  0.85152  0.24163  0.68026  1.0000
  H   H448      1.0  0.75733  0.03382  0.65426  1.0000
  H   H449      1.0  0.84639  0.24081  0.61096  1.0000
  H   H450      1.0  0.71950  0.23020  0.60269  1.0000
  C   C266      1.0  0.79552  0.49509  0.69076  1.0000
  H   H451      1.0  0.74932  0.19588  0.53767  1.0000
  N   N17       1.0  0.80316  0.27873  0.60804  1.0000
  N   N18       1.0  0.78024  0.47359  0.74152  1.0000
  C   C267      1.0  0.83036  0.34146  0.55383  1.0000
  H   H452      1.0  0.83360  0.11320  0.75047  1.0000
  C   C268      1.0  0.80784  0.46237  0.76434  1.0000
  C   C269      1.0  0.88119  0.29109  0.99326  1.0000
  H   H453      1.0  0.77208  0.40764  0.80516  1.0000
  H   H454      1.0  0.83559  0.48785  0.77416  1.0000
  H   H455      1.0  0.71237  0.25791  0.65050  1.0000
  H   H456      1.0  0.69472  0.23628  0.99003  1.0000
  H   H457      1.0  0.81463  0.44644  0.73486  1.0000
  H   H458      1.0  0.88540  0.06982  0.66754  1.0000
  H   H459      1.0  0.81766  0.05410  0.78181  1.0000
  N   N19       1.0  0.81347  0.02281  0.71113  1.0000
  H   H460      1.0  0.78982  0.19701  0.56590  1.0000
  H   H461      1.0  0.81717  0.32491  0.51778  1.0000
  H   H462      1.0  0.81314  0.35378  0.56909  1.0000
  H   H463      1.0  0.72150  0.46195  0.67034  1.0000
  H   H464      1.0  0.75841  0.05095  0.72025  1.0000
  C   C270      1.0  0.74350  0.43720  0.72959  1.0000
  H   H465      1.0  0.75263  0.50646  0.76015  1.0000
  C   C271      1.0  0.71164  0.44253  0.70432  1.0000
  C   C272      1.0  0.75126  0.02557  0.69572  1.0000
  Fe  Fe39      1.0  0.79042  0.54478  0.46288  1.0000
  H   H466      1.0  0.68830  0.71165  0.03632  1.0000
  S   S79       1.0  0.81368  0.59475  0.40569  1.0000
  Fe  Fe40      1.0  0.71593  0.97438  0.47118  1.0000
  N   N20       1.0  0.00742  0.89418  0.23463  1.0000
  S   S80       1.0  0.76204  0.96476  0.43995  1.0000
  Fe  Fe41      1.0  0.97939  0.71189  0.20418  1.0000
  S   S81       1.0  0.97893  0.76593  0.22562  1.0000
  S   S82       1.0  0.95774  0.65903  0.25595  1.0000
  Fe  Fe42      1.0  0.96215  0.76586  0.14124  1.0000
  S   S83       1.0  0.91802  0.78342  0.11982  1.0000
  S   S84       1.0  0.95852  0.70972  0.12173  1.0000
  H   H467      1.0  0.94358  0.91191  0.30028  1.0000
  H   H468      1.0  0.96764  0.91049  0.20357  1.0000
  C   C273      1.0  0.87370  0.79061  0.04335  1.0000
  C   C274      1.0  0.89925  0.77748  0.05552  1.0000
  H   H469      1.0  0.81438  0.73019  0.11889  1.0000
  H   H470      1.0  0.86638  0.80480  0.07309  1.0000
  C   C275      1.0  0.85452  0.61259  0.36562  1.0000
  C   C276      1.0  0.86308  0.64379  0.33260  1.0000
  C   C277      1.0  0.89464  0.65845  0.29906  1.0000
  C   C278      1.0  0.91795  0.64191  0.29802  1.0000
  C   C279      1.0  0.90931  0.61058  0.33091  1.0000
  C   C280      1.0  0.87785  0.59606  0.36473  1.0000
  H   H471      1.0  0.84515  0.65672  0.33295  1.0000
  H   H472      1.0  0.90089  0.68248  0.27392  1.0000
  H   H473      1.0  0.92721  0.59763  0.33040  1.0000
  H   H474      1.0  0.87170  0.57214  0.39002  1.0000
  C   C281      1.0  0.75661  0.91374  0.18314  1.0000
  C   C282      1.0  0.71382  0.89626  0.17126  1.0000
  C   C283      1.0  0.73085  0.94652  0.28203  1.0000
  H   H475      1.0  0.79422  0.76880  0.06383  1.0000
  H   H476      1.0  0.77130  0.91397  0.14661  1.0000
  H   H477      1.0  0.73598  0.66241  0.09265  1.0000
  H   H478      1.0  0.74804  0.97809  0.27688  1.0000
  S   S85       1.0  0.72864  0.52220  0.48368  1.0000
  H   H479      1.0  0.97480  0.83927  0.19611  1.0000
  H   H480      1.0  0.92885  0.74973  0.02521  1.0000
  N   N21       1.0  0.74141  0.71500  0.05975  1.0000
  H   H481      1.0  0.71893  0.87445  0.27144  1.0000
  H   H482      1.0  0.96290  0.82110  0.27960  1.0000
  H   H483      1.0  0.79980  0.68056  0.10611  1.0000
  C   C284      1.0  0.80654  0.55859  0.25283  1.0000
  H   H484      1.0  0.71214  0.91532  0.14116  1.0000
  H   H485      1.0  0.99409  0.85845  0.10656  1.0000
  H   H486      1.0  0.80805  0.71188  0.05355  1.0000
  H   H487      1.0  0.82860  0.55796  0.27758  1.0000
  C   C285      1.0  0.99833  0.88093  0.13520  1.0000
  H   H488      1.0  0.73669  0.81023  0.50054  1.0000
  H   H489      1.0  0.75111  0.93569  0.28092  1.0000
  C   C286      1.0  0.75402  0.69407  0.09646  1.0000
  H   H490      1.0  0.76942  0.94403  0.19575  1.0000
  H   H491      1.0  0.98966  0.83089  0.33890  1.0000
  H   H492      1.0  0.76277  0.89687  0.21182  1.0000
  C   C287      1.0  0.79645  0.70518  0.09347  1.0000
  H   H493      1.0  0.72215  0.77645  0.05617  1.0000
  H   H494      1.0  0.99083  0.92496  0.31817  1.0000
  C   C288      1.0  0.76357  0.75704  0.07276  1.0000
  C   C289      1.0  0.90907  0.75980  0.01652  1.0000
  H   H495      1.0  0.97331  0.88500  0.13086  1.0000
  H   H496      1.0  0.79486  0.57447  0.27389  1.0000
  H   H497      1.0  0.94602  0.86940  0.24226  1.0000
  C   C290      1.0  0.97233  0.89792  0.23962  1.0000
  H   H498      1.0  0.68642  0.73948  0.50155  1.0000
  H   H499      1.0  0.70397  0.86809  0.15165  1.0000
  H   H500      1.0  0.77087  0.81305  0.05364  1.0000
  C   C291      1.0  0.97281  0.92362  0.28469  1.0000
  H   H501      1.0  0.69952  0.73613  0.13056  1.0000
  H   H502      1.0  0.71878  0.94255  0.32183  1.0000
  C   C292      1.0  0.69921  0.69933  0.06601  1.0000
  C   C293      1.0  0.69864  0.92987  0.24040  1.0000
  N   N22       1.0  0.68849  0.89155  0.21674  1.0000
  H   H503      1.0  0.72971  0.54425  0.35540  1.0000
  H   H504      1.0  0.82129  0.57597  0.21801  1.0000
  H   H505      1.0  0.76292  0.76192  0.11532  1.0000
  C   C294      1.0  0.68998  0.86401  0.25550  1.0000
  H   H506      1.0  0.70630  0.95187  0.20937  1.0000
  C   C295      1.0  0.01499  0.87801  0.28359  1.0000
  H   H507      1.0  0.77706  0.52807  0.34277  1.0000
  C   C296      1.0  0.75085  0.78257  0.04397  1.0000
  C   C297      1.0  0.77507  0.51842  0.23504  1.0000
  H   H508      1.0  0.96139  0.85308  0.32760  1.0000
  C   C298      1.0  0.00135  0.86709  0.19031  1.0000
  H   H509      1.0  0.74962  0.69953  0.13759  1.0000
  C   C299      1.0  0.72434  0.52519  0.32128  1.0000
  H   H510      1.0  0.73036  0.54273  0.28557  1.0000
  C   C300      1.0  0.68609  0.70551  0.11965  1.0000
  H   H511      1.0  0.75472  0.52346  0.21144  1.0000
  C   C301      1.0  0.97994  0.84383  0.30834  1.0000
  H   H512      1.0  0.98302  0.95333  0.27077  1.0000
  H   H513      1.0  0.69081  0.68916  0.15085  1.0000
  H   H514      1.0  0.73629  0.85393  0.50822  1.0000
  H   H515      1.0  0.69456  0.78716  0.95276  1.0000
  S   S86       1.0  0.73958  0.98634  0.55356  1.0000
  S   S87       1.0  0.81330  0.94738  0.55972  1.0000
  C   C302      1.0  0.90734  0.72312  0.80259  1.0000
  C   C303      1.0  0.81218  0.97812  0.78542  1.0000
  S   S88       1.0  0.80967  0.54846  0.54630  1.0000
  Fe  Fe43      1.0  0.76035  0.80615  0.80309  1.0000
  S   S89       1.0  0.70622  0.75078  0.78904  1.0000
  S   S90       1.0  0.75807  0.85898  0.77549  1.0000
  Fe  Fe44      1.0  0.79788  0.76498  0.85877  1.0000
  S   S91       1.0  0.74587  0.70728  0.84710  1.0000
  S   S92       1.0  0.84960  0.76217  0.88920  1.0000
  Fe  Fe45      1.0  0.74393  0.72702  0.76595  1.0000
  S   S93       1.0  0.73823  0.69875  0.68696  1.0000
  Fe  Fe46      1.0  0.71333  0.73673  0.87165  1.0000
  H   H516      1.0  0.82958  0.61521  0.64694  1.0000
  S   S94       1.0  0.79781  0.78339  0.77554  1.0000
  S   S95       1.0  0.76552  0.79341  0.88800  1.0000
  H   H517      1.0  0.75713  0.97529  0.69555  1.0000
  H   H518      1.0  0.84612  0.68699  0.85958  1.0000
  Fe  Fe47      1.0  0.78721  0.98005  0.52049  1.0000
  H   H519      1.0  0.84139  0.72849  0.78364  1.0000
  H   H520      1.0  0.82758  0.96297  0.79803  1.0000
  C   C304      1.0  0.73421  0.58410  0.65492  1.0000
  C   C305      1.0  0.72848  0.59329  0.70569  1.0000
  C   C306      1.0  0.72952  0.62821  0.71621  1.0000
  C   C307      1.0  0.73582  0.65409  0.67580  1.0000
  C   C308      1.0  0.74118  0.64473  0.62496  1.0000
  C   C309      1.0  0.74070  0.61007  0.61459  1.0000
  H   H521      1.0  0.80436  0.70063  0.74017  1.0000
  C   C310      1.0  0.83556  0.66306  0.69339  1.0000
  H   H522      1.0  0.74603  0.66451  0.59341  1.0000
  H   H523      1.0  0.74509  0.60334  0.57533  1.0000
  C   C311      1.0  0.77142  0.87993  0.71291  1.0000
  C   C312      1.0  0.80297  0.88261  0.68712  1.0000
  C   C313      1.0  0.81520  0.90305  0.63993  1.0000
  C   C314      1.0  0.79561  0.92032  0.61754  1.0000
  C   C315      1.0  0.76308  0.91623  0.64219  1.0000
  C   C316      1.0  0.75146  0.89669  0.69012  1.0000
  H   H524      1.0  0.81876  0.87012  0.70449  1.0000
  H   H525      1.0  0.84030  0.90592  0.62101  1.0000
  H   H526      1.0  0.74733  0.92874  0.62485  1.0000
  C   C317      1.0  0.85530  0.74462  0.70388  1.0000
  H   H527      1.0  0.84723  0.76701  0.70952  1.0000
  H   H528      1.0  0.86359  0.62766  0.69860  1.0000
  C   C318      1.0  0.80539  0.53308  0.80155  1.0000
  H   H529      1.0  0.80368  0.64228  0.86702  1.0000
  H   H530      1.0  0.72499  0.63490  0.75539  1.0000
  H   H531      1.0  0.84564  0.73311  0.66402  1.0000
  C   C319      1.0  0.83569  0.62484  0.68825  1.0000
  H   H532      1.0  0.72698  0.89468  0.70980  1.0000
  C   C320      1.0  0.74347  0.83373  0.52823  1.0000
  S   S96       1.0  0.73384  0.54036  0.64414  1.0000
  H   H533      1.0  0.90159  0.74189  0.93608  1.0000
  H   H534      1.0  0.88674  0.75903  0.70696  1.0000
  H   H535      1.0  0.80095  0.68081  0.83747  1.0000
  H   H536      1.0  0.83868  0.79656  0.98371  1.0000
  N   N23       1.0  0.70839  0.78135  0.59942  1.0000
  H   H537      1.0  0.74017  0.76630  0.54509  1.0000
  H   H538      1.0  0.90726  0.70554  0.83611  1.0000
  C   C321      1.0  0.73571  0.76712  0.58741  1.0000
  H   H539      1.0  0.85480  0.68223  0.66250  1.0000
  H   H540      1.0  0.80662  0.65702  0.68165  1.0000
  H   H541      1.0  0.84570  0.53661  0.64864  1.0000
  H   H542      1.0  0.79385  0.63364  0.77263  1.0000
  C   C322      1.0  0.88839  0.69789  0.75412  1.0000
  H   H543      1.0  0.78150  0.95612  0.78481  1.0000
  C   C323      1.0  0.89348  0.75530  0.96599  1.0000
  H   H544      1.0  0.89476  0.74071  0.81478  1.0000
  H   H545      1.0  0.89472  0.67401  0.75692  1.0000
  H   H546      1.0  0.90488  0.71413  0.71937  1.0000
  H   H547      1.0  0.72309  0.57323  0.73704  1.0000
  H   H548      1.0  0.74228  0.84219  0.60990  1.0000
  N   N24       1.0  0.84626  0.68233  0.74623  1.0000
  H   H549      1.0  0.74171  0.66757  0.94507  1.0000
  C   C324      1.0  0.81884  0.66712  0.84046  1.0000
  C   C325      1.0  0.82348  0.65262  0.78695  1.0000
  C   C326      1.0  0.77561  0.79004  0.61259  1.0000
  H   H550      1.0  0.81275  0.60172  0.71149  1.0000
  H   H551      1.0  0.82516  0.52671  0.82386  1.0000
  C   C327      1.0  0.72214  0.82174  0.58079  1.0000
  H   H552      1.0  0.70486  0.64886  0.99233  1.0000
  H   H553      1.0  0.83570  0.63359  0.79434  1.0000
  H   H554      1.0  0.72358  0.73676  0.60017  1.0000
  C   C328      1.0  0.83566  0.71342  0.74579  1.0000
  H   H555      1.0  0.93742  0.74429  0.79356  1.0000
  C   C329      1.0  0.86765  0.76807  0.95389  1.0000
  H   H556      1.0  0.78832  0.82131  0.60691  1.0000
  H   H557      1.0  0.77482  0.78374  0.65485  1.0000
  H   H558      1.0  0.79491  0.78112  0.59470  1.0000
  Fe  Fe48      1.0  0.74796  0.52258  0.56657  1.0000
  H   H559      1.0  0.73165  0.80035  0.67732  1.0000
  H   H560      1.0  0.77474  0.85053  0.53489  1.0000
  H   H561      1.0  0.82066  0.55444  0.77075  1.0000
  H   H562      1.0  0.85301  0.54037  0.71759  1.0000
  H   H563      1.0  0.81689  0.97081  0.70351  1.0000
  C   C330      1.0  0.85784  0.78583  0.99284  1.0000
  H   H564      1.0  0.71992  0.00671  0.69828  1.0000
  H   H565      1.0  0.76197  0.99704  0.75748  1.0000
  C   C331      1.0  0.73588  0.66799  0.98716  1.0000
  C   C332      1.0  0.77073  0.00342  0.71604  1.0000
  C   C333      1.0  0.83919  0.51986  0.68536  1.0000
  H   H566      1.0  0.81770  0.00038  0.81495  1.0000
  H   H567      1.0  0.79463  0.54664  0.82925  1.0000
  H   H568      1.0  0.73395  0.71981  0.97675  1.0000
  C   C334      1.0  0.70415  0.78028  0.65799  1.0000
  H   H569      1.0  0.69614  0.75127  0.67338  1.0000
  C   C335      1.0  0.82605  0.99527  0.73074  1.0000
  H   H570      1.0  0.80745  0.00313  0.63136  1.0000
  H   H571      1.0  0.77925  0.72742  0.99345  1.0000
  H   H572      1.0  0.69811  0.82778  0.57841  1.0000
  H   H573      1.0  0.75123  0.77973  0.00114  1.0000
  H   H574      1.0  0.85766  0.00921  0.73206  1.0000
  C   C336      1.0  0.74869  0.70954  0.00362  1.0000
  H   H575      1.0  0.78335  0.51401  0.68232  1.0000
  H   H576      1.0  0.75199  0.65630  0.00796  1.0000
