data_image0
_chemical_formula_structural       H3C2H4CH2C3NC2SCH2CH4CH2CH9C2HFeH4CHCFeSCFeCH3SCHCSH2NC2HSC2H2SCH3CH2SH2CHFeC3HCHCHSFeH2SC2HC2SCSHSCH3CHFeH3CH2CHSNCH2SFeS2Fe2SC6H3CHFeSHC2HNH2SHSH2SCH2CH2CHNCS2Fe2CFeSH2CH2C3H7CH2CH2CSHCHCHCH4CHCHCH3CH3C3H2CHCH2CNCH2SH4CFeH3C2HCH3NC2H4CH2SHCHC2HCH10FeH2CNCH2CH2CHC2H2CH2C3H3FeSCH2CH4FeH2S2C2H2CSCH2FeCHCHSHSHCH3C2H2CH2CH3CH3C2SHCH2CH2NH2C3H3C2SH2CHC6H8SH7C2H2C2H3C2FeS2FeS2FeSFeS3FeS2FeSCFe2CS2H2CHCH5C3H2CH3C6H7C2HCHNHCHCH4SH2CNCH5C4H5CNC2H4C4H5C2H3CHCH5SCH4CH2CH2CHCH6CSHSH3CNC2H3C5HC2H3CH2CH3CHFeH8C2HCH2C2HFeH2CHSH3SFeSHCSHCNHC2H2C2H2CH2CH3CNC8H14SHCH2CHNCH2FeCH2C2H2CH2CH2SH3C4H6C2SFeS2FeSFe2S3HFeSHFeS2FeSCHS2CH5C7H2SC6H4C2HC2H3C2H7CH3CH8CHCH3CH3CH2CH2CHCSHNCSC3HCH2FeCHNHCH12CFeCHCSFeHFeSC4SCH2C3HC2H2C2H8SHCSCHCHCHCH4CH3CSH5SH2CH2CNFeC2NH3S2H7SCH2FeHSHS2CHC2H2CSHCFeSH2SC2HFeHC2HC2H4CSC2HCH7SHFeCHCFeH2NH3CH2CFeSCHC3NHSCH4CH2CNH3NCHCHCHC3H2C2H4CH2CH3C2H3SCHC2H2CHCHC2H5CH9
_chemical_formula_sum              "H576 C336 N24 S96 Fe48"
_cell_length_a       36.8092
_cell_length_b       37.6445
_cell_length_c       54.012
_cell_angle_alpha    89.1997
_cell_angle_beta     89.9693
_cell_angle_gamma    114.955

_space_group_name_H-M_alt    "P 1"
_space_group_IT_number       1

loop_
  _space_group_symop_operation_xyz
  'x, y, z'

loop_
  _atom_site_type_symbol
  _atom_site_label
  _atom_site_symmetry_multiplicity
  _atom_site_fract_x
  _atom_site_fract_y
  _atom_site_fract_z
  _atom_site_occupancy
  H   H1        1.0  0.29447  0.37706  0.24726  1.0000
  H   H2        1.0  0.24635  0.33402  0.20193  1.0000
  H   H3        1.0  0.24232  0.34912  0.24463  1.0000
  C   C1        1.0  0.26953  0.36849  0.23400  1.0000
  C   C2        1.0  0.26958  0.26823  0.28519  1.0000
  H   H4        1.0  0.27587  0.33941  0.16205  1.0000
  H   H5        1.0  0.27713  0.31895  0.22079  1.0000
  H   H6        1.0  0.27082  0.28107  0.18703  1.0000
  H   H7        1.0  0.28040  0.40031  0.17898  1.0000
  C   C3        1.0  0.27514  0.34522  0.21228  1.0000
  H   H8        1.0  0.26434  0.39420  0.22794  1.0000
  H   H9        1.0  0.31472  0.42502  0.20227  1.0000
  C   C4        1.0  0.31020  0.40503  0.18658  1.0000
  C   C5        1.0  0.28652  0.30912  0.28599  1.0000
  C   C6        1.0  0.32405  0.33073  0.27488  1.0000
  N   N1        1.0  0.30999  0.36648  0.19482  1.0000
  C   C7        1.0  0.30314  0.34151  0.17210  1.0000
  C   C8        1.0  0.29878  0.29929  0.17676  1.0000
  S   S1        1.0  0.25754  0.33219  0.29769  1.0000
  C   C9        1.0  0.29024  0.24888  0.27387  1.0000
  H   H10       1.0  0.27714  0.21718  0.27378  1.0000
  H   H11       1.0  0.24033  0.25140  0.29336  1.0000
  C   C10       1.0  0.32724  0.27025  0.26228  1.0000
  H   H12       1.0  0.29721  0.28511  0.15864  1.0000
  H   H13       1.0  0.28947  0.01407  0.09708  1.0000
  H   H14       1.0  0.30612  0.03285  0.06646  1.0000
  H   H15       1.0  0.30890  0.06623  0.09018  1.0000
  C   C11       1.0  0.31229  0.03882  0.08647  1.0000
  H   H16       1.0  0.31088  0.00255  0.13720  1.0000
  H   H17       1.0  0.32837  0.35496  0.15867  1.0000
  C   C12       1.0  0.34216  0.42850  0.16696  1.0000
  H   H18       1.0  0.33433  0.41527  0.14839  1.0000
  H   H19       1.0  0.34376  0.45861  0.16538  1.0000
  H   H20       1.0  0.32495  0.29869  0.18662  1.0000
  H   H21       1.0  0.31759  0.44696  0.25588  1.0000
  H   H22       1.0  0.30911  0.45143  0.30068  1.0000
  H   H23       1.0  0.33717  0.36239  0.27537  1.0000
  H   H24       1.0  0.35103  0.41838  0.23188  1.0000
  H   H25       1.0  0.32349  0.06639  0.13178  1.0000
  H   H26       1.0  0.34499  0.34419  0.21700  1.0000
  C   C13       1.0  0.34907  0.37103  0.20632  1.0000
  C   C14       1.0  0.41700  0.33488  0.30227  1.0000
  H   H27       1.0  0.37242  0.43158  0.17208  1.0000
  Fe  Fe1       1.0  0.39761  0.27080  0.21838  1.0000
  H   H28       1.0  0.46251  0.01406  0.05757  1.0000
  H   H29       1.0  0.45101  0.32992  0.27033  1.0000
  H   H30       1.0  0.41788  0.27057  0.04889  1.0000
  H   H31       1.0  0.45950  0.37893  0.27672  1.0000
  C   C15       1.0  0.34074  0.00420  0.13168  1.0000
  H   H32       1.0  0.35534  0.00136  0.14919  1.0000
  C   C16       1.0  0.33418  0.47438  0.26497  1.0000
  Fe  Fe2       1.0  0.39867  0.10362  0.02991  1.0000
  S   S2        1.0  0.42827  0.12058  0.99255  1.0000
  C   C17       1.0  0.34402  0.31126  0.26255  1.0000
  Fe  Fe3       1.0  0.41766  0.31628  0.17021  1.0000
  C   C18       1.0  0.35531  0.04395  0.09201  1.0000
  H   H33       1.0  0.36007  0.02142  0.08134  1.0000
  H   H34       1.0  0.36065  0.05656  0.17040  1.0000
  H   H35       1.0  0.37776  0.19634  0.13377  1.0000
  S   S3        1.0  0.44940  0.19880  0.15790  1.0000
  C   C19       1.0  0.37735  0.17203  0.09767  1.0000
  H   H36       1.0  0.39517  0.43053  0.21304  1.0000
  C   C20       1.0  0.44204  0.41906  0.16087  1.0000
  S   S4        1.0  0.35240  0.24437  0.24909  1.0000
  H   H37       1.0  0.39607  0.30344  0.08273  1.0000
  H   H38       1.0  0.38531  0.39787  0.23856  1.0000
  N   N2        1.0  0.36521  0.04319  0.11909  1.0000
  C   C21       1.0  0.35625  0.07431  0.13161  1.0000
  C   C22       1.0  0.37015  0.08339  0.15868  1.0000
  H   H39       1.0  0.35673  0.10219  0.16671  1.0000
  S   S5        1.0  0.45251  0.25884  0.21715  1.0000
  C   C23       1.0  0.42861  0.18293  0.12863  1.0000
  C   C24       1.0  0.45735  0.98365  0.05686  1.0000
  H   H40       1.0  0.36997  0.10238  0.12108  1.0000
  H   H41       1.0  0.37600  0.07218  0.08316  1.0000
  S   S6        1.0  0.35313  0.04528  0.01699  1.0000
  C   C25       1.0  0.39686  0.15686  0.08145  1.0000
  H   H42       1.0  0.41543  0.99885  0.11875  1.0000
  H   H43       1.0  0.41801  0.05504  0.14147  1.0000
  H   H44       1.0  0.40314  0.10067  0.15972  1.0000
  C   C26       1.0  0.40953  0.05444  0.12168  1.0000
  H   H45       1.0  0.38257  0.27766  0.11164  1.0000
  H   H46       1.0  0.34986  0.17362  0.09202  1.0000
  S   S7        1.0  0.42830  0.03249  0.99189  1.0000
  H   H47       1.0  0.41941  0.02429  0.08924  1.0000
  H   H48       1.0  0.40093  0.35340  0.29773  1.0000
  C   C27       1.0  0.46265  0.46001  0.15965  1.0000
  H   H49       1.0  0.44798  0.14391  0.07636  1.0000
  Fe  Fe4       1.0  0.43811  0.24649  0.17684  1.0000
  C   C28       1.0  0.43230  0.15481  0.08888  1.0000
  C   C29       1.0  0.37053  0.40656  0.22322  1.0000
  C   C30       1.0  0.44792  0.16750  0.11249  1.0000
  H   H50       1.0  0.37100  0.37364  0.19149  1.0000
  C   C31       1.0  0.43797  0.41730  0.11616  1.0000
  H   H51       1.0  0.37290  0.32782  0.25394  1.0000
  C   C32       1.0  0.42609  0.02780  0.10923  1.0000
  H   H52       1.0  0.37887  0.25060  0.08449  1.0000
  S   S8        1.0  0.39948  0.34707  0.14017  1.0000
  Fe  Fe5       1.0  0.39838  0.02350  0.02906  1.0000
  H   H53       1.0  0.39748  0.30496  0.29569  1.0000
  H   H54       1.0  0.43576  0.40423  0.17864  1.0000
  S   S9        1.0  0.38028  0.25273  0.17900  1.0000
  C   C33       1.0  0.45504  0.35063  0.28568  1.0000
  C   C34       1.0  0.42876  0.39777  0.13912  1.0000
  H   H55       1.0  0.42754  0.40098  0.09933  1.0000
  C   C35       1.0  0.39306  0.18487  0.12128  1.0000
  C   C36       1.0  0.39728  0.27880  0.09350  1.0000
  S   S10       1.0  0.43020  0.33506  0.20968  1.0000
  C   C37       1.0  0.44053  0.28375  0.09816  1.0000
  S   S11       1.0  0.37668  0.14152  0.05194  1.0000
  H   H56       1.0  0.42704  0.08468  0.11421  1.0000
  S   S12       1.0  0.44184  0.08058  0.04441  1.0000
  C   C38       1.0  0.32913  0.47702  0.29043  1.0000
  H   H57       1.0  0.42475  0.23085  0.06185  1.0000
  H   H58       1.0  0.45928  0.04148  0.11074  1.0000
  H   H59       1.0  0.43700  0.25819  0.10998  1.0000
  C   C39       1.0  0.46141  0.45782  0.11492  1.0000
  H   H60       1.0  0.43800  0.33271  0.04763  1.0000
  Fe  Fe6       1.0  0.46753  0.09223  0.00583  1.0000
  H   H61       1.0  0.46317  0.28989  0.30767  1.0000
  H   H62       1.0  0.45514  0.30963  0.11026  1.0000
  H   H63       1.0  0.44248  0.24156  0.01771  1.0000
  C   C40       1.0  0.44145  0.26156  0.05509  1.0000
  H   H64       1.0  0.46972  0.47254  0.09713  1.0000
  H   H65       1.0  0.45148  0.41322  0.31343  1.0000
  C   C41       1.0  0.46398  0.35061  0.05908  1.0000
  H   H66       1.0  0.47544  0.16596  0.11814  1.0000
  S   S13       1.0  0.47415  0.30878  0.16476  1.0000
  N   N3        1.0  0.46643  0.28667  0.07575  1.0000
  C   C42       1.0  0.46446  0.25995  0.03157  1.0000
  H   H67       1.0  0.45363  0.36192  0.07522  1.0000
  H   H68       1.0  0.47135  0.47657  0.17647  1.0000
  S   S14       1.0  0.19011  0.37350  0.40195  1.0000
  Fe  Fe7       1.0  0.08227  0.39893  0.57045  1.0000
  S   S15       1.0  0.03782  0.41973  0.55556  1.0000
  S   S16       1.0  0.07110  0.37289  0.60906  1.0000
  Fe  Fe8       1.0  0.13885  0.43254  0.52621  1.0000
  Fe  Fe9       1.0  0.04953  0.39926  0.51907  1.0000
  S   S17       1.0  0.08961  0.37305  0.53452  1.0000
  C   C43       1.0  0.01968  0.34554  0.61481  1.0000
  C   C44       1.0  0.19412  0.39255  0.43185  1.0000
  C   C45       1.0  0.16389  0.37277  0.44936  1.0000
  C   C46       1.0  0.16511  0.38851  0.47295  1.0000
  C   C47       1.0  0.19677  0.42400  0.47916  1.0000
  C   C48       1.0  0.22593  0.42787  0.43813  1.0000
  H   H69       1.0  0.13922  0.34540  0.44457  1.0000
  H   H70       1.0  0.14151  0.37326  0.48630  1.0000
  H   H71       1.0  0.08179  0.37148  0.45564  1.0000
  C   C49       1.0  0.06405  0.36588  0.43842  1.0000
  H   H72       1.0  0.03365  0.36335  0.44284  1.0000
  Fe  Fe10      1.0  0.24661  0.39122  0.37891  1.0000
  S   S18       1.0  0.25113  0.41196  0.33939  1.0000
  H   H73       1.0  0.06430  0.38961  0.40181  1.0000
  C   C50       1.0  0.08467  0.39713  0.41804  1.0000
  C   C51       1.0  0.22740  0.44340  0.46181  1.0000
  H   H74       1.0  0.11128  0.39271  0.41164  1.0000
  N   N4        1.0  0.09690  0.43908  0.42543  1.0000
  H   H75       1.0  0.15313  0.43986  0.43802  1.0000
  H   H76       1.0  0.06039  0.33684  0.43165  1.0000
  S   S19       1.0  0.13563  0.45601  0.56380  1.0000
  H   H77       1.0  0.24884  0.44373  0.42456  1.0000
  S   S20       1.0  0.19867  0.44476  0.50835  1.0000
  H   H78       1.0  0.26276  0.31525  0.43660  1.0000
  H   H79       1.0  0.24747  0.37495  0.46811  1.0000
  S   S21       1.0  0.09905  0.45708  0.50840  1.0000
  C   C52       1.0  0.25320  0.33911  0.43968  1.0000
  H   H80       1.0  0.25824  0.40054  0.50602  1.0000
  H   H81       1.0  0.25272  0.33290  0.47944  1.0000
  C   C53       1.0  0.26495  0.35732  0.46553  1.0000
  H   H82       1.0  0.26481  0.36144  0.42465  1.0000
  H   H83       1.0  0.22000  0.32562  0.43816  1.0000
  C   C54       1.0  0.32361  0.41600  0.45156  1.0000
  H   H84       1.0  0.29989  0.42659  0.44867  1.0000
  N   N5        1.0  0.30912  0.38193  0.46971  1.0000
  C   C55       1.0  0.29091  0.41899  0.50395  1.0000
  S   S22       1.0  0.26778  0.34476  0.37030  1.0000
  S   S23       1.0  0.30737  0.43662  0.38927  1.0000
  Fe  Fe11      1.0  0.31408  0.45313  0.34892  1.0000
  Fe  Fe12      1.0  0.27797  0.36957  0.33159  1.0000
  C   C56       1.0  0.00535  0.33836  0.63924  1.0000
  Fe  Fe13      1.0  0.32887  0.39167  0.37786  1.0000
  S   S24       1.0  0.34129  0.41225  0.33835  1.0000
  H   H85       1.0  0.32892  0.40620  0.43312  1.0000
  H   H86       1.0  0.29577  0.44337  0.49075  1.0000
  C   C57       1.0  0.31366  0.39444  0.49638  1.0000
  H   H87       1.0  0.30319  0.36825  0.50897  1.0000
  H   H88       1.0  0.03246  0.42835  0.61833  1.0000
  C   C58       1.0  0.33051  0.35599  0.46558  1.0000
  C   C59       1.0  0.04405  0.46070  0.61867  1.0000
  C   C60       1.0  0.02401  0.43206  0.42197  1.0000
  H   H89       1.0  0.32033  0.30166  0.34448  1.0000
  H   H90       1.0  0.01137  0.40074  0.41695  1.0000
  H   H91       1.0  0.00374  0.33603  0.57632  1.0000
  H   H92       1.0  0.13895  0.43443  0.63939  1.0000
  H   H93       1.0  0.30155  0.43210  0.52234  1.0000
  H   H94       1.0  0.11908  0.43456  0.46193  1.0000
  H   H95       1.0  0.32639  0.34519  0.44626  1.0000
  C   C61       1.0  0.13036  0.44996  0.44395  1.0000
  H   H96       1.0  0.34535  0.41156  0.50148  1.0000
  H   H97       1.0  0.05426  0.42863  0.45554  1.0000
  C   C62       1.0  0.06260  0.44456  0.43740  1.0000
  H   H98       1.0  0.31755  0.32940  0.47780  1.0000
  H   H99       1.0  0.34108  0.28841  0.31825  1.0000
  C   C63       1.0  0.34603  0.29590  0.33806  1.0000
  S   S25       1.0  0.00141  0.36468  0.49226  1.0000
  H   H100      1.0  0.99436  0.43584  0.50669  1.0000
  C   C64       1.0  0.99279  0.33134  0.59522  1.0000
  H   H101      1.0  0.34496  0.27024  0.34892  1.0000
  C   C65       1.0  0.36194  0.45267  0.45828  1.0000
  H   H102      1.0  0.00155  0.46407  0.57956  1.0000
  C   C66       1.0  0.11024  0.46463  0.40250  1.0000
  H   H103      1.0  0.25174  0.47107  0.46647  1.0000
  H   H104      1.0  0.16851  0.45938  0.40020  1.0000
  H   H105      1.0  0.00089  0.43619  0.43329  1.0000
  H   H106      1.0  0.38025  0.46438  0.44120  1.0000
  C   C67       1.0  0.98370  0.47687  0.58949  1.0000
  H   H107      1.0  0.38737  0.35170  0.46664  1.0000
  C   C68       1.0  0.37622  0.37461  0.46929  1.0000
  H   H108      1.0  0.38519  0.38616  0.48812  1.0000
  C   C69       1.0  0.01293  0.47390  0.62933  1.0000
  H   H109      1.0  0.05470  0.47298  0.59999  1.0000
  H   H110      1.0  0.45444  0.38493  0.40252  1.0000
  H   H111      1.0  0.07109  0.47219  0.63045  1.0000
  C   C70       1.0  0.42205  0.45629  0.39331  1.0000
  H   H112      1.0  0.13568  0.43930  0.37454  1.0000
  H   H113      1.0  0.46013  0.36748  0.35963  1.0000
  H   H114      1.0  0.42769  0.29550  0.35851  1.0000
  C   C71       1.0  0.45749  0.36970  0.33920  1.0000
  C   C72       1.0  0.45588  0.40929  0.33339  1.0000
  C   C73       1.0  0.46408  0.29292  0.32807  1.0000
  H   H115      1.0  0.38966  0.33492  0.36299  1.0000
  H   H116      1.0  0.43231  0.41306  0.34436  1.0000
  C   C74       1.0  0.42026  0.41890  0.39750  1.0000
  H   H117      1.0  0.39483  0.46054  0.39231  1.0000
  C   C75       1.0  0.42714  0.29747  0.33789  1.0000
  H   H118      1.0  0.38183  0.44788  0.47188  1.0000
  H   H119      1.0  0.40113  0.27067  0.33176  1.0000
  C   C76       1.0  0.45573  0.41378  0.39896  1.0000
  N   N6        1.0  0.42256  0.33389  0.32991  1.0000
  C   C77       1.0  0.38537  0.33258  0.34258  1.0000
  H   H120      1.0  0.37926  0.35790  0.33671  1.0000
  H   H121      1.0  0.39168  0.39751  0.45498  1.0000
  S   S26       1.0  0.37365  0.37840  0.39972  1.0000
  H   H122      1.0  0.02850  0.45060  0.40512  1.0000
  H   H123      1.0  0.08554  0.45579  0.38881  1.0000
  H   H124      1.0  0.00791  0.46284  0.64876  1.0000
  H   H125      1.0  0.46397  0.26541  0.33585  1.0000
  C   C78       1.0  0.14611  0.46332  0.38820  1.0000
  Fe  Fe14      1.0  0.09156  0.47545  0.54665  1.0000
  H   H126      1.0  0.07156  0.47584  0.44192  1.0000
  H   H127      1.0  0.35412  0.47651  0.46468  1.0000
  H   H128      1.0  0.04350  0.37503  0.70185  1.0000
  C   C79       1.0  0.04761  0.40590  0.70366  1.0000
  C   C80       1.0  0.01202  0.40858  0.68999  1.0000
  H   H129      1.0  0.04344  0.40948  0.72377  1.0000
  C   C81       1.0  0.12465  0.39331  0.71292  1.0000
  H   H130      1.0  0.09614  0.36739  0.71684  1.0000
  H   H131      1.0  0.13789  0.38917  0.69535  1.0000
  H   H132      1.0  0.14583  0.39446  0.72787  1.0000
  N   N7        1.0  0.08882  0.43397  0.69485  1.0000
  C   C82       1.0  0.09560  0.42243  0.66923  1.0000
  C   C83       1.0  0.11933  0.43186  0.71274  1.0000
  H   H133      1.0  0.11132  0.43567  0.73208  1.0000
  H   H134      1.0  0.01034  0.43694  0.69280  1.0000
  H   H135      1.0  0.01195  0.40291  0.66996  1.0000
  H   H136      1.0  0.09077  0.39121  0.66883  1.0000
  C   C84       1.0  0.33456  0.00349  0.93206  1.0000
  H   H137      1.0  0.02603  0.34818  0.65444  1.0000
  H   H138      1.0  0.02268  0.46710  0.79149  1.0000
  S   S27       1.0  0.36045  0.05158  0.94264  1.0000
  H   H139      1.0  0.16206  0.44805  0.66891  1.0000
  C   C85       1.0  0.33959  0.98992  0.84599  1.0000
  H   H140      1.0  0.07323  0.42399  0.65610  1.0000
  C   C86       1.0  0.13691  0.44742  0.65742  1.0000
  C   C87       1.0  0.00333  0.45560  0.77571  1.0000
  H   H141      1.0  0.38647  0.98599  0.86746  1.0000
  C   C88       1.0  0.29266  0.98555  0.93303  1.0000
  H   H142      1.0  0.14934  0.45638  0.70935  1.0000
  H   H143      1.0  0.33374  0.00210  0.82845  1.0000
  H   H144      1.0  0.32832  0.00080  0.86192  1.0000
  H   H145      1.0  0.38369  0.00685  0.79825  1.0000
  H   H146      1.0  0.14071  0.47771  0.65322  1.0000
  H   H147      1.0  0.05115  0.47421  0.72393  1.0000
  H   H148      1.0  0.27661  0.99986  0.94241  1.0000
  H   H149      1.0  0.45358  0.99421  0.87368  1.0000
  H   H150      1.0  0.40104  0.04930  0.88551  1.0000
  H   H151      1.0  0.37426  0.06358  0.86379  1.0000
  Fe  Fe15      1.0  0.38701  0.05974  0.98094  1.0000
  H   H152      1.0  0.38746  0.99921  0.91842  1.0000
  H   H153      1.0  0.45034  0.03359  0.89091  1.0000
  C   C89       1.0  0.38414  0.99840  0.84910  1.0000
  N   N8        1.0  0.41352  0.04081  0.84711  1.0000
  C   C90       1.0  0.45520  0.04306  0.84998  1.0000
  H   H154      1.0  0.43789  0.02804  0.79848  1.0000
  H   H155      1.0  0.46160  0.02621  0.83525  1.0000
  C   C91       1.0  0.40407  0.06347  0.86699  1.0000
  H   H156      1.0  0.43313  0.12420  0.85246  1.0000
  H   H157      1.0  0.46481  0.11080  0.87250  1.0000
  C   C92       1.0  0.41099  0.05845  0.82228  1.0000
  H   H158      1.0  0.41198  0.05186  0.78236  1.0000
  C   C93       1.0  0.41125  0.03455  0.79932  1.0000
  C   C94       1.0  0.46379  0.02646  0.87452  1.0000
  H   H159      1.0  0.43656  0.08775  0.81978  1.0000
  H   H160      1.0  0.38360  0.06399  0.82114  1.0000
  C   C95       1.0  0.43374  0.10690  0.86911  1.0000
  H   H161      1.0  0.99330  0.39589  0.78340  1.0000
  H   H162      1.0  0.42483  0.11966  0.88519  1.0000
  C   C96       1.0  0.09278  0.47551  0.69391  1.0000
  C   C97       1.0  0.35508  0.98533  0.91931  1.0000
  C   C98       1.0  0.98666  0.41535  0.77116  1.0000
  H   H163      1.0  0.98398  0.38549  0.69776  1.0000
  H   H164      1.0  0.47499  0.09904  0.95728  1.0000
  H   H165      1.0  0.39148  0.98039  0.83555  1.0000
  Fe  Fe16      1.0  0.42166  0.55052  0.20300  1.0000
  S   S28       1.0  0.36760  0.50180  0.21974  1.0000
  C   C99       1.0  0.41213  0.91508  0.05381  1.0000
  H   H166      1.0  0.38811  0.89710  0.00526  1.0000
  H   H167      1.0  0.31762  0.94343  0.99685  1.0000
  C   C100      1.0  0.38664  0.58892  0.09862  1.0000
  H   H168      1.0  0.45003  0.65059  0.08029  1.0000
  H   H169      1.0  0.41995  0.48038  0.30054  1.0000
  H   H170      1.0  0.33296  0.90879  0.01053  1.0000
  H   H171      1.0  0.38836  0.56020  0.06461  1.0000
  Fe  Fe17      1.0  0.45391  0.62373  0.17011  1.0000
  H   H172      1.0  0.46554  0.80040  0.11392  1.0000
  H   H173      1.0  0.38961  0.57351  0.29784  1.0000
  S   S29       1.0  0.42336  0.55957  0.16188  1.0000
  S   S30       1.0  0.43401  0.66590  0.15055  1.0000
  C   C101      1.0  0.47452  0.59903  0.09866  1.0000
  C   C102      1.0  0.40671  0.56956  0.08168  1.0000
  H   H174      1.0  0.47691  0.85857  0.08782  1.0000
  H   H175      1.0  0.44142  0.62297  0.02616  1.0000
  C   C103      1.0  0.33162  0.96695  0.11637  1.0000
  S   S31       1.0  0.46541  0.80915  0.04469  1.0000
  C   C104      1.0  0.36062  0.50693  0.25141  1.0000
  H   H176      1.0  0.39961  0.61882  0.04574  1.0000
  H   H177      1.0  0.40198  0.59744  0.11664  1.0000
  Fe  Fe18      1.0  0.44604  0.79950  0.00496  1.0000
  C   C105      1.0  0.38099  0.54271  0.26331  1.0000
  H   H178      1.0  0.45886  0.58940  0.29889  1.0000
  C   C106      1.0  0.45033  0.50506  0.29993  1.0000
  H   H179      1.0  0.40096  0.56816  0.25292  1.0000
  S   S32       1.0  0.44662  0.61460  0.21128  1.0000
  H   H180      1.0  0.45538  0.74076  0.07314  1.0000
  S   S33       1.0  0.37804  0.96665  0.05018  1.0000
  H   H181      1.0  0.43866  0.66562  0.03816  1.0000
  C   C107      1.0  0.33590  0.92679  0.99358  1.0000
  H   H182      1.0  0.41672  0.70734  0.11079  1.0000
  H   H183      1.0  0.36689  0.84879  0.01830  1.0000
  H   H184      1.0  0.31479  0.83706  0.99190  1.0000
  C   C108      1.0  0.44488  0.90526  0.05338  1.0000
  C   C109      1.0  0.44691  0.70998  0.10813  1.0000
  H   H185      1.0  0.35544  0.56748  0.10279  1.0000
  H   H186      1.0  0.36714  0.94889  0.99108  1.0000
  C   C110      1.0  0.37472  0.54572  0.28873  1.0000
  H   H187      1.0  0.46583  0.57027  0.10827  1.0000
  H   H188      1.0  0.38195  0.89240  0.05259  1.0000
  C   C111      1.0  0.37776  0.86587  0.00079  1.0000
  H   H189      1.0  0.44051  0.85270  0.11093  1.0000
  H   H190      1.0  0.43430  0.51242  0.07049  1.0000
  H   H191      1.0  0.46745  0.61724  0.11216  1.0000
  C   C112      1.0  0.43236  0.63461  0.04263  1.0000
  H   H192      1.0  0.43992  0.87504  0.05136  1.0000
  H   H193      1.0  0.40280  0.54185  0.09133  1.0000
  H   H194      1.0  0.38466  0.61477  0.08973  1.0000
  C   C113      1.0  0.46298  0.57330  0.05580  1.0000
  C   C114      1.0  0.46333  0.69285  0.12542  1.0000
  S   S34       1.0  0.38319  0.77257  0.99038  1.0000
  H   H195      1.0  0.32963  0.94277  0.12912  1.0000
  C   C115      1.0  0.41850  0.95437  0.05428  1.0000
  H   H196      1.0  0.40352  0.85985  0.99506  1.0000
  H   H197      1.0  0.47212  0.49181  0.29956  1.0000
  C   C116      1.0  0.34942  0.51261  0.30240  1.0000
  H   H198      1.0  0.44240  0.56633  0.03969  1.0000
  H   H199      1.0  0.47262  0.52144  0.04784  1.0000
  N   N9        1.0  0.45029  0.59395  0.07540  1.0000
  H   H200      1.0  0.45228  0.52171  0.28250  1.0000
  H   H201      1.0  0.35422  0.96954  0.10220  1.0000
  C   C117      1.0  0.46398  0.53428  0.06396  1.0000
  C   C118      1.0  0.45674  0.63388  0.06569  1.0000
  C   C119      1.0  0.46883  0.72905  0.08687  1.0000
  H   H202      1.0  0.30168  0.95673  0.10761  1.0000
  H   H203      1.0  0.46814  0.93280  0.98854  1.0000
  H   H204      1.0  0.47074  0.82793  0.14123  1.0000
  C   C120      1.0  0.47328  0.47929  0.13668  1.0000
  C   C121      1.0  0.47275  0.85984  0.10801  1.0000
  S   S35       1.0  0.34465  0.51499  0.33458  1.0000
  H   H205      1.0  0.17030  0.51095  0.43335  1.0000
  H   H206      1.0  0.16609  0.54185  0.62993  1.0000
  C   C122      1.0  0.45920  0.48855  0.39070  1.0000
  H   H207      1.0  0.06220  0.57407  0.59003  1.0000
  C   C123      1.0  0.12259  0.56543  0.63523  1.0000
  C   C124      1.0  0.14330  0.54879  0.62134  1.0000
  C   C125      1.0  0.13382  0.54003  0.59639  1.0000
  C   C126      1.0  0.10396  0.54830  0.58519  1.0000
  C   C127      1.0  0.08499  0.56720  0.59872  1.0000
  C   C128      1.0  0.09400  0.57542  0.62383  1.0000
  H   H208      1.0  0.45479  0.51181  0.33960  1.0000
  H   H209      1.0  0.01161  0.60693  0.62855  1.0000
  H   H210      1.0  0.07801  0.58849  0.63439  1.0000
  H   H211      1.0  0.21090  0.64457  0.62418  1.0000
  H   H212      1.0  0.43032  0.56454  0.36105  1.0000
  H   H213      1.0  0.44447  0.60532  0.33939  1.0000
  H   H214      1.0  0.13281  0.50670  0.45654  1.0000
  H   H215      1.0  0.14967  0.52692  0.58581  1.0000
  S   S36       1.0  0.08755  0.53203  0.55521  1.0000
  H   H216      1.0  0.00819  0.59968  0.58286  1.0000
  H   H217      1.0  0.46023  0.51744  0.38822  1.0000
  H   H218      1.0  0.16273  0.49171  0.37831  1.0000
  H   H219      1.0  0.42786  0.53505  0.32433  1.0000
  H   H220      1.0  0.17501  0.49739  0.46454  1.0000
  H   H221      1.0  0.00257  0.50911  0.58973  1.0000
  H   H222      1.0  0.02747  0.50642  0.63052  1.0000
  C   C129      1.0  0.15296  0.49392  0.44963  1.0000
  C   C130      1.0  0.98304  0.59084  0.61976  1.0000
  H   H223      1.0  0.25442  0.67169  0.64216  1.0000
  H   H224      1.0  0.20112  0.69835  0.63996  1.0000
  C   C131      1.0  0.98106  0.58669  0.59391  1.0000
  C   C132      1.0  0.45499  0.59274  0.35500  1.0000
  H   H225      1.0  0.46146  0.61296  0.37084  1.0000
  H   H226      1.0  0.11654  0.49566  0.40637  1.0000
  H   H227      1.0  0.98682  0.66144  0.52200  1.0000
  C   C133      1.0  0.45556  0.53030  0.32311  1.0000
  C   C134      1.0  0.22169  0.65347  0.64332  1.0000
  Fe  Fe19      1.0  0.34869  0.88256  0.82047  1.0000
  S   S37       1.0  0.28231  0.86209  0.82597  1.0000
  S   S38       1.0  0.38426  0.92870  0.79246  1.0000
  Fe  Fe20      1.0  0.35559  0.82873  0.85980  1.0000
  S   S39       1.0  0.29049  0.80393  0.86959  1.0000
  S   S40       1.0  0.40312  0.81373  0.87633  1.0000
  Fe  Fe21      1.0  0.28051  0.80182  0.82844  1.0000
  S   S41       1.0  0.23172  0.74453  0.81593  1.0000
  Fe  Fe22      1.0  0.29733  0.86585  0.86642  1.0000
  S   S42       1.0  0.26407  0.88762  0.89280  1.0000
  S   S43       1.0  0.34560  0.82190  0.81896  1.0000
  S   S44       1.0  0.36375  0.89112  0.86067  1.0000
  Fe  Fe23      1.0  0.07965  0.65504  0.71410  1.0000
  S   S45       1.0  0.10118  0.60965  0.72504  1.0000
  S   S46       1.0  0.11407  0.71821  0.72535  1.0000
  Fe  Fe24      1.0  0.00894  0.59616  0.68521  1.0000
  S   S47       1.0  0.02555  0.54656  0.69384  1.0000
  C   C135      1.0  0.42501  0.79403  0.94684  1.0000
  Fe  Fe25      1.0  0.03644  0.57051  0.73201  1.0000
  Fe  Fe26      1.0  0.08821  0.59017  0.68589  1.0000
  C   C136      1.0  0.35317  0.77072  0.94346  1.0000
  S   S48       1.0  0.01554  0.61748  0.72436  1.0000
  S   S49       1.0  0.07127  0.63844  0.67383  1.0000
  H   H228      1.0  0.22811  0.79859  0.77734  1.0000
  H   H229      1.0  0.21400  0.64709  0.73555  1.0000
  C   C137      1.0  0.29177  0.93215  0.90783  1.0000
  H   H230      1.0  0.16435  0.75706  0.67873  1.0000
  C   C138      1.0  0.33370  0.94984  0.90710  1.0000
  H   H231      1.0  0.23896  0.93629  0.92190  1.0000
  H   H232      1.0  0.34971  0.93612  0.89730  1.0000
  H   H233      1.0  0.32366  0.87625  0.92380  1.0000
  H   H234      1.0  0.09008  0.70509  0.81028  1.0000
  H   H235      1.0  0.20382  0.76384  0.89413  1.0000
  C   C139      1.0  0.46109  0.95569  0.77527  1.0000
  C   C140      1.0  0.39578  0.79773  0.90729  1.0000
  C   C141      1.0  0.35753  0.78069  0.91809  1.0000
  H   H236      1.0  0.45136  0.79946  0.95758  1.0000
  H   H237      1.0  0.31678  0.91991  0.95572  1.0000
  C   C142      1.0  0.42929  0.80331  0.92158  1.0000
  H   H238      1.0  0.33143  0.77534  0.90696  1.0000
  H   H239      1.0  0.23059  0.64907  0.69157  1.0000
  H   H240      1.0  0.20871  0.86597  0.84687  1.0000
  C   C143      1.0  0.20087  0.73844  0.78996  1.0000
  C   C144      1.0  0.17044  0.70108  0.78573  1.0000
  C   C145      1.0  0.14372  0.69483  0.76606  1.0000
  C   C146      1.0  0.14737  0.72584  0.75025  1.0000
  C   C147      1.0  0.17788  0.76335  0.75438  1.0000
  C   C148      1.0  0.20468  0.76967  0.77421  1.0000
  H   H241      1.0  0.16715  0.67688  0.79797  1.0000
  H   H242      1.0  0.11979  0.66609  0.76348  1.0000
  H   H243      1.0  0.18079  0.78750  0.74222  1.0000
  H   H244      1.0  0.43485  0.94511  0.83616  1.0000
  H   H245      1.0  0.16741  0.72751  0.87559  1.0000
  H   H246      1.0  0.33728  0.83830  0.93251  1.0000
  H   H247      1.0  0.15399  0.68764  0.69023  1.0000
  C   C149      1.0  0.08381  0.79606  0.85090  1.0000
  C   C150      1.0  0.43636  0.94623  0.79626  1.0000
  H   H248      1.0  0.05772  0.76697  0.85073  1.0000
  C   C151      1.0  0.18421  0.78880  0.86323  1.0000
  H   H249      1.0  0.32371  0.75810  0.95194  1.0000
  N   N10       1.0  0.14896  0.78528  0.84745  1.0000
  H   H250      1.0  0.07959  0.74636  0.81582  1.0000
  C   C152      1.0  0.25569  0.72522  0.67647  1.0000
  H   H251      1.0  0.40183  0.92583  0.96914  1.0000
  C   C153      1.0  0.18318  0.85826  0.83401  1.0000
  H   H252      1.0  0.44792  0.95113  0.75702  1.0000
  H   H253      1.0  0.25291  0.69296  0.72662  1.0000
  H   H254      1.0  0.19493  0.87692  0.81715  1.0000
  H   H255      1.0  0.12271  0.75125  0.79752  1.0000
  S   S50       1.0  0.01795  0.53148  0.76576  1.0000
  H   H256      1.0  0.16647  0.65528  0.65514  1.0000
  H   H257      1.0  0.13561  0.82025  0.87472  1.0000
  C   C154      1.0  0.11999  0.79324  0.86369  1.0000
  N   N11       1.0  0.21303  0.69465  0.67913  1.0000
  C   C155      1.0  0.17582  0.75694  0.88354  1.0000
  H   H258      1.0  0.07516  0.81663  0.86128  1.0000
  H   H259      1.0  0.15281  0.75608  0.89704  1.0000
  H   H260      1.0  0.40073  0.88088  0.92211  1.0000
  H   H261      1.0  0.11091  0.72309  0.85202  1.0000
  H   H262      1.0  0.30278  0.76672  0.69942  1.0000
  C   C156      1.0  0.12995  0.74407  0.83756  1.0000
  C   C157      1.0  0.16538  0.81481  0.82649  1.0000
  C   C158      1.0  0.21023  0.66255  0.69713  1.0000
  C   C159      1.0  0.38715  0.77852  0.95802  1.0000
  H   H263      1.0  0.16018  0.86635  0.84227  1.0000
  H   H264      1.0  0.18897  0.80972  0.81617  1.0000
  H   H265      1.0  0.14249  0.81165  0.81236  1.0000
  H   H266      1.0  0.20880  0.78828  0.85145  1.0000
  H   H267      1.0  0.45888  0.81570  0.91339  1.0000
  C   C160      1.0  0.10412  0.73701  0.81407  1.0000
  N   N12       1.0  0.34295  0.87881  0.96196  1.0000
  C   C161      1.0  0.17998  0.74154  0.66906  1.0000
  C   C162      1.0  0.41039  0.88977  0.94141  1.0000
  H   H268      1.0  0.41004  0.86419  0.95194  1.0000
  H   H269      1.0  0.15340  0.73387  0.83284  1.0000
  H   H270      1.0  0.26894  0.78520  0.68819  1.0000
  H   H271      1.0  0.26772  0.80864  0.92621  1.0000
  C   C163      1.0  0.22052  0.67411  0.72434  1.0000
  C   C164      1.0  0.45362  0.95219  0.81985  1.0000
  C   C165      1.0  0.32202  0.85611  0.93940  1.0000
  C   C166      1.0  0.18444  0.71156  0.68715  1.0000
  H   H272      1.0  0.19726  0.81729  0.87291  1.0000
  H   H273      1.0  0.20927  0.76392  0.66240  1.0000
  H   H274      1.0  0.10698  0.76983  0.87810  1.0000
  H   H275      1.0  0.09007  0.80827  0.83186  1.0000
  H   H276      1.0  0.20210  0.68788  0.73248  1.0000
  C   C167      1.0  0.27137  0.94978  0.92118  1.0000
  C   C168      1.0  0.27761  0.82729  0.94284  1.0000
  H   H277      1.0  0.27279  0.80746  0.95908  1.0000
  H   H278      1.0  0.25808  0.84302  0.94411  1.0000
  H   H279      1.0  0.38200  0.92936  0.94029  1.0000
  C   C169      1.0  0.19885  0.67595  0.65426  1.0000
  H   H280      1.0  0.19249  0.72610  0.70524  1.0000
  C   C170      1.0  0.38423  0.90771  0.95373  1.0000
  H   H281      1.0  0.08785  0.52171  0.71540  1.0000
  H   H282      1.0  0.27686  0.71106  0.67664  1.0000
  H   H283      1.0  0.21544  0.62589  0.65374  1.0000
  H   H284      1.0  0.25526  0.75091  0.71401  1.0000
  H   H285      1.0  0.17943  0.63848  0.69702  1.0000
  S   S51       1.0  0.13174  0.57208  0.66702  1.0000
  C   C171      1.0  0.27050  0.75831  0.69580  1.0000
  H   H286      1.0  0.44196  0.91205  0.94033  1.0000
  H   H287      1.0  0.25987  0.74035  0.65810  1.0000
  H   H288      1.0  0.10245  0.49033  0.73368  1.0000
  H   H289      1.0  0.16098  0.72668  0.65306  1.0000
  C   C172      1.0  0.31954  0.90088  0.97083  1.0000
  H   H290      1.0  0.34716  0.82535  0.97277  1.0000
  H   H291      1.0  0.28841  0.88044  0.97606  1.0000
  C   C173      1.0  0.34379  0.85022  0.98160  1.0000
  H   H292      1.0  0.12400  0.49630  0.68902  1.0000
  H   H293      1.0  0.32159  0.95766  0.84568  1.0000
  C   C174      1.0  0.08284  0.49072  0.71824  1.0000
  H   H294      1.0  0.47563  0.89266  0.89326  1.0000
  C   C175      1.0  0.99585  0.48115  0.75964  1.0000
  H   H295      1.0  0.07385  0.47940  0.67899  1.0000
  H   H296      1.0  0.48201  0.23841  0.08454  1.0000
  H   H297      1.0  0.53367  0.41365  0.16987  1.0000
  H   H298      1.0  0.60632  0.98452  0.01696  1.0000
  H   H299      1.0  0.56051  0.00420  0.02756  1.0000
  H   H300      1.0  0.56315  0.42835  0.14231  1.0000
  C   C176      1.0  0.56332  0.43435  0.16239  1.0000
  S   S52       1.0  0.53311  0.11773  0.99637  1.0000
  H   H301      1.0  0.53351  0.31823  0.10860  1.0000
  S   S53       1.0  0.54523  0.36458  0.21613  1.0000
  H   H302      1.0  0.61411  0.46422  0.20432  1.0000
  H   H303      1.0  0.53800  0.31198  0.30064  1.0000
  H   H304      1.0  0.59680  0.43718  0.29180  1.0000
  C   C177      1.0  0.49671  0.27098  0.08287  1.0000
  N   N13       1.0  0.56273  0.01252  0.98767  1.0000
  C   C178      1.0  0.56730  0.37509  0.29941  1.0000
  C   C179      1.0  0.61688  0.98767  0.99754  1.0000
  H   H305      1.0  0.62591  0.06183  0.02165  1.0000
  H   H306      1.0  0.54375  0.27591  0.10883  1.0000
  H   H307      1.0  0.65012  0.00102  0.99834  1.0000
  C   C180      1.0  0.54216  0.46323  0.20749  1.0000
  C   C181      1.0  0.59746  0.06526  0.02062  1.0000
  C   C182      1.0  0.54764  0.33793  0.28898  1.0000
  C   C183      1.0  0.55344  0.36784  0.24818  1.0000
  C   C184      1.0  0.53976  0.33434  0.26344  1.0000
  H   H308      1.0  0.58719  0.42781  0.17099  1.0000
  C   C185      1.0  0.56195  0.02664  0.01357  1.0000
  C   C186      1.0  0.57478  0.40470  0.25847  1.0000
  H   H309      1.0  0.60099  0.08981  0.00783  1.0000
  H   H310      1.0  0.51962  0.99616  0.06128  1.0000
  H   H311      1.0  0.58617  0.43048  0.24670  1.0000
  C   C187      1.0  0.58102  0.40843  0.28405  1.0000
  H   H312      1.0  0.53437  0.03130  0.01671  1.0000
  H   H313      1.0  0.50757  0.34648  0.08308  1.0000
  C   C188      1.0  0.51940  0.28590  0.10737  1.0000
  H   H314      1.0  0.49970  0.27310  0.12371  1.0000
  H   H315      1.0  0.48111  0.28930  0.02294  1.0000
  H   H316      1.0  0.52397  0.30568  0.25548  1.0000
  C   C189      1.0  0.48913  0.32882  0.06762  1.0000
  H   H317      1.0  0.48292  0.35451  0.29504  1.0000
  Fe  Fe27      1.0  0.48380  0.32167  0.20512  1.0000
  H   H318      1.0  0.54589  0.43585  0.21034  1.0000
  H   H319      1.0  0.52009  0.27785  0.06821  1.0000
  H   H320      1.0  0.51188  0.33238  0.05307  1.0000
  H   H321      1.0  0.48485  0.24562  0.03517  1.0000
  H   H322      1.0  0.59175  0.07379  0.03933  1.0000
  H   H323      1.0  0.51321  0.45452  0.19768  1.0000
  H   H324      1.0  0.48266  0.37570  0.04686  1.0000
  H   H325      1.0  0.51194  0.45055  0.24310  1.0000
  C   C190      1.0  0.57029  0.47747  0.16573  1.0000
  C   C191      1.0  0.53574  0.47598  0.23342  1.0000
  H   H326      1.0  0.96699  0.40439  0.60154  1.0000
  C   C192      1.0  0.64583  0.41306  0.43671  1.0000
  H   H327      1.0  0.73028  0.44866  0.43205  1.0000
  H   H328      1.0  0.89621  0.37122  0.44036  1.0000
  C   C193      1.0  0.90763  0.39681  0.61300  1.0000
  C   C194      1.0  0.72636  0.41863  0.42733  1.0000
  H   H329      1.0  0.66207  0.34861  0.42758  1.0000
  Fe  Fe28      1.0  0.59925  0.44404  0.34075  1.0000
  H   H330      1.0  0.95936  0.40496  0.63404  1.0000
  H   H331      1.0  0.93125  0.29772  0.58499  1.0000
  C   C195      1.0  0.66410  0.41749  0.41045  1.0000
  H   H332      1.0  0.94958  0.39409  0.54751  1.0000
  S   S54       1.0  0.79710  0.43790  0.49797  1.0000
  H   H333      1.0  0.83813  0.33115  0.48083  1.0000
  H   H334      1.0  0.68171  0.30565  0.39812  1.0000
  H   H335      1.0  0.67638  0.44920  0.40543  1.0000
  S   S55       1.0  0.88569  0.27820  0.63027  1.0000
  Fe  Fe29      1.0  0.81654  0.43735  0.53710  1.0000
  S   S56       1.0  0.78426  0.38446  0.56105  1.0000
  H   H336      1.0  0.94233  0.34645  0.53852  1.0000
  C   C196      1.0  0.93729  0.30378  0.62451  1.0000
  S   S57       1.0  0.57300  0.38007  0.33165  1.0000
  H   H337      1.0  0.79719  0.30050  0.57426  1.0000
  C   C197      1.0  0.91814  0.41891  0.46593  1.0000
  N   N14       1.0  0.97381  0.46059  0.61557  1.0000
  H   H338      1.0  0.77017  0.39524  0.41612  1.0000
  C   C198      1.0  0.79706  0.39365  0.59225  1.0000
  C   C199      1.0  0.78032  0.36311  0.60958  1.0000
  H   H339      1.0  0.89887  0.36723  0.60527  1.0000
  H   H340      1.0  0.75884  0.33457  0.60378  1.0000
  C   C200      1.0  0.81946  0.40589  0.64207  1.0000
  C   C201      1.0  0.91761  0.38540  0.45479  1.0000
  H   H341      1.0  0.89521  0.41262  0.60080  1.0000
  H   H342      1.0  0.89221  0.39104  0.63123  1.0000
  C   C202      1.0  0.83485  0.43705  0.62499  1.0000
  H   H343      1.0  0.83850  0.30401  0.59368  1.0000
  H   H344      1.0  0.93161  0.43918  0.56781  1.0000
  C   C203      1.0  0.95175  0.30979  0.60011  1.0000
  H   H345      1.0  0.84443  0.37472  0.49750  1.0000
  H   H346      1.0  0.79573  0.34003  0.48928  1.0000
  H   H347      1.0  0.84254  0.34456  0.57520  1.0000
  C   C204      1.0  0.82418  0.43078  0.59994  1.0000
  N   N15       1.0  0.85781  0.31871  0.53049  1.0000
  C   C205      1.0  0.87418  0.29847  0.51265  1.0000
  C   C206      1.0  0.88944  0.35972  0.53418  1.0000
  C   C207      1.0  0.82061  0.32100  0.52059  1.0000
  C   C208      1.0  0.84729  0.29566  0.55453  1.0000
  C   C209      1.0  0.84374  0.25912  0.50237  1.0000
  C   C210      1.0  0.92749  0.36297  0.54775  1.0000
  C   C211      1.0  0.82555  0.34290  0.49558  1.0000
  C   C212      1.0  0.83037  0.31226  0.57537  1.0000
  H   H348      1.0  0.88894  0.31780  0.49647  1.0000
  H   H349      1.0  0.89827  0.29230  0.52149  1.0000
  H   H350      1.0  0.87722  0.37808  0.54401  1.0000
  H   H351      1.0  0.89971  0.37490  0.51603  1.0000
  H   H352      1.0  0.79562  0.29131  0.51902  1.0000
  H   H353      1.0  0.80928  0.33635  0.53382  1.0000
  H   H354      1.0  0.82391  0.26556  0.55151  1.0000
  H   H355      1.0  0.87285  0.29045  0.56194  1.0000
  H   H356      1.0  0.82885  0.23712  0.51722  1.0000
  H   H357      1.0  0.67120  0.37107  0.35813  1.0000
  H   H358      1.0  0.86003  0.24680  0.49040  1.0000
  H   H359      1.0  0.94730  0.46382  0.49278  1.0000
  H   H360      1.0  0.92113  0.35349  0.56735  1.0000
  H   H361      1.0  0.71683  0.33375  0.42146  1.0000
  S   S58       1.0  0.88230  0.43593  0.45706  1.0000
  H   H362      1.0  0.49249  0.31687  0.33401  1.0000
  C   C213      1.0  0.95370  0.41631  0.61597  1.0000
  H   H363      1.0  0.92004  0.47070  0.61887  1.0000
  H   H364      1.0  0.83725  0.45448  0.58663  1.0000
  C   C214      1.0  0.71486  0.41651  0.38195  1.0000
  H   H365      1.0  0.63059  0.38206  0.44293  1.0000
  N   N16       1.0  0.69570  0.40220  0.40702  1.0000
  C   C215      1.0  0.67518  0.35813  0.40878  1.0000
  H   H366      1.0  0.82093  0.26282  0.49055  1.0000
  H   H367      1.0  0.71581  0.40112  0.44479  1.0000
  Fe  Fe30      1.0  0.86258  0.46140  0.48886  1.0000
  C   C216      1.0  0.76922  0.42278  0.42206  1.0000
  H   H368      1.0  0.72331  0.34834  0.38908  1.0000
  H   H369      1.0  0.63836  0.40269  0.39781  1.0000
  C   C217      1.0  0.79150  0.36926  0.63445  1.0000
  C   C218      1.0  0.68647  0.40339  0.35954  1.0000
  H   H370      1.0  0.85585  0.46564  0.63094  1.0000
  H   H371      1.0  0.64855  0.34587  0.39651  1.0000
  C   C219      1.0  0.70124  0.33577  0.40425  1.0000
  H   H372      1.0  0.48668  0.37213  0.33218  1.0000
  H   H373      1.0  0.62279  0.42488  0.43638  1.0000
  C   C220      1.0  0.96414  0.31825  0.64409  1.0000
  H   H374      1.0  0.52023  0.44164  0.39521  1.0000
  H   H375      1.0  0.78712  0.43183  0.43929  1.0000
  S   S59       1.0  0.88088  0.45519  0.52748  1.0000
  H   H376      1.0  0.66404  0.41587  0.35972  1.0000
  H   H377      1.0  0.66833  0.43035  0.45060  1.0000
  H   H378      1.0  0.73943  0.40772  0.37812  1.0000
  C   C221      1.0  0.97294  0.42170  0.49225  1.0000
  C   C222      1.0  0.49292  0.44581  0.39485  1.0000
  C   C223      1.0  0.94380  0.36942  0.46280  1.0000
  C   C224      1.0  0.94616  0.43738  0.48448  1.0000
  H   H379      1.0  0.77787  0.34574  0.64778  1.0000
  H   H380      1.0  0.94258  0.34296  0.45449  1.0000
  H   H381      1.0  0.70436  0.41470  0.34228  1.0000
  H   H382      1.0  0.72978  0.44909  0.38143  1.0000
  H   H383      1.0  0.48472  0.43343  0.33881  1.0000
  H   H384      1.0  0.78469  0.44634  0.40810  1.0000
  C   C225      1.0  0.94839  0.47043  0.57229  1.0000
  C   C226      1.0  0.97112  0.38721  0.48172  1.0000
  S   S60       1.0  0.60916  0.46529  0.37987  1.0000
  Fe  Fe31      1.0  0.67355  0.11288  0.84366  1.0000
  S   S61       1.0  0.61295  0.10085  0.82826  1.0000
  S   S62       1.0  0.73423  0.15229  0.82755  1.0000
  Fe  Fe32      1.0  0.63864  0.05140  0.88484  1.0000
  S   S63       1.0  0.57512  0.03348  0.87293  1.0000
  Fe  Fe33      1.0  0.59931  0.03746  0.83441  1.0000
  Fe  Fe34      1.0  0.59394  0.09821  0.86803  1.0000
  S   S64       1.0  0.54990  0.12173  0.87972  1.0000
  S   S65       1.0  0.66137  0.04948  0.84669  1.0000
  S   S66       1.0  0.65584  0.11607  0.88311  1.0000
  H   H385      1.0  0.60288  0.14480  0.96434  1.0000
  Fe  Fe35      1.0  0.89277  0.32944  0.71723  1.0000
  S   S67       1.0  0.86263  0.26704  0.70450  1.0000
  H   H386      1.0  0.91334  0.38170  0.82836  1.0000
  Fe  Fe36      1.0  0.84303  0.35715  0.68452  1.0000
  S   S68       1.0  0.80860  0.29757  0.66896  1.0000
  S   S69       1.0  0.83745  0.41189  0.67244  1.0000
  Fe  Fe37      1.0  0.80602  0.27574  0.70806  1.0000
  S   S70       1.0  0.74553  0.23445  0.72327  1.0000
  C   C227      1.0  0.96128  0.40021  0.75099  1.0000
  H   H387      1.0  0.78984  0.32272  0.80573  1.0000
  S   S71       1.0  0.83594  0.33597  0.72387  1.0000
  S   S72       1.0  0.90277  0.35614  0.67926  1.0000
  C   C228      1.0  0.67339  0.06955  0.77276  1.0000
  H   H388      1.0  0.70147  0.10530  0.69637  1.0000
  H   H389      1.0  0.76526  0.23901  0.85061  1.0000
  H   H390      1.0  0.47891  0.07320  0.84673  1.0000
  H   H391      1.0  0.79723  0.18261  0.79174  1.0000
  H   H392      1.0  0.95323  0.31288  0.66300  1.0000
  C   C229      1.0  0.97073  0.46616  0.73925  1.0000
  C   C230      1.0  0.54606  0.12267  0.91211  1.0000
  C   C231      1.0  0.58021  0.13493  0.92699  1.0000
  C   C232      1.0  0.57645  0.13518  0.95289  1.0000
  C   C233      1.0  0.53845  0.12184  0.96396  1.0000
  C   C234      1.0  0.50444  0.10951  0.94903  1.0000
  C   C235      1.0  0.50826  0.11038  0.92322  1.0000
  H   H393      1.0  0.60953  0.14473  0.91854  1.0000
  H   H394      1.0  0.93964  0.35071  0.82822  1.0000
  S   S73       1.0  0.57223  0.99452  0.80380  1.0000
  C   C236      1.0  0.73659  0.17457  0.79849  1.0000
  C   C237      1.0  0.70400  0.18022  0.78915  1.0000
  C   C238      1.0  0.70731  0.19928  0.76617  1.0000
  C   C239      1.0  0.74325  0.21303  0.75259  1.0000
  C   C240      1.0  0.77581  0.20728  0.76189  1.0000
  C   C241      1.0  0.77232  0.18776  0.78473  1.0000
  H   H395      1.0  0.67645  0.17034  0.79974  1.0000
  H   H396      1.0  0.68200  0.20353  0.75891  1.0000
  H   H397      1.0  0.80321  0.21687  0.75114  1.0000
  H   H398      1.0  0.77466  0.28927  0.84717  1.0000
  C   C242      1.0  0.91317  0.35430  0.82088  1.0000
  C   C243      1.0  0.94025  0.46896  0.65574  1.0000
  H   H399      1.0  0.63056  0.09286  0.72211  1.0000
  C   C244      1.0  0.66042  0.04167  0.72996  1.0000
  C   C245      1.0  0.55395  0.03903  0.96991  1.0000
  H   H400      1.0  0.73616  0.07751  0.77594  1.0000
  H   H401      1.0  0.69301  0.14453  0.71077  1.0000
  H   H402      1.0  0.57844  0.08660  0.75074  1.0000
  C   C246      1.0  0.63874  0.09348  0.74201  1.0000
  C   C247      1.0  0.78914  0.26876  0.84648  1.0000
  H   H403      1.0  0.65546  0.04806  0.71041  1.0000
  H   H404      1.0  0.86793  0.46148  0.74897  1.0000
  H   H405      1.0  0.85593  0.24402  0.79140  1.0000
  H   H406      1.0  0.74238  0.14824  0.70710  1.0000
  H   H407      1.0  0.68665  0.03431  0.72862  1.0000
  H   H408      1.0  0.79598  0.43244  0.74789  1.0000
  H   H409      1.0  0.65138  0.12491  0.74735  1.0000
  C   C248      1.0  0.84169  0.37284  0.79414  1.0000
  H   H410      1.0  0.58352  0.04184  0.75388  1.0000
  H   H411      1.0  0.59638  0.00201  0.72738  1.0000
  H   H412      1.0  0.60334  0.00426  0.96227  1.0000
  C   C249      1.0  0.82197  0.33655  0.81134  1.0000
  H   H413      1.0  0.70335  0.04753  0.79942  1.0000
  H   H414      1.0  0.81830  0.24503  0.82199  1.0000
  H   H415      1.0  0.91823  0.35771  0.80066  1.0000
  H   H416      1.0  0.79525  0.42669  0.71451  1.0000
  H   H417      1.0  0.61728  0.99973  0.75727  1.0000
  H   H418      1.0  0.87648  0.26927  0.76312  1.0000
  H   H419      1.0  0.57802  0.06918  0.97072  1.0000
  H   H420      1.0  0.70059  0.02750  0.76937  1.0000
  C   C250      1.0  0.95285  0.42557  0.73518  1.0000
  H   H421      1.0  0.90280  0.28744  0.79113  1.0000
  C   C251      1.0  0.85554  0.46211  0.73035  1.0000
  H   H422      1.0  0.60401  0.07935  0.77682  1.0000
  H   H423      1.0  0.81157  0.27522  0.86142  1.0000
  H   H424      1.0  0.88271  0.29342  0.83244  1.0000
  C   C252      1.0  0.87238  0.27350  0.78307  1.0000
  H   H425      1.0  0.73295  0.09672  0.73670  1.0000
  H   H426      1.0  0.93306  0.41404  0.71964  1.0000
  H   H427      1.0  0.78157  0.25729  0.80759  1.0000
  C   C253      1.0  0.80718  0.26823  0.82074  1.0000
  H   H428      1.0  0.82239  0.28729  0.77384  1.0000
  H   H429      1.0  0.83415  0.36492  0.77450  1.0000
  C   C254      1.0  0.59917  0.07367  0.75676  1.0000
  H   H430      1.0  0.87455  0.38802  0.79607  1.0000
  H   H431      1.0  0.68030  0.09666  0.78353  1.0000
  C   C255      1.0  0.84991  0.29991  0.78537  1.0000
  H   H432      1.0  0.64488  0.04815  0.78090  1.0000
  C   C256      1.0  0.55051  0.02789  0.94235  1.0000
  S   S74       1.0  0.65952  0.02627  0.91681  1.0000
  H   H433      1.0  0.86913  0.32759  0.77567  1.0000
  N   N17       1.0  0.83943  0.30665  0.81138  1.0000
  C   C257      1.0  0.60317  0.01396  0.98144  1.0000
  S   S75       1.0  0.94100  0.34959  0.74594  1.0000
  C   C258      1.0  0.71100  0.12715  0.71131  1.0000
  C   C259      1.0  0.87464  0.31837  0.82863  1.0000
  C   C260      1.0  0.70975  0.10839  0.73711  1.0000
  H   H434      1.0  0.53902  0.04656  0.93188  1.0000
  C   C261      1.0  0.81263  0.42929  0.73162  1.0000
  H   H435      1.0  0.82213  0.34765  0.83037  1.0000
  H   H436      1.0  0.82938  0.39434  0.79863  1.0000
  Fe  Fe38      1.0  0.86798  0.29476  0.66664  1.0000
  C   C262      1.0  0.70537  0.05466  0.77931  1.0000
  H   H437      1.0  0.72089  0.13271  0.75046  1.0000
  N   N18       1.0  0.66965  0.07731  0.74560  1.0000
  H   H438      1.0  0.86655  0.32529  0.84722  1.0000
  C   C263      1.0  0.62356  0.00374  0.73721  1.0000
  H   H439      1.0  0.62708  0.04446  0.98085  1.0000
  H   H440      1.0  0.82102  0.47868  0.69150  1.0000
  H   H441      1.0  0.48167  0.10062  0.91203  1.0000
  H   H442      1.0  0.81447  0.40082  0.73415  1.0000
  H   H443      1.0  0.58035  0.03408  0.93429  1.0000
  H   H444      1.0  0.92807  0.43718  0.65978  1.0000
  H   H445      1.0  0.52599  0.04165  0.97530  1.0000
  H   H446      1.0  0.87331  0.45281  0.71733  1.0000
  H   H447      1.0  0.52941  0.99710  0.93908  1.0000
  H   H448      1.0  0.49648  0.04018  0.87802  1.0000
  H   H449      1.0  0.66739  0.53370  0.22203  1.0000
  H   H450      1.0  0.53999  0.86568  0.08667  1.0000
  C   C264      1.0  0.53184  0.97073  0.98594  1.0000
  Fe  Fe39      1.0  0.51282  0.78999  0.03294  1.0000
  C   C265      1.0  0.54165  0.84049  0.09682  1.0000
  H   H451      1.0  0.53134  0.56470  0.25183  1.0000
  C   C266      1.0  0.48778  0.96469  0.98794  1.0000
  S   S76       1.0  0.55510  0.64561  0.23574  1.0000
  Fe  Fe40      1.0  0.50602  0.61135  0.20957  1.0000
  H   H452      1.0  0.59011  0.84397  0.07276  1.0000
  Fe  Fe41      1.0  0.50939  0.86839  0.03128  1.0000
  S   S77       1.0  0.55815  0.85009  0.02183  1.0000
  C   C267      1.0  0.50230  0.69632  0.12193  1.0000
  C   C268      1.0  0.52068  0.61760  0.09517  1.0000
  C   C269      1.0  0.62592  0.58419  0.27123  1.0000
  C   C270      1.0  0.58185  0.62098  0.24870  1.0000
  S   S78       1.0  0.48922  0.77438  0.99453  1.0000
  C   C271      1.0  0.62266  0.64222  0.25341  1.0000
  H   H453      1.0  0.52232  0.77376  0.17205  1.0000
  H   H454      1.0  0.63736  0.67302  0.24841  1.0000
  C   C272      1.0  0.58487  0.56302  0.26709  1.0000
  C   C273      1.0  0.59003  0.88307  0.14827  1.0000
  C   C274      1.0  0.61610  0.49421  0.20077  1.0000
  H   H455      1.0  0.67667  0.63999  0.26703  1.0000
  C   C275      1.0  0.56294  0.58116  0.25528  1.0000
  C   C276      1.0  0.64484  0.62364  0.26407  1.0000
  H   H456      1.0  0.60633  0.95793  0.98955  1.0000
  H   H457      1.0  0.53065  0.87939  0.15148  1.0000
  C   C277      1.0  0.48325  0.82961  0.12227  1.0000
  C   C278      1.0  0.52417  0.71527  0.10069  1.0000
  H   H458      1.0  0.61073  0.91466  0.14657  1.0000
  H   H459      1.0  0.52118  0.82079  0.17423  1.0000
  H   H460      1.0  0.55413  0.71735  0.09789  1.0000
  H   H461      1.0  0.60582  0.86683  0.14001  1.0000
  H   H462      1.0  0.49307  0.59259  0.04810  1.0000
  H   H463      1.0  0.62423  0.54055  0.22865  1.0000
  H   H464      1.0  0.51555  0.68423  0.13552  1.0000
  H   H465      1.0  0.55519  0.90160  0.12326  1.0000
  S   S79       1.0  0.65496  0.56111  0.28293  1.0000
  H   H466      1.0  0.62892  0.49807  0.24079  1.0000
  C   C279      1.0  0.54955  0.87647  0.13621  1.0000
  S   S80       1.0  0.53491  0.75317  0.05620  1.0000
  C   C280      1.0  0.57420  0.53130  0.19152  1.0000
  H   H467      1.0  0.60702  0.87443  0.09892  1.0000
  C   C281      1.0  0.51422  0.63909  0.30440  1.0000
  H   H468      1.0  0.54434  0.48053  0.15709  1.0000
  C   C282      1.0  0.60737  0.56392  0.17638  1.0000
  H   H469      1.0  0.51503  0.77691  0.12544  1.0000
  C   C283      1.0  0.48980  0.97355  0.05855  1.0000
  H   H470      1.0  0.58610  0.87666  0.16848  1.0000
  H   H471      1.0  0.52418  0.65204  0.28563  1.0000
  H   H472      1.0  0.57478  0.54299  0.21027  1.0000
  H   H473      1.0  0.54495  0.52816  0.18384  1.0000
  C   C284      1.0  0.48381  0.93461  0.05550  1.0000
  H   H474      1.0  0.52503  0.49942  0.23259  1.0000
  H   H475      1.0  0.56147  0.80715  0.13783  1.0000
  H   H476      1.0  0.56277  0.48471  0.24492  1.0000
  C   C285      1.0  0.51205  0.79436  0.16269  1.0000
  S   S81       1.0  0.51562  0.62571  0.16894  1.0000
  H   H477      1.0  0.60462  0.59191  0.17914  1.0000
  H   H478      1.0  0.63775  0.56856  0.18252  1.0000
  H   H479      1.0  0.60405  0.55805  0.15624  1.0000
  H   H480      1.0  0.59651  0.49549  0.15385  1.0000
  H   H481      1.0  0.53171  0.63328  0.07735  1.0000
  S   S82       1.0  0.52521  0.92338  0.05296  1.0000
  H   H482      1.0  0.59058  0.82127  0.10155  1.0000
  H   H483      1.0  0.57032  0.53265  0.27289  1.0000
  C   C286      1.0  0.58491  0.84530  0.09292  1.0000
  H   H484      1.0  0.53478  0.63913  0.11001  1.0000
  H   H485      1.0  0.48181  0.97704  0.00514  1.0000
  C   C287      1.0  0.63438  0.51772  0.22435  1.0000
  N   N19       1.0  0.57624  0.49211  0.19202  1.0000
  Fe  Fe42      1.0  0.48446  0.56072  0.16431  1.0000
  C   C288      1.0  0.50737  0.73135  0.08303  1.0000
  C   C289      1.0  0.53024  0.80383  0.13637  1.0000
  N   N20       1.0  0.52721  0.83811  0.12322  1.0000
  H   H486      1.0  0.52187  0.81383  0.08664  1.0000
  H   H487      1.0  0.47883  0.77900  0.16205  1.0000
  H   H488      1.0  0.63937  0.50620  0.18595  1.0000
  S   S83       1.0  0.50304  0.52985  0.13504  1.0000
  S   S84       1.0  0.48538  0.86107  0.99271  1.0000
  H   H489      1.0  0.52844  0.54629  0.30323  1.0000
  H   H490      1.0  0.53639  0.95230  0.00084  1.0000
  H   H491      1.0  0.48660  0.53847  0.07848  1.0000
  H   H492      1.0  0.53254  0.59516  0.09769  1.0000
  H   H493      1.0  0.50025  0.58548  0.28456  1.0000
  H   H494      1.0  0.57645  0.61483  0.30766  1.0000
  H   H495      1.0  0.49011  0.89022  0.11436  1.0000
  S   S85       1.0  0.48055  0.54634  0.20487  1.0000
  C   C290      1.0  0.49044  0.59421  0.30202  1.0000
  H   H496      1.0  0.48868  0.65188  0.06074  1.0000
  H   H497      1.0  0.49442  0.65249  0.31114  1.0000
  Fe  Fe43      1.0  0.52970  0.83658  0.98442  1.0000
  H   H498      1.0  0.54149  0.64875  0.31578  1.0000
  S   S86       1.0  0.82372  0.49803  0.54542  1.0000
  H   H499      1.0  0.82256  0.61499  0.50934  1.0000
  S   S87       1.0  0.94280  0.56142  0.54988  1.0000
  S   S88       1.0  0.87379  0.52441  0.49248  1.0000
  C   C291      1.0  0.78351  0.52489  0.44629  1.0000
  H   H500      1.0  0.96336  0.69100  0.53341  1.0000
  C   C292      1.0  0.94423  0.56562  0.58231  1.0000
  C   C293      1.0  0.49303  0.58719  0.34830  1.0000
  H   H501      1.0  0.87169  0.65069  0.47275  1.0000
  H   H502      1.0  0.96473  0.51119  0.62617  1.0000
  C   C294      1.0  0.75483  0.52400  0.46355  1.0000
  S   S89       1.0  0.64674  0.55478  0.35520  1.0000
  H   H503      1.0  0.93051  0.65084  0.49594  1.0000
  C   C295      1.0  0.71072  0.52372  0.42987  1.0000
  Fe  Fe44      1.0  0.66891  0.50959  0.36580  1.0000
  S   S90       1.0  0.76403  0.52352  0.49541  1.0000
  H   H504      1.0  0.88077  0.53238  0.58790  1.0000
  H   H505      1.0  0.82599  0.62301  0.56421  1.0000
  S   S91       1.0  0.73054  0.52326  0.38069  1.0000
  C   C296      1.0  0.90927  0.54879  0.59665  1.0000
  C   C297      1.0  0.56980  0.59414  0.32359  1.0000
  H   H506      1.0  0.90108  0.68588  0.54593  1.0000
  Fe  Fe45      1.0  0.58598  0.50833  0.36588  1.0000
  H   H507      1.0  0.68253  0.52306  0.42358  1.0000
  C   C298      1.0  0.88279  0.67237  0.52931  1.0000
  C   C299      1.0  0.71858  0.52374  0.45533  1.0000
  H   H508      1.0  0.81154  0.52512  0.45249  1.0000
  C   C300      1.0  0.91114  0.55353  0.62244  1.0000
  C   C301      1.0  0.73957  0.52491  0.41263  1.0000
  H   H509      1.0  0.85219  0.66854  0.53475  1.0000
  H   H510      1.0  0.87769  0.58216  0.54513  1.0000
  H   H511      1.0  0.91975  0.70261  0.49619  1.0000
  H   H512      1.0  0.95740  0.64604  0.54940  1.0000
  C   C302      1.0  0.87392  0.60966  0.54775  1.0000
  S   S92       1.0  0.66069  0.48426  0.32783  1.0000
  C   C303      1.0  0.85029  0.61082  0.50563  1.0000
  C   C304      1.0  0.89575  0.70328  0.50818  1.0000
  H   H513      1.0  0.89536  0.62573  0.56252  1.0000
  C   C305      1.0  0.94799  0.57449  0.63407  1.0000
  H   H514      1.0  0.79845  0.52682  0.40755  1.0000
  H   H515      1.0  0.88400  0.54051  0.63339  1.0000
  H   H516      1.0  0.59286  0.58239  0.32297  1.0000
  H   H517      1.0  0.69640  0.52317  0.46868  1.0000
  H   H518      1.0  0.90874  0.73301  0.51628  1.0000
  H   H519      1.0  0.92803  0.48275  0.57944  1.0000
  H   H520      1.0  0.82907  0.57998  0.57614  1.0000
  S   S93       1.0  0.54058  0.52382  0.38525  1.0000
  H   H521      1.0  0.51866  0.61618  0.34998  1.0000
  Fe  Fe46      1.0  0.80957  0.50040  0.50517  1.0000
  C   C306      1.0  0.77611  0.52594  0.42088  1.0000
  H   H522      1.0  0.57395  0.60945  0.34144  1.0000
  C   C307      1.0  0.92299  0.63693  0.51457  1.0000
  Fe  Fe47      1.0  0.88703  0.51645  0.53233  1.0000
  H   H523      1.0  0.86966  0.70031  0.49665  1.0000
  H   H524      1.0  0.92226  0.60729  0.51203  1.0000
  N   N21       1.0  0.88283  0.63325  0.52384  1.0000
  H   H525      1.0  0.84133  0.57882  0.50796  1.0000
  H   H526      1.0  0.80761  0.57826  0.54643  1.0000
  H   H527      1.0  0.88113  0.60725  0.47142  1.0000
  C   C308      1.0  0.83160  0.59743  0.55892  1.0000
  H   H528      1.0  0.83192  0.60400  0.46713  1.0000
  H   H529      1.0  0.52657  0.53733  0.33550  1.0000
  C   C309      1.0  0.85997  0.61931  0.47778  1.0000
  Fe  Fe48      1.0  0.63389  0.52599  0.31820  1.0000
  S   S94       1.0  0.57119  0.48348  0.32774  1.0000
  C   C310      1.0  0.52824  0.55969  0.32131  1.0000
  H   H530      1.0  0.49801  0.56933  0.36336  1.0000
  C   C311      1.0  0.95924  0.66033  0.53107  1.0000
  C   C312      1.0  0.49466  0.48330  0.39072  1.0000
  C   C313      1.0  0.94925  0.47875  0.62799  1.0000
  N   N22       1.0  0.49234  0.56893  0.32352  1.0000
  H   H531      1.0  0.96068  0.48607  0.55447  1.0000
  S   S95       1.0  0.56112  0.84909  0.94756  1.0000
  C   C314      1.0  0.83575  0.51604  0.74046  1.0000
  H   H532      1.0  0.56691  0.95398  0.85445  1.0000
  H   H533      1.0  0.54654  0.89538  0.79298  1.0000
  H   H534      1.0  0.61173  0.95692  0.83918  1.0000
  H   H535      1.0  0.50873  0.97367  0.84057  1.0000
  C   C315      1.0  0.56753  0.92043  0.93066  1.0000
  H   H536      1.0  0.53530  0.90672  0.92884  1.0000
  H   H537      1.0  0.60876  0.89915  0.85431  1.0000
  C   C316      1.0  0.58454  0.90480  0.86338  1.0000
  N   N23       1.0  0.54403  0.87350  0.85639  1.0000
  H   H538      1.0  0.51888  0.81160  0.84765  1.0000
  H   H539      1.0  0.90543  0.54489  0.76573  1.0000
  H   H540      1.0  0.83972  0.50877  0.76003  1.0000
  N   N24       1.0  0.85987  0.50270  0.72343  1.0000
  C   C317      1.0  0.78994  0.49945  0.73603  1.0000
  H   H541      1.0  0.92259  0.52106  0.71359  1.0000
  C   C318      1.0  0.55693  0.81897  0.87930  1.0000
  H   H542      1.0  0.53097  0.80827  0.89229  1.0000
  C   C319      1.0  0.58728  0.89921  0.94106  1.0000
  H   H543      1.0  0.64416  0.90072  0.95187  1.0000
  C   C320      1.0  0.54728  0.83487  0.85480  1.0000
  C   C321      1.0  0.62882  0.91712  0.94392  1.0000
  C   C322      1.0  0.52947  0.88116  0.83164  1.0000
  H   H544      1.0  0.55248  0.85319  0.80403  1.0000
  H   H545      1.0  0.58968  0.90359  0.88362  1.0000
  C   C323      1.0  0.55608  0.88292  0.80918  1.0000
  C   C324      1.0  0.49551  0.96850  0.82236  1.0000
  H   H546      1.0  0.57113  0.83697  0.84142  1.0000
  H   H547      1.0  0.57457  0.97502  0.91338  1.0000
  H   H548      1.0  0.52598  0.90895  0.83127  1.0000
  H   H549      1.0  0.56347  0.79339  0.87530  1.0000
  C   C325      1.0  0.65065  0.95620  0.93642  1.0000
  H   H550      1.0  0.58355  0.84095  0.88868  1.0000
  H   H551      1.0  0.95277  0.55771  0.75161  1.0000
  C   C326      1.0  0.63130  0.97695  0.92501  1.0000
  H   H552      1.0  0.61234  0.96719  0.87093  1.0000
  H   H553      1.0  0.92379  0.50805  0.75919  1.0000
  H   H554      1.0  0.90957  0.56032  0.71950  1.0000
  C   C327      1.0  0.50274  0.97008  0.77778  1.0000
  C   C328      1.0  0.58966  0.95898  0.92197  1.0000
  H   H555      1.0  0.84751  0.54864  0.73970  1.0000
  H   H556      1.0  0.68277  0.97015  0.93906  1.0000
  H   H557      1.0  0.87442  0.56786  0.68936  1.0000
  S   S96       1.0  0.94932  0.57894  0.66648  1.0000
  C   C329      1.0  0.84624  0.54118  0.68716  1.0000
  H   H558      1.0  0.87202  0.49950  0.68442  1.0000
  C   C330      1.0  0.92155  0.53485  0.75221  1.0000
  C   C331      1.0  0.90374  0.53019  0.72587  1.0000
  H   H559      1.0  0.52380  0.86472  0.89463  1.0000
  H   H560      1.0  0.49875  0.85821  0.82794  1.0000
  C   C332      1.0  0.59335  0.94760  0.85637  1.0000
  H   H561      1.0  0.52318  0.92918  0.88421  1.0000
  C   C333      1.0  0.52004  0.97696  0.80129  1.0000
  H   H562      1.0  0.58813  0.90196  0.81243  1.0000
  C   C334      1.0  0.51299  0.86845  0.87599  1.0000
  C   C335      1.0  0.49878  0.90130  0.87839  1.0000
  H   H563      1.0  0.83965  0.53847  0.66704  1.0000
  H   H564      1.0  0.78077  0.52391  0.73380  1.0000
  H   H565      1.0  0.96462  0.48572  0.72686  1.0000
  H   H566      1.0  0.62909  0.97803  0.73190  1.0000
  H   H567      1.0  0.53540  0.95717  0.96846  1.0000
  C   C336      1.0  0.84946  0.50359  0.69643  1.0000
  H   H568      1.0  0.52154  0.97632  0.76144  1.0000
  H   H569      1.0  0.82149  0.54553  0.69619  1.0000
  H   H570      1.0  0.48397  0.90524  0.86139  1.0000
  H   H571      1.0  0.48571  0.84100  0.87272  1.0000
  H   H572      1.0  0.96708  0.48443  0.66715  1.0000
  H   H573      1.0  0.47869  0.97734  0.97173  1.0000
  H   H574      1.0  0.77326  0.48190  0.75239  1.0000
  H   H575      1.0  0.91764  0.47939  0.66177  1.0000
  H   H576      1.0  0.77922  0.48088  0.71958  1.0000
