data_image0
_chemical_formula_structural       FeS2FeS2FeSFeS3CFeS2FeSHFeSFeHS2FeS2FeS2FeSFeS3FeH2FeS2FeSFeHS2HS2HCFeSH3C2HCH4C6H4C6H4CH3CH3C6H8C7H4C4H4CHC6H4C6HCH3NC8H20C4HC2HCSH2CHCH4NCHC2HCH3CH2C2NH8N2C8H20NC5HCH11CHCH2SCH3SH3CH3CH5CHNCH3CH2CH6CHC2H4CH3NCH2CHCH2C2HSC3FeC2HCHCHCHSH3SHCHCHSH5FeH2NH4CHCH2CH8CHCFeH3CHFeHCH4C3S2H2CHSH2CHC2H2SH3SHC2HCH2CH3NCFeS2FeS2FeSFeS3CH5SC3H4CFeHSH3SC2H2CH2SH3SH2FeH2CHCH3C3HCHCH2C2H5C9HCH2CH2CH3C2FeC3HFeHC3HC2H2NC8H21C2H2C4H4C2H3C2HNH7NCH5C2H4SCHCH3C2H2SCHCHCSH4CNCH2C2H5CHCH2CHNH5FeSHSCSCFeSHFeSFeS3CH2C4H2CHSH3CH2C6H4C2H2CH5SHFe2C5HSHCH2CH5NH4CHSC3HC3HFeHCH7CSHCHCHCHNHCHCNH2CFeH2CSHCH4SH7C2H4CH3CH4CH2C2H2SHSHC2HC3H5CH2SH2C2HC2FeH2CH2CSCH4SC3HSC2HC4H8C2H2C2SHNH5CH2FeSHFeS2H2FeS3FeS2FeHFe2S5FeSFeSFeS2FeS2FeSFeS3FeSHFeS2FeSFeS3H2CHC6H4C6H5C3HC6H4C6H4C2H2FeSCH2C6H4C3H6C2H2C2HNH3SC2H3CH2CHCH2CH3CHCNH3CH3C2H3NC5H15NC6H2CH4C2NH8C2H2NC7H19NHCNHCH2CH3SHCHCHCH2CHC4HCH2CH3CHCSCH3CHCHCH2C2HC3H9CFeCH5CHCHCHSHCHCH6NCH2CHCH4CHCH6CH11FeH10FeS2HC2H6C2HC4H3C2H2CH6CH4CH3CHSC2H2NHC3H2CH2NH2C2H2C2SHCNCSH5C3H8FeSFeS3FeS2FeS2FeSFeS3FeSFeHCNS2FeS2FeS2FeHFeS3FeS2CSHC2FeH2SH8CH4NSHNH3CH2CH3C6H4C6H4C6H4C6H4C6H7CH3C2HC4H4CHC2HFeHFeC3NC8H20NC8H18CHCHC2H3SH2SNHSHSH2CH2FeC9HCH5CHCH2CH3SHFeSCH2FeHC3HCH3C2SCHCH7CH2NCHCH3CHFeSH11CH2CH3CH2C2H7C2H2NH3CHC2HCH2CH3CFeS2Fe2HFeSHS2FeCFeSCSH2SCHCHC2H4SCHCH4FeH9CH3C3HCHC6H4C2HNCHCH2CHCH4CNSH2CH3CH2CH2CHSH4C3SHSCH4SH3CFeCSCSHCHCHCHCHC2H5NC6H6SH4CH8CHCHCSC2H4CHCH4CH2NHCH4CH2CHNCSCSCH4FeCS2CSHFeSHFeSCFeSFeS3C6H5NCHCHCHC4H7C2HCHCH4SHCHC3HNH2CHC3H3CSC2H6C2H3CHFeHC2HSH4C2H2CH3CHCH2C2H2CH5CHCH2NC2HSH2SH3CHCH2C2HCH3CFeCH5CH2FeCHSHNHCHC3H2CH7CH4CH3CHCHCNC3HSHCFeS2FeS2FeSFeS3HCH4FeS2FeCFeSCSFeS2FeS2FeSFeS3FeS2H3FeS2C6H4CH3C6H5C6H6C7H4C6H4C6H4C6H5SHNC2HC2H11C2HCHCH2CHCH6CH4CH3CN2C2H3CH6CH2CH8FeH2SNC5H15NC8H12CSCH3FeCHCHSFeCH4C2HCSHN2CH4SH3FeH2CH5SHCH2CH6FeH2CH4C2H2CHS2CSHC2H2FeHCHSC2HCH2CHC3HCH2CH2CH3CHCH7CH2SHSHCH2C2HC2NFeHC5H4CHCHFeCH5CSCHSHCSHSH5CH2CH2CHCHC2H4CH4CH3CH2NH2CH3C
_chemical_formula_sum              "Fe116 S232 C812 H1392 N58"
_cell_length_a       56.0777
_cell_length_b       56.3631
_cell_length_c       50.8687
_cell_angle_alpha    81.458
_cell_angle_beta     82.6586
_cell_angle_gamma    81.0473

_space_group_name_H-M_alt    "P 1"
_space_group_IT_number       1

loop_
  _space_group_symop_operation_xyz
  'x, y, z'

loop_
  _atom_site_type_symbol
  _atom_site_label
  _atom_site_symmetry_multiplicity
  _atom_site_fract_x
  _atom_site_fract_y
  _atom_site_fract_z
  _atom_site_occupancy
  Fe  Fe1       1.0  0.10169  0.11402  0.15394  1.0000
  S   S1        1.0  0.07974  0.11679  0.19377  1.0000
  S   S2        1.0  0.09239  0.09659  0.11966  1.0000
  Fe  Fe2       1.0  0.14394  0.13532  0.17032  1.0000
  S   S3        1.0  0.12551  0.13967  0.21130  1.0000
  S   S4        1.0  0.18274  0.14262  0.16222  1.0000
  Fe  Fe3       1.0  0.11491  0.10304  0.21128  1.0000
  S   S5        1.0  0.11727  0.07222  0.24495  1.0000
  Fe  Fe4       1.0  0.09224  0.15318  0.19041  1.0000
  S   S6        1.0  0.06846  0.18655  0.20230  1.0000
  S   S7        1.0  0.13604  0.09733  0.17183  1.0000
  S   S8        1.0  0.11155  0.15190  0.14893  1.0000
  C   C1        1.0  0.01756  0.08507  0.04285  1.0000
  Fe  Fe5       1.0  0.23622  0.26186  0.15875  1.0000
  S   S9        1.0  0.24050  0.24955  0.20193  1.0000
  S   S10       1.0  0.20945  0.24908  0.13612  1.0000
  Fe  Fe6       1.0  0.27472  0.29541  0.15292  1.0000
  S   S11       1.0  0.28242  0.28592  0.19564  1.0000
  H   H1        1.0  0.15889  0.31212  0.41361  1.0000
  Fe  Fe7       1.0  0.28050  0.24792  0.18948  1.0000
  S   S12       1.0  0.30742  0.21851  0.20789  1.0000
  Fe  Fe8       1.0  0.24203  0.28847  0.20473  1.0000
  H   H2        1.0  0.13861  0.24989  0.23778  1.0000
  S   S13       1.0  0.27632  0.25677  0.14580  1.0000
  S   S14       1.0  0.23415  0.30148  0.16239  1.0000
  Fe  Fe9       1.0  0.24637  0.11799  0.29044  1.0000
  S   S15       1.0  0.24314  0.07913  0.30567  1.0000
  S   S16       1.0  0.25078  0.12964  0.24634  1.0000
  Fe  Fe10      1.0  0.23716  0.13351  0.34539  1.0000
  S   S17       1.0  0.23307  0.09605  0.36561  1.0000
  S   S18       1.0  0.23703  0.16260  0.37102  1.0000
  Fe  Fe11      1.0  0.26541  0.08448  0.33748  1.0000
  S   S19       1.0  0.29595  0.05612  0.35050  1.0000
  Fe  Fe12      1.0  0.21118  0.09435  0.33212  1.0000
  S   S20       1.0  0.17714  0.07686  0.34103  1.0000
  S   S21       1.0  0.27145  0.12217  0.31976  1.0000
  S   S22       1.0  0.21236  0.13300  0.31429  1.0000
  Fe  Fe13      1.0  0.06979  0.27966  0.34949  1.0000
  H   H3        1.0  0.04358  0.02334  0.18779  1.0000
  H   H4        1.0  0.26911  0.26728  0.27459  1.0000
  Fe  Fe14      1.0  0.08436  0.23168  0.32714  1.0000
  S   S23       1.0  0.12166  0.23995  0.31072  1.0000
  S   S24       1.0  0.07512  0.19502  0.32339  1.0000
  Fe  Fe15      1.0  0.12174  0.25441  0.34934  1.0000
  S   S25       1.0  0.15247  0.25038  0.37463  1.0000
  Fe  Fe16      1.0  0.10221  0.27675  0.29727  1.0000
  H   H5        1.0  0.08899  0.31747  0.41486  1.0000
  S   S26       1.0  0.08617  0.24279  0.36728  1.0000
  S   S27       1.0  0.06469  0.26745  0.31069  1.0000
  H   H6        1.0  0.15048  0.31897  0.47449  1.0000
  S   S28       1.0  0.37393  0.01604  0.45274  1.0000
  S   S29       1.0  0.42284  0.04185  0.43216  1.0000
  H   H7        1.0  0.39022  0.30623  0.20734  1.0000
  C   C2        1.0  0.43947  0.16234  0.42717  1.0000
  Fe  Fe17      1.0  0.38419  0.05340  0.44736  1.0000
  S   S30       1.0  0.36089  0.08638  0.42919  1.0000
  H   H8        1.0  0.25562  0.23527  0.32379  1.0000
  H   H9        1.0  0.02828  0.05778  0.20305  1.0000
  H   H10       1.0  0.12356  0.14488  0.30718  1.0000
  C   C3        1.0  0.06774  0.05595  0.20508  1.0000
  C   C4        1.0  0.19321  0.30110  0.24628  1.0000
  H   H11       1.0  0.13227  0.03607  0.16365  1.0000
  C   C5        1.0  0.40042  0.32186  0.13941  1.0000
  H   H12       1.0  0.18046  0.24325  0.23006  1.0000
  H   H13       1.0  0.28076  0.01481  0.42019  1.0000
  H   H14       1.0  0.02716  0.07788  0.02458  1.0000
  H   H15       1.0  0.14646  0.20871  0.25755  1.0000
  C   C6        1.0  0.21239  0.18583  0.37214  1.0000
  C   C7        1.0  0.19458  0.18892  0.35451  1.0000
  C   C8        1.0  0.17599  0.20882  0.35486  1.0000
  C   C9        1.0  0.17515  0.22531  0.37313  1.0000
  C   C10       1.0  0.19295  0.22208  0.39070  1.0000
  C   C11       1.0  0.21152  0.20244  0.39018  1.0000
  H   H16       1.0  0.19564  0.17648  0.34011  1.0000
  H   H17       1.0  0.16248  0.21153  0.34093  1.0000
  H   H18       1.0  0.19245  0.23486  0.40473  1.0000
  H   H19       1.0  0.22538  0.20022  0.40367  1.0000
  C   C12       1.0  0.31514  0.06602  0.37011  1.0000
  C   C13       1.0  0.30887  0.08818  0.38028  1.0000
  C   C14       1.0  0.32345  0.09480  0.39773  1.0000
  C   C15       1.0  0.34423  0.07924  0.40513  1.0000
  C   C16       1.0  0.35092  0.05750  0.39423  1.0000
  C   C17       1.0  0.33637  0.05090  0.37680  1.0000
  H   H20       1.0  0.29251  0.09996  0.37516  1.0000
  H   H21       1.0  0.31828  0.11170  0.40599  1.0000
  H   H22       1.0  0.36719  0.04561  0.39940  1.0000
  H   H23       1.0  0.34143  0.03388  0.36874  1.0000
  C   C18       1.0  0.14455  0.24703  0.21662  1.0000
  H   H24       1.0  0.15677  0.12721  0.33536  1.0000
  H   H25       1.0  0.12831  0.18490  0.25949  1.0000
  H   H26       1.0  0.09855  0.26898  0.17358  1.0000
  C   C19       1.0  0.15595  0.29488  0.27469  1.0000
  H   H27       1.0  0.32092  0.03543  0.43312  1.0000
  H   H28       1.0  0.14665  0.29101  0.29441  1.0000
  H   H29       1.0  0.43136  0.11519  0.39487  1.0000
  C   C20       1.0  0.29268  0.19316  0.21854  1.0000
  C   C21       1.0  0.30067  0.17561  0.23924  1.0000
  C   C22       1.0  0.28779  0.15595  0.24831  1.0000
  C   C23       1.0  0.26731  0.15379  0.23622  1.0000
  C   C24       1.0  0.25982  0.17105  0.21522  1.0000
  C   C25       1.0  0.27224  0.19088  0.20664  1.0000
  H   H30       1.0  0.31655  0.17737  0.24845  1.0000
  H   H31       1.0  0.29385  0.14238  0.26434  1.0000
  H   H32       1.0  0.24419  0.16922  0.20583  1.0000
  H   H33       1.0  0.26631  0.20414  0.19034  1.0000
  H   H34       1.0  0.17364  0.12185  0.40831  1.0000
  H   H35       1.0  0.14821  0.04259  0.33090  1.0000
  H   H36       1.0  0.12439  0.04105  0.29358  1.0000
  H   H37       1.0  0.12766  0.21903  0.14123  1.0000
  C   C26       1.0  0.15354  0.30056  0.46842  1.0000
  C   C27       1.0  0.06753  0.18807  0.23670  1.0000
  C   C28       1.0  0.05989  0.21025  0.24650  1.0000
  C   C29       1.0  0.06210  0.21247  0.27315  1.0000
  C   C30       1.0  0.07089  0.19223  0.29043  1.0000
  C   C31       1.0  0.07699  0.16967  0.28110  1.0000
  C   C32       1.0  0.07572  0.16767  0.25415  1.0000
  H   H38       1.0  0.05281  0.22593  0.23333  1.0000
  H   H39       1.0  0.05678  0.22981  0.28036  1.0000
  H   H40       1.0  0.08313  0.15382  0.29454  1.0000
  H   H41       1.0  0.08089  0.15029  0.24696  1.0000
  C   C33       1.0  0.13288  0.07508  0.27201  1.0000
  C   C34       1.0  0.14533  0.09480  0.27197  1.0000
  C   C35       1.0  0.15956  0.09528  0.29272  1.0000
  C   C36       1.0  0.16078  0.07632  0.31391  1.0000
  H   H42       1.0  0.09063  0.17149  0.39665  1.0000
  H   H43       1.0  0.08121  0.27515  0.41692  1.0000
  H   H44       1.0  0.14432  0.10948  0.25580  1.0000
  H   H45       1.0  0.16944  0.11034  0.29239  1.0000
  C   C37       1.0  0.45322  0.10956  0.44198  1.0000
  H   H46       1.0  0.24110  0.24950  0.25946  1.0000
  C   C38       1.0  0.18724  0.17321  0.15722  1.0000
  C   C39       1.0  0.17827  0.18903  0.13574  1.0000
  C   C40       1.0  0.18508  0.21236  0.12963  1.0000
  C   C41       1.0  0.20068  0.22006  0.14512  1.0000
  C   C42       1.0  0.20923  0.20439  0.16697  1.0000
  C   C43       1.0  0.20252  0.18100  0.17291  1.0000
  H   H47       1.0  0.16672  0.18301  0.12330  1.0000
  H   H48       1.0  0.17841  0.22441  0.11271  1.0000
  H   H49       1.0  0.22117  0.21018  0.17908  1.0000
  H   H50       1.0  0.20924  0.16873  0.18956  1.0000
  C   C44       1.0  0.06721  0.08076  0.12174  1.0000
  C   C45       1.0  0.06722  0.06426  0.10357  1.0000
  C   C46       1.0  0.04806  0.05044  0.10541  1.0000
  C   C47       1.0  0.02870  0.05312  0.12546  1.0000
  C   C48       1.0  0.02827  0.07021  0.14306  1.0000
  C   C49       1.0  0.04737  0.08410  0.14113  1.0000
  H   H51       1.0  0.08239  0.06178  0.08833  1.0000
  C   C50       1.0  0.42620  0.31314  0.19009  1.0000
  H   H52       1.0  0.01314  0.07262  0.15835  1.0000
  H   H53       1.0  0.04683  0.09727  0.15472  1.0000
  H   H54       1.0  0.11577  0.19731  0.21627  1.0000
  N   N1        1.0  0.20901  0.07152  0.22062  1.0000
  C   C51       1.0  0.22513  0.04873  0.23032  1.0000
  C   C52       1.0  0.21861  0.08066  0.19253  1.0000
  C   C53       1.0  0.18329  0.06681  0.22065  1.0000
  C   C54       1.0  0.20894  0.08994  0.23929  1.0000
  C   C55       1.0  0.21607  0.03503  0.25747  1.0000
  C   C56       1.0  0.24423  0.08828  0.18917  1.0000
  C   C57       1.0  0.17978  0.04708  0.20404  1.0000
  C   C58       1.0  0.19743  0.11608  0.22988  1.0000
  H   H55       1.0  0.22844  0.03579  0.21529  1.0000
  H   H56       1.0  0.24344  0.05289  0.23274  1.0000
  H   H57       1.0  0.20596  0.09623  0.18389  1.0000
  H   H58       1.0  0.21963  0.06656  0.17914  1.0000
  H   H59       1.0  0.17502  0.06181  0.24136  1.0000
  H   H60       1.0  0.17163  0.08352  0.21290  1.0000
  H   H61       1.0  0.19914  0.08440  0.25905  1.0000
  H   H62       1.0  0.22764  0.09067  0.24381  1.0000
  H   H63       1.0  0.22994  0.01932  0.26296  1.0000
  H   H64       1.0  0.21357  0.04645  0.27386  1.0000
  H   H65       1.0  0.19901  0.02764  0.25665  1.0000
  H   H66       1.0  0.25834  0.07256  0.19358  1.0000
  H   H67       1.0  0.24855  0.09605  0.16803  1.0000
  H   H68       1.0  0.24564  0.10244  0.20161  1.0000
  H   H69       1.0  0.18410  0.05261  0.18232  1.0000
  H   H70       1.0  0.16030  0.04455  0.20713  1.0000
  H   H71       1.0  0.19034  0.02930  0.21033  1.0000
  H   H72       1.0  0.20859  0.12481  0.21269  1.0000
  H   H73       1.0  0.19643  0.12720  0.24638  1.0000
  H   H74       1.0  0.17875  0.11715  0.22460  1.0000
  C   C59       1.0  0.09997  0.27907  0.41735  1.0000
  C   C60       1.0  0.47348  0.11286  0.45848  1.0000
  C   C61       1.0  0.13099  0.29420  0.45792  1.0000
  C   C62       1.0  0.40079  0.30715  0.18723  1.0000
  H   H75       1.0  0.28962  0.24671  0.25675  1.0000
  C   C63       1.0  0.12972  0.20406  0.25127  1.0000
  C   C64       1.0  0.13063  0.20666  0.22058  1.0000
  H   H76       1.0  0.03690  0.08202  0.21681  1.0000
  C   C65       1.0  0.36008  0.29143  0.16295  1.0000
  S   S31       1.0  0.29643  0.31952  0.12297  1.0000
  H   H77       1.0  0.18080  0.24590  0.19424  1.0000
  H   H78       1.0  0.06501  0.03516  0.16267  1.0000
  C   C66       1.0  0.14332  0.29804  0.25217  1.0000
  H   H79       1.0  0.40342  0.28823  0.18232  1.0000
  C   C67       1.0  0.15557  0.30331  0.22669  1.0000
  H   H80       1.0  0.08606  0.30212  0.44736  1.0000
  H   H81       1.0  0.11367  0.21523  0.26038  1.0000
  H   H82       1.0  0.15482  0.22184  0.17409  1.0000
  H   H83       1.0  0.13546  0.27497  0.45414  1.0000
  N   N2        1.0  0.12848  0.23225  0.20636  1.0000
  C   C68       1.0  0.12028  0.21849  0.16260  1.0000
  H   H84       1.0  0.41005  0.09441  0.43768  1.0000
  C   C69       1.0  0.41342  0.12248  0.40448  1.0000
  C   C70       1.0  0.09867  0.30322  0.42858  1.0000
  H   H85       1.0  0.11131  0.00719  0.19599  1.0000
  C   C71       1.0  0.36179  0.31719  0.16889  1.0000
  H   H86       1.0  0.37483  0.28449  0.14831  1.0000
  H   H87       1.0  0.25261  0.24112  0.09097  1.0000
  H   H88       1.0  0.22392  0.26641  0.33360  1.0000
  C   C72       1.0  0.18066  0.30411  0.22369  1.0000
  H   H89       1.0  0.11278  0.03428  0.20903  1.0000
  H   H90       1.0  0.29550  0.07064  0.44287  1.0000
  C   C73       1.0  0.10354  0.02669  0.19472  1.0000
  C   C74       1.0  0.04089  0.06216  0.21611  1.0000
  N   N3        1.0  0.29041  0.03501  0.46374  1.0000
  H   H91       1.0  0.22794  0.26994  0.29779  1.0000
  H   H92       1.0  0.07621  0.27534  0.20076  1.0000
  H   H93       1.0  0.14576  0.30638  0.20925  1.0000
  H   H94       1.0  0.20276  0.25586  0.31639  1.0000
  H   H95       1.0  0.07010  0.06726  0.18541  1.0000
  H   H96       1.0  0.14704  0.28665  0.40821  1.0000
  H   H97       1.0  0.05137  0.01325  0.23330  1.0000
  H   H98       1.0  0.07301  0.03918  0.25756  1.0000
  N   N4        1.0  0.42795  0.12086  0.45139  1.0000
  N   N5        1.0  0.27019  0.17969  0.11454  1.0000
  C   C75       1.0  0.26608  0.20694  0.11360  1.0000
  C   C76       1.0  0.27769  0.16926  0.14181  1.0000
  C   C77       1.0  0.24651  0.17165  0.11068  1.0000
  C   C78       1.0  0.28953  0.17340  0.09227  1.0000
  C   C79       1.0  0.25440  0.22149  0.08913  1.0000
  C   C80       1.0  0.30169  0.17604  0.14841  1.0000
  C   C81       1.0  0.24260  0.14544  0.12211  1.0000
  C   C82       1.0  0.29861  0.14629  0.09101  1.0000
  H   H99       1.0  0.25430  0.21235  0.13171  1.0000
  H   H100      1.0  0.28345  0.21408  0.11385  1.0000
  H   H101      1.0  0.27964  0.14922  0.14510  1.0000
  H   H102      1.0  0.26310  0.17498  0.15755  1.0000
  H   H103      1.0  0.23094  0.18316  0.12030  1.0000
  H   H104      1.0  0.24369  0.17421  0.08910  1.0000
  H   H105      1.0  0.28289  0.18046  0.07252  1.0000
  H   H106      1.0  0.30559  0.18290  0.09198  1.0000
  H   H107      1.0  0.34295  0.29172  0.15395  1.0000
  H   H108      1.0  0.26570  0.21874  0.07003  1.0000
  H   H109      1.0  0.42793  0.17973  0.42119  1.0000
  H   H110      1.0  0.30026  0.19559  0.15030  1.0000
  H   H111      1.0  0.30599  0.16605  0.16815  1.0000
  H   H112      1.0  0.31724  0.17077  0.13370  1.0000
  H   H113      1.0  0.25747  0.13171  0.11534  1.0000
  H   H114      1.0  0.22563  0.14158  0.11543  1.0000
  H   H115      1.0  0.23979  0.14321  0.14432  1.0000
  H   H116      1.0  0.28690  0.13837  0.07958  1.0000
  H   H117      1.0  0.30008  0.13540  0.11080  1.0000
  H   H118      1.0  0.31741  0.14431  0.08080  1.0000
  N   N6        1.0  0.24146  0.22061  0.29246  1.0000
  C   C83       1.0  0.21644  0.21846  0.28572  1.0000
  C   C84       1.0  0.11212  0.03913  0.16671  1.0000
  C   C85       1.0  0.25469  0.19528  0.29821  1.0000
  C   C86       1.0  0.25429  0.23480  0.26877  1.0000
  C   C87       1.0  0.21547  0.20296  0.26335  1.0000
  H   H119      1.0  0.12073  0.19912  0.17097  1.0000
  C   C88       1.0  0.13564  0.32000  0.38265  1.0000
  H   H120      1.0  0.29327  0.20000  0.29114  1.0000
  H   H121      1.0  0.20529  0.21074  0.30365  1.0000
  H   H122      1.0  0.20637  0.23665  0.27933  1.0000
  H   H123      1.0  0.24362  0.18425  0.31373  1.0000
  H   H124      1.0  0.25738  0.18590  0.28015  1.0000
  H   H125      1.0  0.26140  0.22301  0.25301  1.0000
  H   H126      1.0  0.27606  0.05467  0.41006  1.0000
  H   H127      1.0  0.22701  0.20867  0.24485  1.0000
  H   H128      1.0  0.22060  0.18334  0.26993  1.0000
  H   H129      1.0  0.19651  0.20507  0.25833  1.0000
  H   H130      1.0  0.45897  0.11638  0.42099  1.0000
  C   C89       1.0  0.17204  0.23783  0.21366  1.0000
  H   H131      1.0  0.10560  0.03177  0.15033  1.0000
  C   C90       1.0  0.13402  0.05631  0.29333  1.0000
  H   H132      1.0  0.08988  0.23216  0.20649  1.0000
  H   H133      1.0  0.17624  0.21789  0.21511  1.0000
  S   S32       1.0  0.04039  0.30064  0.37502  1.0000
  C   C91       1.0  0.14261  0.12875  0.38523  1.0000
  H   H134      1.0  0.09097  0.99417  0.16505  1.0000
  H   H135      1.0  0.16255  0.15618  0.33892  1.0000
  H   H136      1.0  0.24872  0.05229  0.43337  1.0000
  S   S33       1.0  0.11258  0.29421  0.25569  1.0000
  H   H137      1.0  0.10571  0.28297  0.20102  1.0000
  H   H138      1.0  0.44433  0.15333  0.40902  1.0000
  H   H139      1.0  0.01964  0.07006  0.05944  1.0000
  C   C92       1.0  0.10901  0.11147  0.35260  1.0000
  H   H140      1.0  0.31082  0.01260  0.40433  1.0000
  H   H141      1.0  0.14754  0.19543  0.21302  1.0000
  H   H142      1.0  0.16277  0.15334  0.40121  1.0000
  C   C93       1.0  0.07178  0.99660  0.17390  1.0000
  H   H143      1.0  0.14283  0.26561  0.20560  1.0000
  H   H144      1.0  0.03686  0.05326  0.23678  1.0000
  H   H145      1.0  0.11556  0.18346  0.35449  1.0000
  H   H146      1.0  0.10856  0.28020  0.39643  1.0000
  H   H147      1.0  0.09755  0.24598  0.23273  1.0000
  C   C94       1.0  0.14168  0.30621  0.41012  1.0000
  H   H148      1.0  0.13705  0.24995  0.16604  1.0000
  N   N7        1.0  0.07647  0.02966  0.20244  1.0000
  C   C95       1.0  0.08086  0.02073  0.25309  1.0000
  H   H149      1.0  0.10119  0.22739  0.16312  1.0000
  H   H150      1.0  0.04858  0.03731  0.09177  1.0000
  H   H151      1.0  0.22988  0.22102  0.33460  1.0000
  C   C96       1.0  0.27536  0.24763  0.27403  1.0000
  H   H152      1.0  0.18034  0.13689  0.37548  1.0000
  H   H153      1.0  0.32172  0.00838  0.45572  1.0000
  C   C97       1.0  0.22226  0.25768  0.31585  1.0000
  H   H154      1.0  0.43493  0.29909  0.20495  1.0000
  H   H155      1.0  0.25853  0.08081  0.42130  1.0000
  H   H156      1.0  0.40970  0.14245  0.39974  1.0000
  H   H157      1.0  0.14214  0.17891  0.37060  1.0000
  H   H158      1.0  0.15093  0.15712  0.29520  1.0000
  H   H159      1.0  0.12581  0.10648  0.33970  1.0000
  C   C98       1.0  0.16609  0.13596  0.39272  1.0000
  H   H160      1.0  0.12689  0.17519  0.31282  1.0000
  C   C99       1.0  0.13624  0.15645  0.31203  1.0000
  C   C100      1.0  0.14752  0.14573  0.33802  1.0000
  H   H161      1.0  0.23575  0.21756  0.08830  1.0000
  H   H162      1.0  0.14763  0.11022  0.37926  1.0000
  H   H163      1.0  0.12988  0.12630  0.40377  1.0000
  H   H164      1.0  0.09396  0.11060  0.34067  1.0000
  C   C101      1.0  0.28015  0.19280  0.30740  1.0000
  H   H165      1.0  0.43246  0.15204  0.46939  1.0000
  H   H166      1.0  0.99072  0.10499  0.11457  1.0000
  H   H167      1.0  0.10833  0.19420  0.40013  1.0000
  N   N8        1.0  0.13050  0.14570  0.36351  1.0000
  C   C102      1.0  0.41002  0.11440  0.43482  1.0000
  H   H168      1.0  0.11762  0.16388  0.41437  1.0000
  H   H169      1.0  0.09621  0.15005  0.34627  1.0000
  C   C103      1.0  0.12512  0.17129  0.37027  1.0000
  H   H170      1.0  0.02707  0.10009  0.04601  1.0000
  C   C104      1.0  0.10695  0.13717  0.36051  1.0000
  H   H171      1.0  0.10823  0.09766  0.37059  1.0000
  H   H172      1.0  0.28691  0.17322  0.31218  1.0000
  C   C105      1.0  0.14762  0.05710  0.31437  1.0000
  C   C106      1.0  0.10953  0.17493  0.39699  1.0000
  H   H173      1.0  0.09485  0.13691  0.37960  1.0000
  S   S34       1.0  0.00540  0.03466  0.13024  1.0000
  C   C107      1.0  0.10250  0.24390  0.21121  1.0000
  C   C108      1.0  0.13607  0.23144  0.17702  1.0000
  C   C109      1.0  0.09582  0.26919  0.19551  1.0000
  Fe  Fe18      1.0  0.41343  0.00408  0.44134  1.0000
  C   C110      1.0  0.26508  0.06143  0.42779  1.0000
  C   C111      1.0  0.23816  0.23275  0.31744  1.0000
  H   H174      1.0  0.14517  0.30953  0.36657  1.0000
  C   C112      1.0  0.18070  0.29710  0.27178  1.0000
  H   H175      1.0  0.00573  0.13024  0.10045  1.0000
  C   C113      1.0  0.29988  0.00924  0.42398  1.0000
  H   H176      1.0  0.28016  0.20093  0.32592  1.0000
  C   C114      1.0  0.28048  0.05996  0.45111  1.0000
  H   H177      1.0  0.35238  0.31827  0.18938  1.0000
  S   S35       1.0  0.22459  0.30165  0.24296  1.0000
  H   H178      1.0  0.11620  0.32200  0.37989  1.0000
  H   H179      1.0  0.39118  0.12240  0.44139  1.0000
  H   H180      1.0  0.07898  0.06300  0.21783  1.0000
  S   S36       1.0  0.00561  0.02155  0.05400  1.0000
  H   H181      1.0  0.40622  0.15609  0.45215  1.0000
  C   C115      1.0  0.07123  0.01382  0.22851  1.0000
  H   H182      1.0  0.19014  0.29550  0.28929  1.0000
  C   C116      1.0  0.06340  0.02234  0.18142  1.0000
  H   H183      1.0  0.35998  0.27839  0.18163  1.0000
  S   S37       1.0  0.10563  0.29220  0.33453  1.0000
  H   H184      1.0  0.10665  0.05898  0.16465  1.0000
  H   H185      1.0  0.10970  0.26361  0.42966  1.0000
  H   H186      1.0  0.01609  0.10158  0.08937  1.0000
  H   H187      1.0  0.39971  0.11517  0.39513  1.0000
  H   H188      1.0  0.28440  0.23993  0.29203  1.0000
  Fe  Fe19      1.0  0.99678  0.01375  0.09846  1.0000
  H   H189      1.0  0.40731  0.30267  0.13679  1.0000
  H   H190      1.0  0.26917  0.07025  0.46648  1.0000
  N   N9        1.0  0.12258  0.31007  0.43333  1.0000
  H   H191      1.0  0.07940  0.99472  0.22702  1.0000
  H   H192      1.0  0.45369  0.08972  0.44191  1.0000
  H   H193      1.0  0.43827  0.31304  0.17103  1.0000
  H   H194      1.0  0.45610  0.16749  0.43326  1.0000
  C   C117      1.0  0.30919  0.02241  0.44449  1.0000
  H   H195      1.0  0.10095  0.01920  0.25087  1.0000
  C   C118      1.0  0.42569  0.14794  0.45111  1.0000
  H   H196      1.0  0.11621  0.29414  0.47477  1.0000
  H   H197      1.0  0.19017  0.30760  0.20395  1.0000
  C   C119      1.0  0.99959  0.11372  0.09564  1.0000
  H   H198      1.0  0.16991  0.29857  0.45377  1.0000
  H   H199      1.0  0.06062  0.99358  0.15845  1.0000
  H   H200      1.0  0.47308  0.13196  0.46157  1.0000
  H   H201      1.0  0.99182  0.11005  0.02231  1.0000
  H   H202      1.0  0.25954  0.01778  0.45787  1.0000
  H   H203      1.0  0.07565  0.00797  0.27098  1.0000
  H   H204      1.0  0.48368  0.00338  0.44599  1.0000
  H   H205      1.0  0.33433  0.05279  0.46502  1.0000
  C   C120      1.0  0.99091  0.09426  0.03815  1.0000
  H   H206      1.0  0.99044  0.13376  0.05794  1.0000
  C   C121      1.0  0.26979  0.02067  0.47404  1.0000
  Fe  Fe20      1.0  0.42977  0.03696  0.47524  1.0000
  H   H207      1.0  0.25607  0.03100  0.48749  1.0000
  H   H208      1.0  0.48679  0.01276  0.58687  1.0000
  H   H209      1.0  0.40065  0.99047  0.56168  1.0000
  C   C122      1.0  0.30248  0.03807  0.48777  1.0000
  H   H210      1.0  0.38631  0.02554  0.58743  1.0000
  Fe  Fe21      1.0  0.38453  0.01328  0.49401  1.0000
  H   H211      1.0  0.38632  0.03439  0.55236  1.0000
  C   C123      1.0  0.39832  0.02764  0.56842  1.0000
  H   H212      1.0  0.45707  0.01416  0.55530  1.0000
  H   H213      1.0  0.28227  0.99690  0.50962  1.0000
  H   H214      1.0  0.33188  0.05343  0.50026  1.0000
  H   H215      1.0  0.39086  0.13627  0.49193  1.0000
  C   C124      1.0  0.45164  0.06891  0.55759  1.0000
  C   C125      1.0  0.44798  0.06377  0.53229  1.0000
  C   C126      1.0  0.46787  0.05553  0.51483  1.0000
  S   S38       1.0  0.42347  0.99800  0.48331  1.0000
  S   S39       1.0  0.39180  0.05178  0.48983  1.0000
  H   H216      1.0  0.42983  0.06612  0.52639  1.0000
  H   H217      1.0  0.28871  0.04425  0.50407  1.0000
  C   C127      1.0  0.41342  0.00340  0.56224  1.0000
  H   H218      1.0  0.43628  0.07508  0.57123  1.0000
  S   S40       1.0  0.35930  0.99970  0.52902  1.0000
  H   H219      1.0  0.40987  0.04173  0.56897  1.0000
  H   H220      1.0  0.44493  0.02580  0.58549  1.0000
  C   C128      1.0  0.27715  0.99545  0.48960  1.0000
  H   H221      1.0  0.44819  0.99943  0.66498  1.0000
  C   C129      1.0  0.47504  0.06489  0.56586  1.0000
  C   C130      1.0  0.39597  0.11639  0.49286  1.0000
  H   H222      1.0  0.42207  0.00669  0.54133  1.0000
  H   H223      1.0  0.43426  0.11387  0.49337  1.0000
  S   S41       1.0  0.47901  0.06796  0.59887  1.0000
  H   H224      1.0  0.39487  0.10873  0.51435  1.0000
  H   H225      1.0  0.41610  0.00966  0.61591  1.0000
  H   H226      1.0  0.47258  0.10131  0.47815  1.0000
  S   S42       1.0  0.46422  0.04941  0.48280  1.0000
  H   H227      1.0  0.31224  0.02046  0.49649  1.0000
  C   C131      1.0  0.45171  0.00868  0.57692  1.0000
  C   C132      1.0  0.32130  0.05592  0.48276  1.0000
  H   H228      1.0  0.47191  0.99233  0.61137  1.0000
  C   C133      1.0  0.42133  0.99126  0.60970  1.0000
  H   H229      1.0  0.38241  0.10850  0.48399  1.0000
  H   H230      1.0  0.42515  0.08925  0.48099  1.0000
  C   C134      1.0  0.42204  0.10935  0.47981  1.0000
  H   H231      1.0  0.48223  0.99253  0.48085  1.0000
  H   H232      1.0  0.15764  0.28768  0.48657  1.0000
  H   H233      1.0  0.31244  0.07504  0.48041  1.0000
  N   N10       1.0  0.43215  0.99259  0.58094  1.0000
  C   C135      1.0  0.47514  0.99824  0.58963  1.0000
  Fe  Fe22      1.0  0.40447  0.45174  0.15103  1.0000
  S   S43       1.0  0.42619  0.44298  0.11274  1.0000
  S   S44       1.0  0.41317  0.47735  0.17708  1.0000
  Fe  Fe23      1.0  0.36739  0.41796  0.14800  1.0000
  S   S45       1.0  0.38616  0.40660  0.10950  1.0000
  S   S46       1.0  0.33316  0.40433  0.16852  1.0000
  Fe  Fe24      1.0  0.42033  0.40469  0.12843  1.0000
  S   S47       1.0  0.44695  0.37091  0.12650  1.0000
  Fe  Fe25      1.0  0.38973  0.44580  0.09800  1.0000
  S   S48       1.0  0.38221  0.46283  0.05684  1.0000
  S   S49       1.0  0.40149  0.41311  0.16809  1.0000
  S   S50       1.0  0.36821  0.45757  0.13516  1.0000
  C   C136      1.0  0.30525  0.36812  0.17107  1.0000
  H   H234      1.0  0.02598  0.44192  0.37801  1.0000
  H   H235      1.0  0.44801  0.48619  0.12952  1.0000
  H   H236      1.0  0.13650  0.34289  0.43815  1.0000
  H   H237      1.0  0.27458  0.61221  0.02405  1.0000
  H   H238      1.0  0.03613  0.35955  0.43753  1.0000
  S   S51       1.0  0.37471  0.57671  0.04386  1.0000
  C   C137      1.0  0.47611  0.50225  0.14322  1.0000
  C   C138      1.0  0.48593  0.37165  0.04220  1.0000
  C   C139      1.0  0.46031  0.63630  0.04859  1.0000
  H   H239      1.0  0.02541  0.54432  0.44457  1.0000
  H   H240      1.0  0.05654  0.54395  0.45089  1.0000
  H   H241      1.0  0.44844  0.57384  0.05998  1.0000
  H   H242      1.0  0.45912  0.58268  0.10255  1.0000
  C   C140      1.0  0.45436  0.49193  0.14644  1.0000
  Fe  Fe26      1.0  0.04818  0.40980  0.44632  1.0000
  H   H243      1.0  0.46427  0.40098  0.17902  1.0000
  S   S52       1.0  0.07255  0.39061  0.41500  1.0000
  H   H244      1.0  0.08245  0.34029  0.45928  1.0000
  H   H245      1.0  0.01696  0.58915  0.44746  1.0000
  H   H246      1.0  0.44582  0.40120  0.98749  1.0000
  S   S53       1.0  0.03220  0.44804  0.43303  1.0000
  C   C141      1.0  0.48066  0.42577  0.14671  1.0000
  C   C142      1.0  0.07346  0.35871  0.37942  1.0000
  H   H247      1.0  0.46165  0.47784  0.00768  1.0000
  H   H248      1.0  0.43106  0.53743  0.14873  1.0000
  C   C143      1.0  0.33060  0.37597  0.12950  1.0000
  H   H249      1.0  0.46016  0.44792  0.02486  1.0000
  H   H250      1.0  0.46430  0.40940  0.08868  1.0000
  S   S54       1.0  0.01323  0.39846  0.46736  1.0000
  H   H251      1.0  0.01914  0.37242  0.32740  1.0000
  H   H252      1.0  0.47736  0.51179  0.20747  1.0000
  H   H253      1.0  0.14135  0.33831  0.37952  1.0000
  S   S55       1.0  0.05407  0.49121  0.47623  1.0000
  H   H254      1.0  0.27702  0.64667  0.06282  1.0000
  H   H255      1.0  0.47072  0.55170  0.07600  1.0000
  Fe  Fe27      1.0  0.04174  0.45621  0.47178  1.0000
  H   H256      1.0  0.37973  0.35250  0.11596  1.0000
  H   H257      1.0  0.30336  0.61227  0.05325  1.0000
  C   C144      1.0  0.45875  0.63223  0.02235  1.0000
  H   H258      1.0  0.43933  0.58167  0.16198  1.0000
  C   C145      1.0  0.41467  0.60456  0.08293  1.0000
  H   H259      1.0  0.39189  0.57823  0.09977  1.0000
  H   H260      1.0  0.48605  0.41645  0.19049  1.0000
  H   H261      1.0  0.28229  0.61768  0.98883  1.0000
  C   C146      1.0  0.44555  0.59063  0.14194  1.0000
  C   C147      1.0  0.44080  0.48933  0.17162  1.0000
  C   C148      1.0  0.44885  0.49728  0.19325  1.0000
  H   H262      1.0  0.34352  0.60846  0.00700  1.0000
  C   C149      1.0  0.04038  0.55537  0.44302  1.0000
  H   H263      1.0  0.39897  0.59499  0.12331  1.0000
  C   C150      1.0  0.01297  0.37429  0.34873  1.0000
  H   H264      1.0  0.43840  0.49547  0.21269  1.0000
  H   H265      1.0  0.41294  0.59908  0.06325  1.0000
  C   C151      1.0  0.48449  0.50937  0.16532  1.0000
  C   C152      1.0  0.46183  0.37124  0.09405  1.0000
  H   H266      1.0  0.44536  0.64684  0.05916  1.0000
  H   H267      1.0  0.38365  0.34494  0.21609  1.0000
  H   H268      1.0  0.37368  0.36214  0.15741  1.0000
  H   H269      1.0  0.35379  0.64362  0.98556  1.0000
  H   H270      1.0  0.46324  0.59641  0.14381  1.0000
  C   C153      1.0  0.48079  0.62590  0.06144  1.0000
  C   C154      1.0  0.46700  0.34987  0.08227  1.0000
  C   C155      1.0  0.45219  0.55492  0.06953  1.0000
  C   C156      1.0  0.37947  0.49450  0.05360  1.0000
  C   C157      1.0  0.38232  0.50762  0.02814  1.0000
  C   C158      1.0  0.38089  0.53285  0.02522  1.0000
  C   C159      1.0  0.37557  0.54519  0.04761  1.0000
  C   C160      1.0  0.37171  0.53218  0.07301  1.0000
  C   C161      1.0  0.37429  0.50680  0.07609  1.0000
  H   H271      1.0  0.38609  0.49836  0.01060  1.0000
  C   C162      1.0  0.30524  0.34391  0.13535  1.0000
  H   H272      1.0  0.36722  0.54171  0.09027  1.0000
  H   H273      1.0  0.37199  0.49691  0.09580  1.0000
  C   C163      1.0  0.06252  0.36631  0.40365  1.0000
  H   H274      1.0  0.41706  0.33084  0.13672  1.0000
  H   H275      1.0  0.08740  0.36823  0.36766  1.0000
  C   C164      1.0  0.47818  0.61877  0.00860  1.0000
  H   H276      1.0  0.34364  0.38600  0.11716  1.0000
  H   H277      1.0  0.42556  0.42462  0.03832  1.0000
  H   H278      1.0  0.44057  0.52951  0.10207  1.0000
  C   C165      1.0  0.44435  0.41680  0.99900  1.0000
  C   C166      1.0  0.39564  0.53656  0.13717  1.0000
  Fe  Fe28      1.0  0.39398  0.58660  0.00314  1.0000
  C   C167      1.0  0.47076  0.50681  0.19024  1.0000
  C   C168      1.0  0.31432  0.65163  0.99524  1.0000
  C   C169      1.0  0.11893  0.33651  0.43685  1.0000
  H   H279      1.0  0.42526  0.33080  0.19758  1.0000
  Fe  Fe29      1.0  0.99824  0.43757  0.45682  1.0000
  H   H280      1.0  0.99355  0.48640  0.44231  1.0000
  C   C170      1.0  0.04440  0.35405  0.41864  1.0000
  C   C171      1.0  0.04866  0.32625  0.38546  1.0000
  C   C172      1.0  0.37353  0.35555  0.19990  1.0000
  H   H281      1.0  0.99346  0.36690  0.39928  1.0000
  C   C173      1.0  0.40739  0.58535  0.10610  1.0000
  C   C174      1.0  0.44910  0.46485  0.01705  1.0000
  H   H282      1.0  0.43309  0.60880  0.08331  1.0000
  H   H283      1.0  0.40677  0.41396  0.01742  1.0000
  N   N11       1.0  0.30205  0.45776  0.09769  1.0000
  C   C175      1.0  0.31897  0.47517  0.08354  1.0000
  C   C176      1.0  0.31566  0.43255  0.09701  1.0000
  C   C177      1.0  0.29661  0.46261  0.12640  1.0000
  C   C178      1.0  0.27919  0.46192  0.08386  1.0000
  C   C179      1.0  0.30981  0.50240  0.08407  1.0000
  C   C180      1.0  0.32490  0.42549  0.06893  1.0000
  C   C181      1.0  0.27975  0.44667  0.14490  1.0000
  C   C182      1.0  0.26425  0.44052  0.08709  1.0000
  H   H284      1.0  0.33673  0.47136  0.09200  1.0000
  H   H285      1.0  0.32330  0.47282  0.06202  1.0000
  H   H286      1.0  0.30472  0.41850  0.10724  1.0000
  H   H287      1.0  0.33175  0.43013  0.10844  1.0000
  H   H288      1.0  0.31380  0.46071  0.13586  1.0000
  H   H289      1.0  0.28771  0.48151  0.12765  1.0000
  H   H290      1.0  0.26678  0.47785  0.09052  1.0000
  H   H291      1.0  0.28375  0.46655  0.06189  1.0000
  H   H292      1.0  0.31084  0.50786  0.10393  1.0000
  H   H293      1.0  0.32190  0.51309  0.06952  1.0000
  H   H294      1.0  0.29117  0.50763  0.07816  1.0000
  H   H295      1.0  0.34132  0.43389  0.06043  1.0000
  H   H296      1.0  0.33037  0.40555  0.07052  1.0000
  H   H297      1.0  0.31089  0.43041  0.05484  1.0000
  H   H298      1.0  0.27903  0.45094  0.16566  1.0000
  H   H299      1.0  0.28640  0.42705  0.14575  1.0000
  H   H300      1.0  0.26089  0.45072  0.13946  1.0000
  H   H301      1.0  0.24465  0.44789  0.08753  1.0000
  H   H302      1.0  0.26612  0.42749  0.10544  1.0000
  H   H303      1.0  0.26836  0.43065  0.06934  1.0000
  H   H304      1.0  0.46239  0.41483  0.00649  1.0000
  C   C183      1.0  0.41656  0.55064  0.13969  1.0000
  C   C184      1.0  0.03268  0.57829  0.45698  1.0000
  H   H305      1.0  0.40939  0.56272  0.15516  1.0000
  H   H306      1.0  0.45237  0.54313  0.05381  1.0000
  C   C185      1.0  0.32181  0.35757  0.11937  1.0000
  C   C186      1.0  0.44939  0.57334  0.12049  1.0000
  C   C187      1.0  0.29685  0.34929  0.16119  1.0000
  C   C188      1.0  0.43160  0.46140  0.99716  1.0000
  H   H307      1.0  0.32918  0.62664  0.04522  1.0000
  H   H308      1.0  0.38391  0.54261  0.00551  1.0000
  H   H309      1.0  0.46279  0.55750  0.12721  1.0000
  H   H310      1.0  0.02868  0.37783  0.35791  1.0000
  C   C189      1.0  0.32236  0.38132  0.15536  1.0000
  C   C190      1.0  0.43316  0.54801  0.09305  1.0000
  H   H311      1.0  0.41663  0.54580  0.08414  1.0000
  H   H312      1.0  0.48062  0.44961  0.09630  1.0000
  H   H313      1.0  0.01681  0.39653  0.39833  1.0000
  C   C191      1.0  0.42537  0.41226  0.02331  1.0000
  C   C192      1.0  0.06647  0.33878  0.37028  1.0000
  H   H314      1.0  0.43835  0.47200  0.03481  1.0000
  N   N12       1.0  0.38696  0.32402  0.16682  1.0000
  H   H315      1.0  0.43300  0.60732  0.13625  1.0000
  H   H316      1.0  0.40127  0.52233  0.12383  1.0000
  H   H317      1.0  0.11189  0.34783  0.41886  1.0000
  H   H318      1.0  0.29866  0.37223  0.19107  1.0000
  H   H319      1.0  0.40268  0.62198  0.08495  1.0000
  H   H320      1.0  0.37948  0.54882  0.13060  1.0000
  H   H321      1.0  0.04534  0.56085  0.42137  1.0000
  N   N13       1.0  0.42677  0.56480  0.11427  1.0000
  C   C193      1.0  0.31889  0.58222  0.01458  1.0000
  H   H322      1.0  0.40291  0.35658  0.16799  1.0000
  H   H323      1.0  0.00757  0.35657  0.35815  1.0000
  H   H324      1.0  0.03940  0.41565  0.36386  1.0000
  H   H325      1.0  0.41325  0.46045  0.00814  1.0000
  H   H326      1.0  0.01415  0.43536  0.34978  1.0000
  C   C194      1.0  0.38490  0.35002  0.17180  1.0000
  C   C195      1.0  0.02162  0.42685  0.36850  1.0000
  H   H327      1.0  0.32831  0.35348  0.09936  1.0000
  H   H328      1.0  0.04766  0.58954  0.45142  1.0000
  H   H329      1.0  0.38993  0.52708  0.15720  1.0000
  H   H330      1.0  0.48173  0.33388  0.04665  1.0000
  S   S56       1.0  0.40449  0.62319  0.98742  1.0000
  C   C196      1.0  0.29576  0.65013  0.05503  1.0000
  H   H331      1.0  0.46163  0.33320  0.09312  1.0000
  C   C197      1.0  0.00468  0.41199  0.38871  1.0000
  H   H332      1.0  0.28384  0.33899  0.17355  1.0000
  H   H333      1.0  0.47238  0.44483  0.14144  1.0000
  H   H334      1.0  0.42995  0.39353  0.03347  1.0000
  C   C198      1.0  0.46851  0.39281  0.07982  1.0000
  C   C199      1.0  0.32471  0.60779  0.00263  1.0000
  H   H335      1.0  0.07471  0.33332  0.35135  1.0000
  H   H336      1.0  0.30535  0.65246  0.07209  1.0000
  S   S57       1.0  0.43081  0.56647  0.99252  1.0000
  C   C200      1.0  0.10113  0.34360  0.46106  1.0000
  H   H337      1.0  0.31968  0.57874  0.03649  1.0000
  C   C201      1.0  0.47846  0.35023  0.05607  1.0000
  H   H338      1.0  0.44272  0.63981  0.01262  1.0000
  C   C202      1.0  0.48133  0.39285  0.05430  1.0000
  S   S58       1.0  0.48138  0.62753  0.09547  1.0000
  H   H339      1.0  0.42924  0.47888  0.98371  1.0000
  H   H340      1.0  0.45712  0.43200  0.18332  1.0000
  H   H341      1.0  0.33297  0.56859  0.00581  1.0000
  H   H342      1.0  0.32572  0.60866  0.98057  1.0000
  C   C203      1.0  0.03738  0.33414  0.40946  1.0000
  N   N14       1.0  0.30740  0.62889  0.01213  1.0000
  C   C204      1.0  0.99154  0.39496  0.35053  1.0000
  H   H343      1.0  0.35411  0.35302  0.20354  1.0000
  H   H344      1.0  0.10014  0.36337  0.46161  1.0000
  C   C205      1.0  0.30979  0.62870  0.04135  1.0000
  C   C206      1.0  0.28201  0.62548  0.00784  1.0000
  H   H345      1.0  0.30118  0.57878  0.00957  1.0000
  H   H346      1.0  0.34998  0.33047  0.15623  1.0000
  H   H347      1.0  0.99722  0.42316  0.40497  1.0000
  H   H348      1.0  0.37397  0.37496  0.20129  1.0000
  H   H349      1.0  0.03116  0.62938  0.47231  1.0000
  C   C207      1.0  0.47217  0.41818  0.17655  1.0000
  H   H350      1.0  0.47186  0.41481  0.13522  1.0000
  C   C208      1.0  0.26284  0.64831  0.00550  1.0000
  H   H351      1.0  0.24482  0.64278  0.00459  1.0000
  H   H352      1.0  0.02358  0.32447  0.42126  1.0000
  C   C209      1.0  0.38611  0.33296  0.11553  1.0000
  H   H353      1.0  0.39830  0.33133  0.09668  1.0000
  N   N15       1.0  0.43936  0.44052  0.98118  1.0000
  H   H354      1.0  0.48690  0.50384  0.12398  1.0000
  H   H355      1.0  0.48708  0.40942  0.04375  1.0000
  H   H356      1.0  0.37051  0.32332  0.11449  1.0000
  H   H357      1.0  0.40184  0.43749  0.97811  1.0000
  H   H358      1.0  0.99619  0.41003  0.33513  1.0000
  Fe  Fe30      1.0  0.02489  0.41084  0.50309  1.0000
  S   S59       1.0  0.01123  0.61155  0.56983  1.0000
  H   H359      1.0  0.09642  0.47800  0.50438  1.0000
  S   S60       1.0  0.02088  0.39379  0.54588  1.0000
  C   C210      1.0  0.05409  0.64745  0.71694  1.0000
  S   S61       1.0  0.04001  0.52906  0.65715  1.0000
  C   C211      1.0  0.41915  0.43876  0.96492  1.0000
  Fe  Fe31      1.0  0.02113  0.58100  0.60184  1.0000
  S   S62       1.0  0.06014  0.56723  0.60692  1.0000
  H   H360      1.0  0.45998  0.42332  0.93135  1.0000
  Fe  Fe32      1.0  0.04811  0.53055  0.61264  1.0000
  S   S63       1.0  0.07167  0.50002  0.59413  1.0000
  Fe  Fe33      1.0  0.04862  0.56730  0.65083  1.0000
  S   S64       1.0  0.07357  0.57837  0.67697  1.0000
  S   S65       1.0  0.00990  0.54436  0.60391  1.0000
  S   S66       1.0  0.01044  0.58437  0.64528  1.0000
  C   C212      1.0  0.09588  0.61421  0.80442  1.0000
  H   H361      1.0  0.48919  0.43170  0.93270  1.0000
  H   H362      1.0  0.03192  0.36942  0.64555  1.0000
  C   C213      1.0  0.41369  0.45998  0.94257  1.0000
  C   C214      1.0  0.99060  0.39079  0.55788  1.0000
  C   C215      1.0  0.01534  0.46819  0.62137  1.0000
  C   C216      1.0  0.48834  0.49698  0.95717  1.0000
  H   H363      1.0  0.05050  0.58180  0.53368  1.0000
  H   H364      1.0  0.05573  0.57482  0.75444  1.0000
  C   C217      1.0  0.04651  0.43516  0.58362  1.0000
  H   H365      1.0  0.42276  0.42181  0.95542  1.0000
  S   S67       1.0  0.25950  0.64293  0.93432  1.0000
  H   H366      1.0  0.01116  0.43384  0.64362  1.0000
  H   H367      1.0  0.30072  0.60581  0.93391  1.0000
  H   H368      1.0  0.06609  0.55156  0.53668  1.0000
  C   C218      1.0  0.10817  0.62265  0.63198  1.0000
  H   H369      1.0  0.07017  0.42907  0.54733  1.0000
  H   H370      1.0  0.09872  0.59963  0.71030  1.0000
  C   C219      1.0  0.05833  0.49171  0.50963  1.0000
  C   C220      1.0  0.03902  0.50061  0.52742  1.0000
  C   C221      1.0  0.04306  0.50373  0.55325  1.0000
  C   C222      1.0  0.06628  0.49720  0.56162  1.0000
  C   C223      1.0  0.08533  0.48727  0.54421  1.0000
  C   C224      1.0  0.08145  0.48489  0.51809  1.0000
  H   H371      1.0  0.02102  0.50535  0.52114  1.0000
  H   H372      1.0  0.02816  0.51086  0.56674  1.0000
  H   H373      1.0  0.10325  0.48195  0.55071  1.0000
  H   H374      1.0  0.04782  0.45476  0.57905  1.0000
  C   C225      1.0  0.34078  0.64674  0.92395  1.0000
  C   C226      1.0  0.05088  0.58834  0.76878  1.0000
  H   H375      1.0  0.03660  0.56905  0.82902  1.0000
  H   H376      1.0  0.02064  0.47737  0.60126  1.0000
  C   C227      1.0  0.04975  0.56321  0.52938  1.0000
  H   H377      1.0  0.03530  0.39402  0.60125  1.0000
  H   H378      1.0  0.03669  0.62686  0.79091  1.0000
  H   H379      1.0  0.00332  0.45063  0.69012  1.0000
  H   H380      1.0  0.06148  0.39099  0.61801  1.0000
  H   H381      1.0  0.07510  0.57617  0.83359  1.0000
  S   S68       1.0  0.13632  0.65458  0.81243  1.0000
  H   H382      1.0  0.03148  0.62835  0.50799  1.0000
  Fe  Fe34      1.0  0.41659  0.56445  0.95395  1.0000
  Fe  Fe35      1.0  0.39252  0.61694  0.94876  1.0000
  C   C228      1.0  0.07395  0.59090  0.78119  1.0000
  C   C229      1.0  0.08164  0.61121  0.70776  1.0000
  C   C230      1.0  0.06531  0.60491  0.69223  1.0000
  C   C231      1.0  0.04322  0.61990  0.68912  1.0000
  C   C232      1.0  0.07601  0.63231  0.72012  1.0000
  H   H383      1.0  0.03268  0.39505  0.66206  1.0000
  S   S69       1.0  0.37880  0.58200  0.96584  1.0000
  H   H384      1.0  0.03048  0.61520  0.67718  1.0000
  C   C233      1.0  0.03759  0.64109  0.70157  1.0000
  H   H385      1.0  0.13385  0.60102  0.80888  1.0000
  H   H386      1.0  0.05439  0.54297  0.49606  1.0000
  C   C234      1.0  0.46513  0.51080  0.95785  1.0000
  H   H387      1.0  0.45401  0.50980  0.89385  1.0000
  H   H388      1.0  0.08682  0.59737  0.76406  1.0000
  H   H389      1.0  0.34496  0.60779  0.92988  1.0000
  H   H390      1.0  0.03368  0.55638  0.54125  1.0000
  H   H391      1.0  0.39798  0.45691  0.93288  1.0000
  N   N16       1.0  0.04204  0.42758  0.61340  1.0000
  H   H392      1.0  0.14619  0.61859  0.65942  1.0000
  H   H393      1.0  0.10146  0.62651  0.78612  1.0000
  H   H394      1.0  0.02627  0.47330  0.63583  1.0000
  H   H395      1.0  0.06618  0.57050  0.48887  1.0000
  C   C235      1.0  0.01736  0.44041  0.62265  1.0000
  H   H396      1.0  0.06452  0.45395  0.61977  1.0000
  S   S70       1.0  0.42907  0.59899  0.93298  1.0000
  C   C236      1.0  0.05982  0.43061  0.65728  1.0000
  C   C237      1.0  0.04247  0.40037  0.61802  1.0000
  C   C238      1.0  0.33228  0.62430  0.92803  1.0000
  H   H397      1.0  0.07985  0.42461  0.61987  1.0000
  C   C239      1.0  0.02796  0.38949  0.64366  1.0000
  C   C240      1.0  0.06199  0.43474  0.62649  1.0000
  C   C241      1.0  0.06979  0.42245  0.56907  1.0000
  H   H398      1.0  0.06491  0.65368  0.82251  1.0000
  Fe  Fe36      1.0  0.43994  0.60267  0.97287  1.0000
  H   H399      1.0  0.04361  0.60546  0.75688  1.0000
  C   C242      1.0  0.00838  0.55691  0.49498  1.0000
  H   H400      1.0  0.03100  0.43222  0.57339  1.0000
  H   H401      1.0  0.00807  0.39418  0.64264  1.0000
  H   H402      1.0  0.04098  0.43389  0.66673  1.0000
  H   H403      1.0  0.01546  0.53869  0.48909  1.0000
  H   H404      1.0  0.08644  0.42705  0.57559  1.0000
  H   H405      1.0  0.07026  0.40253  0.57117  1.0000
  H   H406      1.0  0.00423  0.49512  0.68382  1.0000
  C   C243      1.0  0.45264  0.51520  0.93504  1.0000
  S   S71       1.0  0.47638  0.61262  0.97630  1.0000
  H   H407      1.0  0.42905  0.46122  0.92658  1.0000
  C   C244      1.0  0.30726  0.62320  0.93008  1.0000
  H   H408      1.0  0.06931  0.44395  0.66442  1.0000
  C   C245      1.0  0.46363  0.50648  0.91147  1.0000
  H   H409      1.0  0.06816  0.41203  0.66469  1.0000
  C   C246      1.0  0.46218  0.44519  0.96342  1.0000
  H   H410      1.0  0.00429  0.46857  0.54699  1.0000
  N   N17       1.0  0.07122  0.60708  0.80291  1.0000
  H   H411      1.0  0.45654  0.51736  0.97616  1.0000
  C   C247      1.0  0.05446  0.63021  0.79577  1.0000
  H   H412      1.0  0.09519  0.61652  0.62052  1.0000
  C   C248      1.0  0.06318  0.59375  0.82972  1.0000
  N   N18       1.0  0.02712  0.57391  0.48693  1.0000
  H   H413      1.0  0.12548  0.62160  0.61889  1.0000
  H   H414      1.0  0.47903  0.40814  0.95696  1.0000
  C   C249      1.0  0.03700  0.58750  0.83407  1.0000
  Fe  Fe37      1.0  0.00269  0.54617  0.64796  1.0000
  H   H415      1.0  0.09552  0.62465  0.82141  1.0000
  H   H416      1.0  0.15240  0.62648  0.69028  1.0000
  C   C250      1.0  0.05005  0.56238  0.49911  1.0000
  S   S72       1.0  0.42256  0.52963  0.93609  1.0000
  H   H417      1.0  0.02398  0.60060  0.82281  1.0000
  C   C251      1.0  0.29072  0.64455  0.92793  1.0000
  H   H418      1.0  0.06570  0.60363  0.84637  1.0000
  H   H419      1.0  0.16885  0.64485  0.85380  1.0000
  H   H420      1.0  0.47677  0.44696  0.97554  1.0000
  H   H421      1.0  0.11406  0.58090  0.82668  1.0000
  S   S73       1.0  0.00648  0.44878  0.49453  1.0000
  H   H422      1.0  0.11016  0.60964  0.65048  1.0000
  H   H423      1.0  0.00433  0.55384  0.51709  1.0000
  H   H424      1.0  0.45928  0.46282  0.95054  1.0000
  H   H425      1.0  0.00330  0.43638  0.61097  1.0000
  H   H426      1.0  0.03642  0.58183  0.78363  1.0000
  H   H427      1.0  0.31203  0.65095  0.97405  1.0000
  H   H428      1.0  0.40854  0.47765  0.95032  1.0000
  C   C252      1.0  0.11701  0.59323  0.80782  1.0000
  C   C253      1.0  0.47287  0.42575  0.94520  1.0000
  H   H429      1.0  0.99483  0.39673  0.59775  1.0000
  H   H430      1.0  0.12069  0.58281  0.79054  1.0000
  H   H431      1.0  0.06226  0.64061  0.77719  1.0000
  H   H432      1.0  0.02988  0.58788  0.85544  1.0000
  C   C254      1.0  0.04854  0.64742  0.81736  1.0000
  H   H433      1.0  0.10710  0.33426  0.48034  1.0000
  H   H434      1.0  0.08853  0.63654  0.73248  1.0000
  H   H435      1.0  0.03847  0.63910  0.83573  1.0000
  C   C255      1.0  0.14885  0.63392  0.66944  1.0000
  H   H436      1.0  0.02048  0.65264  0.69913  1.0000
  H   H437      1.0  0.01103  0.59536  0.51837  1.0000
  H   H438      1.0  0.48467  0.56595  0.94992  1.0000
  H   H439      1.0  0.00063  0.60626  0.48735  1.0000
  C   C256      1.0  0.48719  0.49380  0.91042  1.0000
  H   H440      1.0  0.08221  0.57219  0.78852  1.0000
  H   H441      1.0  0.99612  0.47563  0.62688  1.0000
  C   C257      1.0  0.03458  0.61729  0.49118  1.0000
  C   C258      1.0  0.01732  0.59782  0.49671  1.0000
  H   H442      1.0  0.05403  0.60968  0.48991  1.0000
  H   H443      1.0  0.16541  0.64155  0.65978  1.0000
  S   S74       1.0  0.37153  0.64866  0.92525  1.0000
  H   H444      1.0  0.08453  0.64561  0.65640  1.0000
  S   S75       1.0  0.06130  0.41900  0.48309  1.0000
  H   H445      1.0  0.11257  0.64658  0.68528  1.0000
  C   C259      1.0  0.09814  0.64834  0.63869  1.0000
  C   C260      1.0  0.12663  0.65383  0.67025  1.0000
  H   H446      1.0  0.14819  0.64891  0.61957  1.0000
  C   C261      1.0  0.02605  0.85510  0.02654  1.0000
  C   C262      1.0  0.15127  0.74981  0.03317  1.0000
  C   C263      1.0  0.00150  0.90512  0.08923  1.0000
  H   H447      1.0  0.14188  0.81747  0.01168  1.0000
  H   H448      1.0  0.09391  0.68465  0.99666  1.0000
  H   H449      1.0  0.02562  0.89232  0.03168  1.0000
  H   H450      1.0  0.01861  0.85923  0.00691  1.0000
  H   H451      1.0  0.24707  0.78127  0.98017  1.0000
  C   C264      1.0  0.17604  0.80755  0.98821  1.0000
  H   H452      1.0  0.46557  0.89989  0.39162  1.0000
  H   H453      1.0  0.23399  0.81141  0.98561  1.0000
  S   S76       1.0  0.09345  0.79633  0.00863  1.0000
  H   H454      1.0  0.45364  0.85238  0.47647  1.0000
  H   H455      1.0  0.18607  0.81016  0.00480  1.0000
  C   C265      1.0  0.01277  0.92931  0.97989  1.0000
  C   C266      1.0  0.47686  0.92971  0.44118  1.0000
  H   H456      1.0  0.00135  0.95812  0.00428  1.0000
  C   C267      1.0  0.05710  0.92437  0.00097  1.0000
  C   C268      1.0  0.01593  0.94445  0.99840  1.0000
  Fe  Fe38      1.0  0.01060  0.98116  0.05404  1.0000
  H   H457      1.0  0.12220  0.77426  0.05085  1.0000
  H   H458      1.0  0.02085  0.83772  0.03715  1.0000
  C   C269      1.0  0.03816  0.94203  0.00896  1.0000
  H   H459      1.0  0.43514  0.93643  0.38453  1.0000
  H   H460      1.0  0.30209  0.66811  0.00026  1.0000
  C   C270      1.0  0.11923  0.77418  0.00906  1.0000
  S   S77       1.0  0.04294  0.96068  0.03206  1.0000
  C   C271      1.0  0.15028  0.74696  0.98643  1.0000
  H   H461      1.0  0.44338  0.89507  0.46701  1.0000
  H   H462      1.0  0.22125  0.78527  0.00416  1.0000
  H   H463      1.0  0.29507  0.66778  0.04222  1.0000
  H   H464      1.0  0.15983  0.74446  0.05144  1.0000
  S   S78       1.0  0.18908  0.72032  0.01002  1.0000
  C   C272      1.0  0.45924  0.95027  0.43746  1.0000
  C   C273      1.0  0.46390  0.91391  0.40440  1.0000
  C   C274      1.0  0.44669  0.93456  0.40042  1.0000
  H   H465      1.0  0.07430  0.92236  0.00916  1.0000
  S   S79       1.0  0.00528  0.97346  0.09885  1.0000
  C   C275      1.0  0.47911  0.91149  0.42463  1.0000
  C   C276      1.0  0.13002  0.76668  0.03282  1.0000
  H   H466      1.0  0.02946  0.87143  0.06103  1.0000
  C   C277      1.0  0.01866  0.87613  0.04362  1.0000
  C   C278      1.0  0.44425  0.95275  0.41692  1.0000
  C   C279      1.0  0.16159  0.74011  0.00986  1.0000
  C   C280      1.0  0.12937  0.76419  0.98592  1.0000
  H   H467      1.0  0.17238  0.78841  0.99231  1.0000
  H   H468      1.0  0.34252  0.67483  0.98462  1.0000
  H   H469      1.0  0.45738  0.96425  0.45027  1.0000
  H   H470      1.0  0.04615  0.85231  0.02205  1.0000
  H   H471      1.0  0.07133  0.71082  0.99856  1.0000
  H   H472      1.0  0.06909  0.98241  0.19114  1.0000
  H   H473      1.0  0.06253  0.68167  0.99939  1.0000
  H   H474      1.0  0.02152  0.90284  0.08454  1.0000
  C   C281      1.0  0.15146  0.82379  0.99199  1.0000
  C   C282      1.0  0.05375  0.90896  0.98286  1.0000
  H   H475      1.0  0.15384  0.84278  0.99284  1.0000
  H   H476      1.0  0.99768  0.85576  0.08816  1.0000
  C   C283      1.0  0.22961  0.79312  0.98446  1.0000
  C   C284      1.0  0.07622  0.69356  0.99009  1.0000
  S   S80       1.0  0.42251  0.97835  0.41080  1.0000
  H   H477      1.0  0.99601  0.89120  0.10573  1.0000
  N   N19       1.0  0.99188  0.88190  0.05262  1.0000
  H   H478      1.0  0.99462  0.92017  0.04897  1.0000
  H   H479      1.0  0.99626  0.92287  0.09686  1.0000
  H   H480      1.0  0.26107  0.65874  0.02253  1.0000
  H   H481      1.0  0.26674  0.66027  0.98654  1.0000
  H   H482      1.0  0.30304  0.98930  0.42979  1.0000
  C   C285      1.0  0.34042  0.65669  0.99593  1.0000
  H   H483      1.0  0.34485  0.65677  0.01652  1.0000
  H   H484      1.0  0.48849  0.92787  0.45696  1.0000
  Fe  Fe39      1.0  0.05492  0.86003  0.94202  1.0000
  S   S81       1.0  0.09182  0.85335  0.95623  1.0000
  H   H485      1.0  0.12306  0.73192  0.94357  1.0000
  Fe  Fe40      1.0  0.06371  0.81304  0.91678  1.0000
  S   S82       1.0  0.10148  0.80296  0.92867  1.0000
  S   S83       1.0  0.04703  0.78659  0.89813  1.0000
  H   H486      1.0  0.11588  0.70144  0.64905  1.0000
  H   H487      1.0  0.12494  0.80099  0.67017  1.0000
  Fe  Fe41      1.0  0.10475  0.84213  0.91584  1.0000
  S   S84       1.0  0.13970  0.85460  0.89657  1.0000
  S   S85       1.0  0.04692  0.82237  0.95718  1.0000
  S   S86       1.0  0.06827  0.85151  0.90035  1.0000
  Fe  Fe42      1.0  0.09362  0.73147  0.76704  1.0000
  S   S87       1.0  0.13286  0.71526  0.76393  1.0000
  S   S88       1.0  0.08612  0.76896  0.77930  1.0000
  Fe  Fe43      1.0  0.07819  0.68920  0.74503  1.0000
  H   H488      1.0  0.43862  0.87771  0.53903  1.0000
  Fe  Fe44      1.0  0.11845  0.68059  0.78070  1.0000
  Fe  Fe45      1.0  0.12661  0.70629  0.72426  1.0000
  S   S89       1.0  0.15080  0.71032  0.68562  1.0000
  S   S90       1.0  0.07950  0.69732  0.78681  1.0000
  S   S91       1.0  0.08840  0.72526  0.72566  1.0000
  S   S92       1.0  0.19826  0.74117  0.93391  1.0000
  S   S93       1.0  0.23258  0.70518  0.89583  1.0000
  Fe  Fe46      1.0  0.23759  0.73348  0.92042  1.0000
  S   S94       1.0  0.25433  0.76685  0.90374  1.0000
  Fe  Fe47      1.0  0.19355  0.71073  0.91272  1.0000
  S   S95       1.0  0.16100  0.72199  0.89023  1.0000
  Fe  Fe48      1.0  0.19766  0.84039  0.75409  1.0000
  S   S96       1.0  0.23470  0.84157  0.76600  1.0000
  S   S97       1.0  0.15995  0.85315  0.77213  1.0000
  Fe  Fe49      1.0  0.21714  0.81456  0.70599  1.0000
  S   S98       1.0  0.25590  0.81336  0.71290  1.0000
  S   S99       1.0  0.20657  0.80135  0.67013  1.0000
  Fe  Fe50      1.0  0.24300  0.80344  0.75608  1.0000
  S   S100      1.0  0.26514  0.77205  0.77827  1.0000
  Fe  Fe51      1.0  0.24511  0.85151  0.72202  1.0000
  S   S101      1.0  0.26797  0.88135  0.70723  1.0000
  S   S102      1.0  0.20510  0.80121  0.74841  1.0000
  S   S103      1.0  0.20731  0.85382  0.71090  1.0000
  Fe  Fe52      1.0  0.45568  0.87182  0.65090  1.0000
  S   S104      1.0  0.44693  0.90725  0.62524  1.0000
  H   H489      1.0  0.10374  0.90449  0.94871  1.0000
  Fe  Fe53      1.0  0.40400  0.87191  0.67749  1.0000
  S   S105      1.0  0.39061  0.90759  0.65443  1.0000
  S   S106      1.0  0.38081  0.84784  0.70548  1.0000
  Fe  Fe54      1.0  0.41314  0.89286  0.61931  1.0000
  S   S107      1.0  0.40048  0.89426  0.57880  1.0000
  Fe  Fe55      1.0  0.42551  0.91859  0.66275  1.0000
  S   S108      1.0  0.42714  0.95541  0.67341  1.0000
  S   S109      1.0  0.42392  0.85624  0.64158  1.0000
  S   S110      1.0  0.43686  0.88425  0.68905  1.0000
  H   H490      1.0  0.29482  0.86212  0.58327  1.0000
  H   H491      1.0  0.12011  0.69545  0.59257  1.0000
  C   C286      1.0  0.38886  0.92351  0.56504  1.0000
  H   H492      1.0  0.36929  0.93333  0.60198  1.0000
  C   C287      1.0  0.29928  0.87223  0.70798  1.0000
  C   C288      1.0  0.31521  0.88961  0.70375  1.0000
  C   C289      1.0  0.34037  0.88235  0.70332  1.0000
  C   C290      1.0  0.34957  0.85768  0.70683  1.0000
  C   C291      1.0  0.33365  0.84039  0.71095  1.0000
  C   C292      1.0  0.30859  0.84766  0.71163  1.0000
  H   H493      1.0  0.30807  0.90868  0.70089  1.0000
  H   H494      1.0  0.35260  0.89580  0.70036  1.0000
  H   H495      1.0  0.34073  0.82130  0.71312  1.0000
  H   H496      1.0  0.29657  0.83417  0.71462  1.0000
  C   C293      1.0  0.25670  0.76835  0.86894  1.0000
  C   C294      1.0  0.24621  0.78904  0.85342  1.0000
  C   C295      1.0  0.24817  0.79011  0.82550  1.0000
  C   C296      1.0  0.26110  0.77072  0.81314  1.0000
  C   C297      1.0  0.27137  0.74998  0.82870  1.0000
  C   C298      1.0  0.26896  0.74869  0.85659  1.0000
  H   H497      1.0  0.23640  0.80411  0.86299  1.0000
  H   H498      1.0  0.23989  0.80602  0.81363  1.0000
  H   H499      1.0  0.28131  0.73491  0.81920  1.0000
  H   H500      1.0  0.27702  0.73265  0.86856  1.0000
  H   H501      1.0  0.08970  0.68412  0.69006  1.0000
  C   C299      1.0  0.11363  0.71707  0.95537  1.0000
  C   C300      1.0  0.15373  0.70212  0.87020  1.0000
  C   C301      1.0  0.39908  0.97761  0.61708  1.0000
  H   H502      1.0  0.24758  0.72411  0.73930  1.0000
  C   C302      1.0  0.16779  0.73447  0.68191  1.0000
  C   C303      1.0  0.17625  0.74150  0.70392  1.0000
  C   C304      1.0  0.18915  0.76144  0.70039  1.0000
  C   C305      1.0  0.19290  0.77477  0.67505  1.0000
  C   C306      1.0  0.18479  0.76738  0.65308  1.0000
  C   C307      1.0  0.17252  0.74713  0.65645  1.0000
  H   H503      1.0  0.17296  0.73153  0.72356  1.0000
  H   H504      1.0  0.19582  0.76672  0.71727  1.0000
  H   H505      1.0  0.18781  0.77749  0.63342  1.0000
  H   H506      1.0  0.16614  0.74168  0.63937  1.0000
  C   C308      1.0  0.14593  0.85161  0.86247  1.0000
  C   C309      1.0  0.12759  0.84808  0.84785  1.0000
  C   C310      1.0  0.13220  0.84816  0.82010  1.0000
  C   C311      1.0  0.15534  0.85100  0.80706  1.0000
  C   C312      1.0  0.17397  0.85353  0.82183  1.0000
  C   C313      1.0  0.16915  0.85417  0.84950  1.0000
  H   H507      1.0  0.10971  0.84585  0.85776  1.0000
  H   H508      1.0  0.11780  0.84604  0.80873  1.0000
  H   H509      1.0  0.19182  0.85582  0.81180  1.0000
  H   H510      1.0  0.18339  0.85683  0.86079  1.0000
  C   C314      1.0  0.10623  0.82982  0.74463  1.0000
  C   C315      1.0  0.11939  0.78885  0.68839  1.0000
  H   H511      1.0  0.07690  0.85866  0.75349  1.0000
  H   H512      1.0  0.13404  0.78795  0.76966  1.0000
  Fe  Fe56      1.0  0.08513  0.81490  0.96791  1.0000
  S   S111      1.0  0.04698  0.67415  0.73223  1.0000
  C   C316      1.0  0.36321  0.96187  0.56927  1.0000
  H   H513      1.0  0.09386  0.69673  0.62874  1.0000
  H   H514      1.0  0.40048  0.83018  0.52803  1.0000
  C   C317      1.0  0.05936  0.78090  0.86568  1.0000
  C   C318      1.0  0.07574  0.79519  0.85044  1.0000
  C   C319      1.0  0.08428  0.79106  0.82407  1.0000
  C   C320      1.0  0.07709  0.77217  0.81316  1.0000
  C   C321      1.0  0.06137  0.75737  0.82872  1.0000
  C   C322      1.0  0.05219  0.76203  0.85475  1.0000
  H   H515      1.0  0.08139  0.80976  0.85872  1.0000
  H   H516      1.0  0.09645  0.80257  0.81214  1.0000
  H   H517      1.0  0.05546  0.74303  0.82029  1.0000
  H   H518      1.0  0.03923  0.75119  0.86631  1.0000
  C   C323      1.0  0.12840  0.67618  0.59386  1.0000
  C   C324      1.0  0.08275  0.69084  0.67051  1.0000
  C   C325      1.0  0.16543  0.67827  0.87088  1.0000
  H   H519      1.0  0.05752  0.77006  0.95793  1.0000
  H   H520      1.0  0.05110  0.74204  0.97579  1.0000
  H   H521      1.0  0.44174  0.81992  0.50654  1.0000
  H   H522      1.0  0.12159  0.94640  0.88587  1.0000
  H   H523      1.0  0.25215  0.68657  0.82371  1.0000
  H   H524      1.0  0.11587  0.66509  0.58777  1.0000
  C   C326      1.0  0.17689  0.80724  0.93985  1.0000
  C   C327      1.0  0.43928  0.83155  0.52278  1.0000
  H   H525      1.0  0.14497  0.69539  0.97258  1.0000
  H   H526      1.0  0.08286  0.67800  0.95353  1.0000
  C   C328      1.0  0.19100  0.80719  0.91168  1.0000
  C   C329      1.0  0.18250  0.75450  0.82322  1.0000
  H   H527      1.0  0.13253  0.66851  0.67919  1.0000
  N   N20       1.0  0.45859  0.84797  0.51883  1.0000
  H   H528      1.0  0.24803  0.72584  0.78788  1.0000
  H   H529      1.0  0.16038  0.82069  0.93785  1.0000
  H   H530      1.0  0.16986  0.78949  0.94518  1.0000
  S   S112      1.0  0.11622  0.66982  0.74067  1.0000
  C   C330      1.0  0.45908  0.86267  0.49129  1.0000
  C   C331      1.0  0.23292  0.68445  0.83076  1.0000
  H   H531      1.0  0.22711  0.74899  0.74999  1.0000
  H   H532      1.0  0.18819  0.74897  0.84359  1.0000
  H   H533      1.0  0.21861  0.75638  0.80401  1.0000
  C   C332      1.0  0.23037  0.72894  0.75200  1.0000
  H   H534      1.0  0.20307  0.78986  0.90991  1.0000
  H   H535      1.0  0.06472  0.89688  0.86418  1.0000
  C   C333      1.0  0.46240  0.98454  0.66937  1.0000
  H   H536      1.0  0.40816  0.85618  0.53937  1.0000
  C   C334      1.0  0.13264  0.69408  0.95755  1.0000
  H   H537      1.0  0.22546  0.79531  0.94300  1.0000
  H   H538      1.0  0.03962  0.91824  0.85613  1.0000
  C   C335      1.0  0.45489  0.96534  0.54653  1.0000
  H   H539      1.0  0.11604  0.92957  0.92955  1.0000
  H   H540      1.0  0.20842  0.77449  0.96428  1.0000
  H   H541      1.0  0.17920  0.67160  0.88430  1.0000
  C   C336      1.0  0.41286  0.84418  0.52353  1.0000
  H   H542      1.0  0.12376  0.89965  0.91933  1.0000
  C   C337      1.0  0.07613  0.73949  0.93905  1.0000
  N   N21       1.0  0.21080  0.72051  0.80065  1.0000
  H   H543      1.0  0.05416  0.94652  0.88433  1.0000
  H   H544      1.0  0.05991  0.73881  0.92885  1.0000
  H   H545      1.0  0.29225  0.98460  0.47851  1.0000
  C   C338      1.0  0.07642  0.69642  0.95933  1.0000
  H   H546      1.0  0.16557  0.74721  0.82168  1.0000
  H   H547      1.0  0.06559  0.69362  0.90982  1.0000
  H   H548      1.0  0.21666  0.83675  0.94470  1.0000
  C   C339      1.0  0.20300  0.74733  0.80133  1.0000
  C   C340      1.0  0.21660  0.70923  0.82834  1.0000
  H   H549      1.0  0.14470  0.67543  0.57892  1.0000
  H   H550      1.0  0.20211  0.82214  0.90625  1.0000
  H   H551      1.0  0.21582  0.72199  0.74380  1.0000
  N   N22       1.0  0.32598  0.81080  0.79645  1.0000
  C   C341      1.0  0.32775  0.78375  0.79639  1.0000
  C   C342      1.0  0.32607  0.81489  0.82509  1.0000
  C   C343      1.0  0.34838  0.81891  0.78007  1.0000
  C   C344      1.0  0.30451  0.80693  0.84463  1.0000
  C   C345      1.0  0.35097  0.84598  0.77760  1.0000
  H   H552      1.0  0.34328  0.77388  0.80708  1.0000
  H   H553      1.0  0.31129  0.77681  0.80741  1.0000
  H   H554      1.0  0.32650  0.83408  0.82702  1.0000
  H   H555      1.0  0.34303  0.80513  0.83315  1.0000
  H   H556      1.0  0.36506  0.80845  0.78809  1.0000
  H   H557      1.0  0.30537  0.78693  0.84837  1.0000
  H   H558      1.0  0.30517  0.81295  0.86432  1.0000
  H   H559      1.0  0.28681  0.81517  0.83765  1.0000
  H   H560      1.0  0.36876  0.84883  0.76608  1.0000
  H   H561      1.0  0.35103  0.85242  0.79710  1.0000
  H   H562      1.0  0.13541  0.77642  0.69495  1.0000
  H   H563      1.0  0.11106  0.68956  0.91690  1.0000
  H   H564      1.0  0.18746  0.87511  0.94471  1.0000
  H   H565      1.0  0.15262  0.85573  0.71586  1.0000
  H   H566      1.0  0.11002  0.84645  0.68735  1.0000
  N   N23       1.0  0.09093  0.92788  0.88328  1.0000
  C   C346      1.0  0.10256  0.95063  0.88066  1.0000
  C   C347      1.0  0.10786  0.90968  0.86831  1.0000
  C   C348      1.0  0.08661  0.91707  0.91214  1.0000
  C   C349      1.0  0.06681  0.93421  0.87205  1.0000
  C   C350      1.0  0.19869  0.83674  0.95695  1.0000
  C   C351      1.0  0.11044  0.91541  0.83755  1.0000
  H   H567      1.0  0.04310  0.90731  0.89093  1.0000
  H   H568      1.0  0.14878  0.67850  0.62649  1.0000
  C   C352      1.0  0.44386  0.88806  0.48856  1.0000
  H   H569      1.0  0.06835  0.94493  0.85181  1.0000
  H   H570      1.0  0.10249  0.89124  0.87358  1.0000
  H   H571      1.0  0.12655  0.90763  0.87436  1.0000
  H   H572      1.0  0.18210  0.68190  0.77152  1.0000
  C   C353      1.0  0.06595  0.75130  0.96430  1.0000
  C   C354      1.0  0.47545  0.94154  0.68001  1.0000
  N   N24       1.0  0.11620  0.66375  0.64421  1.0000
  H   H573      1.0  0.07181  0.92842  0.92326  1.0000
  H   H574      1.0  0.45239  0.90106  0.49750  1.0000
  H   H575      1.0  0.24116  0.69851  0.78044  1.0000
  H   H576      1.0  0.45492  0.95816  0.58962  1.0000
  H   H577      1.0  0.38415  0.98495  0.60467  1.0000
  H   H578      1.0  0.47973  0.80220  0.49854  1.0000
  H   H579      1.0  0.23241  0.67655  0.85213  1.0000
  H   H580      1.0  0.03660  0.66389  0.80944  1.0000
  C   C355      1.0  0.44213  0.96730  0.57501  1.0000
  C   C356      1.0  0.03165  0.91150  0.97212  1.0000
  H   H581      1.0  0.47042  0.87543  0.53777  1.0000
  H   H582      1.0  0.22707  0.67108  0.82008  1.0000
  N   N25       1.0  0.32843  0.87177  0.61726  1.0000
  C   C357      1.0  0.32592  0.89876  0.60851  1.0000
  C   C358      1.0  0.33281  0.85938  0.59241  1.0000
  C   C359      1.0  0.35011  0.86488  0.63315  1.0000
  C   C360      1.0  0.30534  0.86633  0.63427  1.0000
  C   C361      1.0  0.32341  0.91486  0.63111  1.0000
  C   C362      1.0  0.36424  0.83910  0.63266  1.0000
  C   C363      1.0  0.30309  0.83949  0.64368  1.0000
  H   H583      1.0  0.34178  0.90338  0.59413  1.0000
  H   H584      1.0  0.30960  0.90511  0.59769  1.0000
  H   H585      1.0  0.33513  0.83937  0.59740  1.0000
  H   H586      1.0  0.35020  0.86364  0.58066  1.0000
  H   H587      1.0  0.36409  0.87712  0.62602  1.0000
  H   H588      1.0  0.34468  0.86736  0.65438  1.0000
  H   H589      1.0  0.30298  0.87506  0.65279  1.0000
  H   H590      1.0  0.28918  0.87432  0.62371  1.0000
  H   H591      1.0  0.30583  0.91431  0.64380  1.0000
  H   H592      1.0  0.33846  0.91012  0.64391  1.0000
  H   H593      1.0  0.32378  0.93400  0.62200  1.0000
  H   H594      1.0  0.35256  0.82464  0.63622  1.0000
  H   H595      1.0  0.37656  0.83534  0.64870  1.0000
  H   H596      1.0  0.37583  0.83776  0.61337  1.0000
  H   H597      1.0  0.30416  0.82888  0.62680  1.0000
  H   H598      1.0  0.28500  0.83827  0.65525  1.0000
  H   H599      1.0  0.31669  0.83120  0.65752  1.0000
  H   H600      1.0  0.12094  0.76938  0.96772  1.0000
  H   H601      1.0  0.16237  0.85842  0.95132  1.0000
  N   N26       1.0  0.09115  0.71486  0.94307  1.0000
  H   H602      1.0  0.45195  0.86570  0.58311  1.0000
  C   C364      1.0  0.08918  0.97048  0.89728  1.0000
  N   N27       1.0  0.19100  0.81177  0.96152  1.0000
  H   H603      1.0  0.40635  0.91920  0.52548  1.0000
  C   C365      1.0  0.45528  0.86435  0.54037  1.0000
  H   H604      1.0  0.32802  0.75539  0.77162  1.0000
  H   H605      1.0  0.30524  0.85819  0.79959  1.0000
  C   C366      1.0  0.39443  0.93112  0.53778  1.0000
  H   H606      1.0  0.31653  0.78453  0.75590  1.0000
  H   H607      1.0  0.42737  0.95579  0.57748  1.0000
  H   H608      1.0  0.09328  0.91480  0.82914  1.0000
  S   S113      1.0  0.24577  0.70783  0.95727  1.0000
  H   H609      1.0  0.19652  0.75620  0.78205  1.0000
  C   C367      1.0  0.33049  0.77483  0.76872  1.0000
  H   H610      1.0  0.08075  0.85457  0.71932  1.0000
  C   C368      1.0  0.10289  0.68888  0.64692  1.0000
  H   H611      1.0  0.08676  0.65770  0.62280  1.0000
  C   C369      1.0  0.37349  0.93903  0.58087  1.0000
  H   H612      1.0  0.44087  0.81881  0.54163  1.0000
  H   H613      1.0  0.40907  0.85448  0.50387  1.0000
  C   C370      1.0  0.10899  0.91261  0.92795  1.0000
  H   H614      1.0  0.12194  0.87157  0.71947  1.0000
  C   C371      1.0  0.13592  0.71073  0.85292  1.0000
  C   C372      1.0  0.18158  0.85756  0.94285  1.0000
  C   C373      1.0  0.31288  0.86571  0.57321  1.0000
  C   C374      1.0  0.30315  0.82290  0.78448  1.0000
  H   H615      1.0  0.28809  0.81197  0.79141  1.0000
  C   C375      1.0  0.14212  0.67210  0.83593  1.0000
  H   H616      1.0  0.31747  0.85404  0.55698  1.0000
  H   H617      1.0  0.27550  0.84926  0.80299  1.0000
  C   C376      1.0  0.29315  0.84905  0.79024  1.0000
  H   H618      1.0  0.34938  0.81514  0.75914  1.0000
  H   H619      1.0  0.08678  0.75252  0.92561  1.0000
  H   H620      1.0  0.43510  0.98210  0.62305  1.0000
  C   C377      1.0  0.23336  0.71772  0.78113  1.0000
  H   H621      1.0  0.07986  0.89931  0.91360  1.0000
  C   C378      1.0  0.13016  0.69578  0.83580  1.0000
  S   S114      1.0  0.19777  0.68291  0.94877  1.0000
  C   C379      1.0  0.29927  0.66699  0.92239  1.0000
  H   H622      1.0  0.05715  0.70053  0.95490  1.0000
  H   H623      1.0  0.31193  0.88469  0.56332  1.0000
  H   H624      1.0  0.15746  0.73884  0.96870  1.0000
  C   C380      1.0  0.18998  0.71029  0.79242  1.0000
  H   H625      1.0  0.11046  0.72066  0.90358  1.0000
  C   C381      1.0  0.05291  0.91283  0.87111  1.0000
  H   H626      1.0  0.17452  0.71083  0.80841  1.0000
  C   C382      1.0  0.15951  0.66316  0.85375  1.0000
  H   H627      1.0  0.34891  0.77597  0.75810  1.0000
  H   H628      1.0  0.33704  0.85740  0.76588  1.0000
  C   C383      1.0  0.36940  0.96978  0.54218  1.0000
  C   C384      1.0  0.45344  0.85171  0.56952  1.0000
  H   H629      1.0  0.15413  0.81845  0.73820  1.0000
  C   C385      1.0  0.45701  0.96074  0.67436  1.0000
  C   C386      1.0  0.32430  0.66806  0.92029  1.0000
  C   C387      1.0  0.09927  0.70741  0.91565  1.0000
  H   H630      1.0  0.12419  0.90131  0.82909  1.0000
  H   H631      1.0  0.30572  0.82321  0.76245  1.0000
  H   H632      1.0  0.28920  0.86058  0.77115  1.0000
  H   H633      1.0  0.11656  0.70277  0.82233  1.0000
  H   H634      1.0  0.18218  0.72193  0.77505  1.0000
  H   H635      1.0  0.21294  0.67855  0.77607  1.0000
  H   H636      1.0  0.38995  0.96039  0.50551  1.0000
  H   H637      1.0  0.17795  0.80896  0.89656  1.0000
  H   H638      1.0  0.12679  0.72918  0.85242  1.0000
  C   C388      1.0  0.13640  0.66634  0.62180  1.0000
  Fe  Fe57      1.0  0.23751  0.67980  0.93385  1.0000
  C   C389      1.0  0.19465  0.68395  0.78601  1.0000
  H   H639      1.0  0.35119  0.97381  0.58152  1.0000
  H   H640      1.0  0.40412  0.95790  0.61624  1.0000
  H   H641      1.0  0.42485  0.88817  0.49749  1.0000
  H   H642      1.0  0.06689  0.83265  0.74350  1.0000
  H   H643      1.0  0.22611  0.72148  0.83741  1.0000
  C   C390      1.0  0.48289  0.83223  0.52087  1.0000
  H   H644      1.0  0.47136  0.92313  0.68401  1.0000
  C   C391      1.0  0.48623  0.98913  0.66961  1.0000
  H   H645      1.0  0.11698  0.93304  0.83046  1.0000
  C   C392      1.0  0.14454  0.80634  0.72926  1.0000
  H   H646      1.0  0.16172  0.77472  0.75343  1.0000
  S   S115      1.0  0.02704  0.89286  0.94888  1.0000
  H   H647      1.0  0.28662  0.68354  0.92031  1.0000
  C   C393      1.0  0.14308  0.78348  0.74997  1.0000
  H   H648      1.0  0.15707  0.80111  0.71169  1.0000
  C   C394      1.0  0.13566  0.86126  0.70620  1.0000
  H   H649      1.0  0.11682  0.84063  0.75425  1.0000
  H   H650      1.0  0.14004  0.87389  0.68789  1.0000
  H   H651      1.0  0.18272  0.85650  0.92116  1.0000
  H   H652      1.0  0.06959  0.72306  0.89119  1.0000
  H   H653      1.0  0.48547  0.98332  0.57935  1.0000
  H   H654      1.0  0.33085  0.68546  0.91680  1.0000
  N   N28       1.0  0.12072  0.81965  0.72079  1.0000
  C   C395      1.0  0.12616  0.83938  0.69826  1.0000
  H   H655      1.0  0.14017  0.83204  0.68282  1.0000
  H   H656      1.0  0.13409  0.76977  0.74300  1.0000
  C   C396      1.0  0.07896  0.70505  0.89879  1.0000
  H   H657      1.0  0.10228  0.81499  0.76082  1.0000
  C   C397      1.0  0.08127  0.84465  0.73972  1.0000
  H   H658      1.0  0.08724  0.69645  0.88086  1.0000
  H   H659      1.0  0.43685  0.84282  0.57474  1.0000
  H   H660      1.0  0.07523  0.71021  0.67108  1.0000
  H   H661      1.0  0.10691  0.77740  0.68278  1.0000
  C   C398      1.0  0.38513  0.95442  0.52646  1.0000
  H   H662      1.0  0.08933  0.81340  0.70340  1.0000
  C   C399      1.0  0.10620  0.80304  0.71097  1.0000
  H   H663      1.0  0.09965  0.78970  0.72757  1.0000
  H   H664      1.0  0.19965  0.70708  0.84186  1.0000
  H   H665      1.0  0.12443  0.67721  0.96364  1.0000
  H   H666      1.0  0.10413  0.95931  0.85951  1.0000
  H   H667      1.0  0.06736  0.68137  0.66828  1.0000
  H   H668      1.0  0.17801  0.77456  0.82084  1.0000
  C   C400      1.0  0.21343  0.79307  0.96210  1.0000
  H   H669      1.0  0.14405  0.69254  0.93824  1.0000
  H   H670      1.0  0.39164  0.97968  0.63805  1.0000
  H   H671      1.0  0.46394  0.94645  0.54551  1.0000
  H   H672      1.0  0.07120  0.97807  0.89051  1.0000
  H   H673      1.0  0.26138  0.98523  0.49297  1.0000
  H   H674      1.0  0.08704  0.96410  0.91902  1.0000
  H   H675      1.0  0.46965  0.83856  0.57414  1.0000
  H   H676      1.0  0.19106  0.67103  0.80429  1.0000
  H   H677      1.0  0.48297  0.81961  0.53988  1.0000
  H   H678      1.0  0.46910  0.97733  0.54066  1.0000
  H   H679      1.0  0.99554  0.93107  0.97191  1.0000
  Fe  Fe58      1.0  0.20552  0.71324  0.96878  1.0000
  H   H680      1.0  0.10913  0.72234  0.97576  1.0000
  H   H681      1.0  0.44154  0.96915  0.53164  1.0000
  H   H682      1.0  0.10006  0.98573  0.89446  1.0000
  H   H683      1.0  0.47784  0.86611  0.48342  1.0000
  H   H684      1.0  0.13927  0.82266  0.97685  1.0000
  H   H685      1.0  0.20155  0.84234  0.97628  1.0000
  H   H686      1.0  0.06825  0.89512  0.97738  1.0000
  H   H687      1.0  0.08000  0.75278  0.97717  1.0000
  H   H688      1.0  0.57509  0.99933  0.47507  1.0000
  H   H689      1.0  0.51800  0.30238  0.03551  1.0000
  Fe  Fe59      1.0  0.96631  0.01907  0.05198  1.0000
  S   S116      1.0  0.94561  0.04885  0.02582  1.0000
  S   S117      1.0  0.95691  0.01400  0.09635  1.0000
  H   H690      1.0  0.75426  0.20138  0.99834  1.0000
  C   C401      1.0  0.72238  0.19196  0.98452  1.0000
  C   C402      1.0  0.59366  0.28225  0.00109  1.0000
  H   H691      1.0  0.60446  0.27942  0.01845  1.0000
  H   H692      1.0  0.50904  0.02456  0.46997  1.0000
  H   H693      1.0  0.56707  0.02557  0.42921  1.0000
  H   H694      1.0  0.94164  0.09431  0.04626  1.0000
  H   H695      1.0  0.49142  0.10688  0.44772  1.0000
  H   H696      1.0  0.50053  0.04486  0.43175  1.0000
  C   C403      1.0  0.51613  0.00605  0.46529  1.0000
  C   C404      1.0  0.67447  0.13462  0.99399  1.0000
  H   H697      1.0  0.95571  0.06570  0.12186  1.0000
  C   C405      1.0  0.71591  0.11522  0.98490  1.0000
  C   C406      1.0  0.55739  0.29058  0.03226  1.0000
  C   C407      1.0  0.59058  0.25668  0.99567  1.0000
  C   C408      1.0  0.53445  0.30688  0.04267  1.0000
  H   H698      1.0  0.76252  0.16226  0.01454  1.0000
  H   H699      1.0  0.69247  0.10628  0.02078  1.0000
  H   H700      1.0  0.95117  0.09810  0.11426  1.0000
  C   C409      1.0  0.91638  0.04385  0.02108  1.0000
  C   C410      1.0  0.90828  0.02159  0.03068  1.0000
  H   H701      1.0  0.77767  0.13424  0.00536  1.0000
  H   H702      1.0  0.93391  0.07980  0.09966  1.0000
  C   C411      1.0  0.52604  0.01436  0.41602  1.0000
  H   H703      1.0  0.93571  0.11544  0.06971  1.0000
  H   H704      1.0  0.54102  0.01495  0.39947  1.0000
  H   H705      1.0  0.56977  0.28623  0.04831  1.0000
  H   H706      1.0  0.81285  0.00833  0.10873  1.0000
  H   H707      1.0  0.54254  0.04245  0.44664  1.0000
  H   H708      1.0  0.60562  0.28988  0.98370  1.0000
  C   C412      1.0  0.87977  0.05683  0.99867  1.0000
  H   H709      1.0  0.72357  0.17299  0.99450  1.0000
  H   H710      1.0  0.61141  0.31526  0.02588  1.0000
  H   H711      1.0  0.51533  0.00087  0.41100  1.0000
  H   H712      1.0  0.55135  0.27288  0.03128  1.0000
  C   C413      1.0  0.88631  0.01672  0.02360  1.0000
  H   H713      1.0  0.53227  0.30398  0.06488  1.0000
  H   H714      1.0  0.94655  0.00469  0.99481  1.0000
  H   H715      1.0  0.92792  0.13802  0.02837  1.0000
  C   C414      1.0  0.49454  0.99327  0.46189  1.0000
  H   H716      1.0  0.79461  0.15897  0.00207  1.0000
  S   S118      1.0  0.84674  0.02632  0.99550  1.0000
  C   C415      1.0  0.94734  0.13080  0.03010  1.0000
  C   C416      1.0  0.95198  0.08098  0.10574  1.0000
  H   H717      1.0  0.88050  0.99918  0.03023  1.0000
  H   H718      1.0  0.54576  0.28369  0.98633  1.0000
  N   N29       1.0  0.57054  0.29959  0.00583  1.0000
  H   H719      1.0  0.71031  0.20338  0.99820  1.0000
  C   C417      1.0  0.94896  0.10945  0.05294  1.0000
  C   C418      1.0  0.55273  0.02386  0.44637  1.0000
  C   C419      1.0  0.69412  0.11760  0.00167  1.0000
  H   H720      1.0  0.49646  0.03969  0.39941  1.0000
  H   H721      1.0  0.86900  0.07035  0.98600  1.0000
  C   C420      1.0  0.56509  0.01794  0.47244  1.0000
  H   H722      1.0  0.65770  0.13628  0.00714  1.0000
  H   H723      1.0  0.95482  0.12474  0.01054  1.0000
  N   N30       1.0  0.97381  0.10093  0.06218  1.0000
  H   H724      1.0  0.57844  0.03063  0.47217  1.0000
  H   H725      1.0  0.90799  0.07893  0.99820  1.0000
  C   C421      1.0  0.97188  0.07843  0.08199  1.0000
  C   C422      1.0  0.87229  0.03412  0.00713  1.0000
  H   H726      1.0  0.91928  0.00786  0.04285  1.0000
  H   H727      1.0  0.95648  0.14589  0.03378  1.0000
  C   C423      1.0  0.80613  0.99457  0.12480  1.0000
  C   C424      1.0  0.90183  0.06166  0.00562  1.0000
  S   S119      1.0  0.74029  0.09436  0.99634  1.0000
  H   H728      1.0  0.57985  0.24691  0.01244  1.0000
  C   C425      1.0  0.77660  0.15417  0.99989  1.0000
  N   N31       1.0  0.53610  0.00639  0.44250  1.0000
  C   C426      1.0  0.51060  0.03967  0.41285  1.0000
  S   S120      1.0  0.81053  0.09314  0.98430  1.0000
  H   H729      1.0  0.96819  0.06339  0.07183  1.0000
  H   H730      1.0  0.52216  0.05384  0.40425  1.0000
  H   H731      1.0  0.78907  0.00296  0.13544  1.0000
  H   H732      1.0  0.96593  0.13251  0.08345  1.0000
  H   H733      1.0  0.98745  0.01611  0.97922  1.0000
  C   C427      1.0  0.98182  0.12112  0.07399  1.0000
  C   C428      1.0  0.74735  0.20107  0.97887  1.0000
  C   C429      1.0  0.55546  0.29985  0.98314  1.0000
  H   H734      1.0  0.79561  0.19580  0.97921  1.0000
  H   H735      1.0  0.98411  0.08015  0.02896  1.0000
  H   H736      1.0  0.60882  0.24576  0.99320  1.0000
  H   H737      1.0  0.98924  0.07161  0.09044  1.0000
  H   H738      1.0  0.58388  0.32260  0.04808  1.0000
  H   H739      1.0  0.85294  0.98960  0.10662  1.0000
  H   H740      1.0  0.81901  0.98994  0.14010  1.0000
  H   H741      1.0  0.90417  0.98999  0.98236  1.0000
  Fe  Fe60      1.0  0.82002  0.10795  0.94141  1.0000
  S   S121      1.0  0.83388  0.14377  0.93016  1.0000
  Fe  Fe61      1.0  0.80037  0.06872  0.92001  1.0000
  S   S122      1.0  0.79457  0.05529  0.88224  1.0000
  S   S123      1.0  0.78374  0.10583  0.92862  1.0000
  S   S124      1.0  0.83771  0.07207  0.92920  1.0000
  Fe  Fe62      1.0  0.69873  0.10615  0.76810  1.0000
  S   S125      1.0  0.69664  0.06675  0.78188  1.0000
  S   S126      1.0  0.73443  0.11518  0.74629  1.0000
  Fe  Fe63      1.0  0.64718  0.12126  0.79158  1.0000
  S   S127      1.0  0.64065  0.08325  0.80688  1.0000
  S   S128      1.0  0.61841  0.15187  0.80144  1.0000
  Fe  Fe64      1.0  0.67788  0.07896  0.82016  1.0000
  S   S129      1.0  0.68434  0.06438  0.86270  1.0000
  Fe  Fe65      1.0  0.65973  0.07475  0.76717  1.0000
  S   S130      1.0  0.64919  0.04790  0.74353  1.0000
  S   S131      1.0  0.68315  0.11763  0.80773  1.0000
  S   S132      1.0  0.66311  0.11340  0.75053  1.0000
  Fe  Fe66      1.0  0.67036  0.22871  0.87820  1.0000
  S   S133      1.0  0.68055  0.22292  0.83554  1.0000
  Fe  Fe67      1.0  0.66026  0.20507  0.93496  1.0000
  H   H742      1.0  0.75957  0.19236  0.83459  1.0000
  C   C430      1.0  0.57505  0.04147  0.75482  1.0000
  N   N32       1.0  0.76597  0.18737  0.96052  1.0000
  S   S134      1.0  0.63592  0.22182  0.90357  1.0000
  S   S135      1.0  0.69474  0.20853  0.90810  1.0000
  Fe  Fe68      1.0  0.83601  0.20095  0.78784  1.0000
  S   S136      1.0  0.79793  0.21428  0.80353  1.0000
  S   S137      1.0  0.85420  0.16453  0.80443  1.0000
  Fe  Fe69      1.0  0.84042  0.24529  0.74699  1.0000
  S   S138      1.0  0.80255  0.26240  0.75884  1.0000
  S   S139      1.0  0.86711  0.26319  0.71625  1.0000
  Fe  Fe70      1.0  0.81106  0.25004  0.80090  1.0000
  H   H743      1.0  0.78982  0.29814  0.87878  1.0000
  Fe  Fe71      1.0  0.79225  0.22524  0.76031  1.0000
  S   S140      1.0  0.75627  0.22199  0.74675  1.0000
  S   S141      1.0  0.84998  0.23580  0.78913  1.0000
  S   S142      1.0  0.82947  0.20900  0.74455  1.0000
  Fe  Fe72      1.0  0.55974  0.05793  0.63849  1.0000
  S   S143      1.0  0.57741  0.01958  0.63639  1.0000
  S   S144      1.0  0.57446  0.08536  0.65802  1.0000
  C   C431      1.0  0.55957  0.01890  0.71204  1.0000
  S   S145      1.0  0.67061  0.26516  0.89036  1.0000
  H   H744      1.0  0.73440  0.12767  0.94680  1.0000
  C   C432      1.0  0.92301  0.02189  0.95101  1.0000
  C   C433      1.0  0.78960  0.19734  0.95896  1.0000
  Fe  Fe73      1.0  0.56577  0.02545  0.59508  1.0000
  H   H745      1.0  0.80475  0.18638  0.94788  1.0000
  H   H746      1.0  0.63808  0.13133  0.93902  1.0000
  S   S146      1.0  0.55124  0.06485  0.59563  1.0000
  H   H747      1.0  0.85953  0.31720  0.86088  1.0000
  H   H748      1.0  0.69988  0.15886  0.93379  1.0000
  H   H749      1.0  0.80053  0.16385  0.84090  1.0000
  H   H750      1.0  0.70763  0.30550  0.76830  1.0000
  H   H751      1.0  0.65017  0.11420  0.86752  1.0000
  H   H752      1.0  0.59506  0.15377  0.88639  1.0000
  H   H753      1.0  0.74990  0.18748  0.80310  1.0000
  H   H754      1.0  0.66641  0.09054  0.93586  1.0000
  C   C434      1.0  0.78065  0.27014  0.85889  1.0000
  H   H755      1.0  0.66993  0.09906  0.90115  1.0000
  H   H756      1.0  0.77075  0.11077  0.78596  1.0000
  H   H757      1.0  0.77774  0.22987  0.93090  1.0000
  H   H758      1.0  0.53922  0.01988  0.55313  1.0000
  N   N33       1.0  0.54246  0.02122  0.73721  1.0000
  S   S147      1.0  0.52981  0.01258  0.60838  1.0000
  H   H759      1.0  0.64749  0.16350  0.90779  1.0000
  N   N34       1.0  0.86552  0.31188  0.80492  1.0000
  H   H760      1.0  0.73424  0.29683  0.83349  1.0000
  H   H761      1.0  0.73491  0.02673  0.95186  1.0000
  H   H762      1.0  0.59404  0.00033  0.69583  1.0000
  C   C435      1.0  0.66625  0.28278  0.79377  1.0000
  H   H763      1.0  0.78713  0.16219  0.81177  1.0000
  H   H764      1.0  0.75358  0.24776  0.79106  1.0000
  C   C436      1.0  0.76559  0.25224  0.86027  1.0000
  H   H765      1.0  0.52607  0.31910  0.96099  1.0000
  H   H766      1.0  0.76737  0.24113  0.84438  1.0000
  H   H767      1.0  0.73603  0.23541  0.88300  1.0000
  C   C437      1.0  0.63364  0.17500  0.80741  1.0000
  C   C438      1.0  0.62331  0.19050  0.82616  1.0000
  C   C439      1.0  0.63735  0.20613  0.83424  1.0000
  C   C440      1.0  0.66153  0.20631  0.82335  1.0000
  C   C441      1.0  0.67125  0.19197  0.80337  1.0000
  C   C442      1.0  0.65732  0.17630  0.79543  1.0000
  H   H768      1.0  0.60487  0.18970  0.83521  1.0000
  H   H769      1.0  0.62955  0.21778  0.84908  1.0000
  H   H770      1.0  0.68985  0.19230  0.79474  1.0000
  H   H771      1.0  0.66503  0.16485  0.78037  1.0000
  C   C443      1.0  0.74027  0.14509  0.74538  1.0000
  C   C444      1.0  0.72131  0.16391  0.74925  1.0000
  C   C445      1.0  0.72640  0.18758  0.74892  1.0000
  C   C446      1.0  0.75047  0.19236  0.74583  1.0000
  C   C447      1.0  0.76946  0.17349  0.74214  1.0000
  C   C448      1.0  0.76432  0.15001  0.74131  1.0000
  H   H772      1.0  0.70272  0.16029  0.75214  1.0000
  H   H773      1.0  0.71168  0.20222  0.75144  1.0000
  H   H774      1.0  0.78808  0.17706  0.73958  1.0000
  H   H775      1.0  0.77908  0.13551  0.73824  1.0000
  C   C449      1.0  0.62902  0.05891  0.71933  1.0000
  C   C450      1.0  0.61592  0.08219  0.71845  1.0000
  C   C451      1.0  0.59945  0.09024  0.69929  1.0000
  C   C452      1.0  0.59601  0.07508  0.68099  1.0000
  C   C453      1.0  0.60948  0.05199  0.68159  1.0000
  C   C454      1.0  0.62580  0.04387  0.70083  1.0000
  H   H776      1.0  0.61817  0.09385  0.73277  1.0000
  H   H777      1.0  0.58908  0.10815  0.69890  1.0000
  H   H778      1.0  0.60729  0.04036  0.66727  1.0000
  H   H779      1.0  0.63598  0.02587  0.70138  1.0000
  C   C455      1.0  0.84991  0.15919  0.83944  1.0000
  C   C456      1.0  0.84430  0.17841  0.85476  1.0000
  C   C457      1.0  0.84001  0.17364  0.88275  1.0000
  C   C458      1.0  0.84046  0.14972  0.89531  1.0000
  C   C459      1.0  0.84573  0.13061  0.87990  1.0000
  C   C460      1.0  0.85088  0.13531  0.85210  1.0000
  H   H780      1.0  0.84342  0.19690  0.84503  1.0000
  H   H781      1.0  0.83601  0.18849  0.89457  1.0000
  H   H782      1.0  0.84616  0.11215  0.88937  1.0000
  H   H783      1.0  0.85500  0.12044  0.84028  1.0000
  C   C461      1.0  0.76390  0.05827  0.87694  1.0000
  C   C462      1.0  0.74553  0.06246  0.89774  1.0000
  C   C463      1.0  0.72111  0.06366  0.89345  1.0000
  C   C464      1.0  0.71496  0.06188  0.86804  1.0000
  C   C465      1.0  0.73333  0.05803  0.84717  1.0000
  C   C466      1.0  0.75778  0.05575  0.85177  1.0000
  H   H784      1.0  0.75012  0.06448  0.91724  1.0000
  H   H785      1.0  0.70699  0.06644  0.90972  1.0000
  H   H786      1.0  0.72872  0.05643  0.82757  1.0000
  H   H787      1.0  0.77196  0.05244  0.83565  1.0000
  H   H788      1.0  0.80664  0.13656  0.82611  1.0000
  H   H789      1.0  0.73090  0.20600  0.82470  1.0000
  H   H790      1.0  0.77505  0.00152  0.95417  1.0000
  C   C467      1.0  0.55499  0.02477  0.76063  1.0000
  H   H791      1.0  0.49439  0.00843  0.76317  1.0000
  H   H792      1.0  0.50689  0.04688  0.50906  1.0000
  H   H793      1.0  0.67785  0.11861  0.92285  1.0000
  C   C468      1.0  0.86487  0.30361  0.64147  1.0000
  C   C469      1.0  0.74571  0.26311  0.90308  1.0000
  H   H794      1.0  0.82553  0.30658  0.63745  1.0000
  C   C470      1.0  0.70844  0.31189  0.78784  1.0000
  C   C471      1.0  0.52899  0.06713  0.72298  1.0000
  C   C472      1.0  0.86454  0.29460  0.71603  1.0000
  C   C473      1.0  0.61885  0.09711  0.88137  1.0000
  H   H795      1.0  0.51238  0.07976  0.71818  1.0000
  H   H796      1.0  0.66286  0.15177  0.85063  1.0000
  H   H797      1.0  0.82623  0.29915  0.72879  1.0000
  H   H798      1.0  0.66926  0.29506  0.77490  1.0000
  C   C474      1.0  0.76115  0.28052  0.90190  1.0000
  H   H799      1.0  0.51129  0.99626  0.53785  1.0000
  C   C475      1.0  0.51158  0.99687  0.76801  1.0000
  C   C476      1.0  0.84220  0.30799  0.72347  1.0000
  H   H800      1.0  0.62320  0.13171  0.85785  1.0000
  Fe  Fe74      1.0  0.82503  0.05693  0.97109  1.0000
  H   H801      1.0  0.51297  0.05497  0.55416  1.0000
  Fe  Fe75      1.0  0.54005  0.01004  0.64955  1.0000
  C   C477      1.0  0.74594  0.26681  0.79314  1.0000
  C   C478      1.0  0.66473  0.10655  0.92023  1.0000
  C   C479      1.0  0.63116  0.12025  0.87528  1.0000
  N   N35       1.0  0.69604  0.10004  0.66938  1.0000
  C   C480      1.0  0.70695  0.07384  0.66847  1.0000
  C   C481      1.0  0.69979  0.11292  0.64129  1.0000
  C   C482      1.0  0.66922  0.10058  0.67817  1.0000
  C   C483      1.0  0.70853  0.11005  0.68906  1.0000
  C   C484      1.0  0.70140  0.05601  0.69385  1.0000
  C   C485      1.0  0.72650  0.11372  0.62968  1.0000
  C   C486      1.0  0.65337  0.12558  0.67652  1.0000
  C   C487      1.0  0.70522  0.13791  0.68863  1.0000
  H   H802      1.0  0.70076  0.06656  0.65166  1.0000
  H   H803      1.0  0.72710  0.07204  0.66461  1.0000
  H   H804      1.0  0.69082  0.13190  0.63934  1.0000
  H   H805      1.0  0.69094  0.10435  0.62740  1.0000
  H   H806      1.0  0.66110  0.08940  0.66624  1.0000
  H   H807      1.0  0.66618  0.09222  0.69934  1.0000
  H   H808      1.0  0.70272  0.10226  0.70982  1.0000
  H   H809      1.0  0.72847  0.10385  0.68681  1.0000
  H   H810      1.0  0.71314  0.03838  0.69225  1.0000
  H   H811      1.0  0.70493  0.06238  0.71240  1.0000
  H   H812      1.0  0.68239  0.05224  0.69568  1.0000
  H   H813      1.0  0.73603  0.09551  0.62619  1.0000
  H   H814      1.0  0.72699  0.12519  0.60991  1.0000
  H   H815      1.0  0.73663  0.12190  0.64255  1.0000
  H   H816      1.0  0.65300  0.13494  0.65580  1.0000
  H   H817      1.0  0.65838  0.13733  0.68990  1.0000
  H   H818      1.0  0.63430  0.12292  0.68363  1.0000
  H   H819      1.0  0.69486  0.14299  0.70758  1.0000
  H   H820      1.0  0.69600  0.14874  0.67204  1.0000
  H   H821      1.0  0.72327  0.14405  0.68764  1.0000
  N   N36       1.0  0.74721  0.14302  0.83925  1.0000
  C   C488      1.0  0.73287  0.12497  0.85675  1.0000
  C   C489      1.0  0.74991  0.13648  0.81124  1.0000
  C   C490      1.0  0.73236  0.16774  0.83968  1.0000
  C   C491      1.0  0.77123  0.14185  0.85014  1.0000
  C   C492      1.0  0.72822  0.12788  0.88679  1.0000
  C   C493      1.0  0.76399  0.11122  0.80738  1.0000
  C   C494      1.0  0.74422  0.18928  0.82442  1.0000
  C   C495      1.0  0.79213  0.15163  0.83077  1.0000
  H   H822      1.0  0.71503  0.12515  0.84924  1.0000
  H   H823      1.0  0.74242  0.10626  0.85601  1.0000
  H   H824      1.0  0.75871  0.14976  0.79657  1.0000
  H   H825      1.0  0.73172  0.13733  0.80421  1.0000
  H   H826      1.0  0.71466  0.16813  0.83169  1.0000
  H   H827      1.0  0.72781  0.17234  0.86034  1.0000
  H   H828      1.0  0.76876  0.15168  0.86790  1.0000
  H   H829      1.0  0.77823  0.12275  0.85774  1.0000
  H   H830      1.0  0.74530  0.12677  0.89588  1.0000
  H   H831      1.0  0.71626  0.14477  0.89078  1.0000
  H   H832      1.0  0.71882  0.11279  0.89757  1.0000
  H   H833      1.0  0.77996  0.10624  0.81883  1.0000
  H   H834      1.0  0.75173  0.09721  0.81276  1.0000
  H   H835      1.0  0.71097  0.26214  0.78576  1.0000
  H   H836      1.0  0.89163  0.04211  0.93294  1.0000
  H   H837      1.0  0.71688  0.25294  0.81953  1.0000
  H   H838      1.0  0.54144  0.03193  0.77655  1.0000
  H   H839      1.0  0.85060  0.28794  0.87183  1.0000
  C   C496      1.0  0.71878  0.26768  0.80253  1.0000
  H   H840      1.0  0.90632  0.01810  0.91493  1.0000
  C   C497      1.0  0.86267  0.29345  0.82944  1.0000
  H   H841      1.0  0.82625  0.31613  0.80589  1.0000
  C   C498      1.0  0.88506  0.30641  0.70842  1.0000
  C   C499      1.0  0.85014  0.30314  0.85518  1.0000
  H   H842      1.0  0.71252  0.27991  0.85155  1.0000
  H   H843      1.0  0.62624  0.10643  0.93209  1.0000
  H   H844      1.0  0.98355  0.01456  0.94523  1.0000
  S   S148      1.0  0.78908  0.05041  0.96079  1.0000
  H   H845      1.0  0.83605  0.28581  0.66483  1.0000
  H   H846      1.0  0.77180  0.02074  0.92354  1.0000
  S   S149      1.0  0.60424  0.28375  0.92155  1.0000
  N   N37       1.0  0.70565  0.29146  0.81035  1.0000
  H   H847      1.0  0.57361  0.05274  0.77127  1.0000
  S   S150      1.0  0.65162  0.17124  0.96126  1.0000
  H   H848      1.0  0.83066  0.30991  0.85348  1.0000
  S   S151      1.0  0.58928  0.00896  0.56129  1.0000
  H   H849      1.0  0.93458  0.03490  0.93916  1.0000
  H   H850      1.0  0.87539  0.31057  0.76257  1.0000
  C   C500      1.0  0.71453  0.29572  0.83584  1.0000
  H   H851      1.0  0.73787  0.01230  0.88258  1.0000
  H   H852      1.0  0.50880  0.04327  0.74972  1.0000
  Fe  Fe76      1.0  0.51584  0.05152  0.61185  1.0000
  C   C501      1.0  0.87290  0.29800  0.78129  1.0000
  C   C502      1.0  0.73881  0.00908  0.94377  1.0000
  C   C503      1.0  0.67902  0.28888  0.81662  1.0000
  C   C504      1.0  0.74782  0.24901  0.88217  1.0000
  C   C505      1.0  0.57091  0.99423  0.54559  1.0000
  C   C506      1.0  0.49135  0.05285  0.52257  1.0000
  C   C507      1.0  0.53047  0.98951  0.53716  1.0000
  C   C508      1.0  0.71783  0.12979  0.96008  1.0000
  C   C509      1.0  0.89629  0.27957  0.78223  1.0000
  H   H853      1.0  0.75964  0.29136  0.91806  1.0000
  C   C510      1.0  0.60902  0.31206  0.92869  1.0000
  H   H854      1.0  0.87009  0.28746  0.63064  1.0000
  H   H855      1.0  0.76642  0.18551  0.89171  1.0000
  H   H856      1.0  0.80782  0.22744  0.93834  1.0000
  H   H857      1.0  0.74892  0.27748  0.77315  1.0000
  H   H858      1.0  0.57754  0.16836  0.92819  1.0000
  C   C511      1.0  0.54619  0.00286  0.54594  1.0000
  H   H859      1.0  0.78383  0.16376  0.91377  1.0000
  C   C512      1.0  0.76632  0.00384  0.93526  1.0000
  H   H860      1.0  0.75398  0.15204  0.96964  1.0000
  H   H861      1.0  0.81303  0.01102  0.92595  1.0000
  C   C513      1.0  0.78928  0.22429  0.94736  1.0000
  H   H862      1.0  0.91619  0.02959  0.96981  1.0000
  H   H863      1.0  0.83270  0.31719  0.66737  1.0000
  H   H864      1.0  0.56734  0.29847  0.96403  1.0000
  S   S152      1.0  0.52289  0.04793  0.65486  1.0000
  H   H865      1.0  0.59236  0.12924  0.91252  1.0000
  Fe  Fe77      1.0  0.69207  0.24452  0.92254  1.0000
  S   S153      1.0  0.65951  0.23955  0.95238  1.0000
  C   C514      1.0  0.89841  0.32169  0.61515  1.0000
  H   H866      1.0  0.89964  0.27136  0.76329  1.0000
  H   H867      1.0  0.85800  0.28796  0.77831  1.0000
  Fe  Fe78      1.0  0.63809  0.25682  0.91850  1.0000
  H   H868      1.0  0.62664  0.08427  0.89781  1.0000
  C   C515      1.0  0.69834  0.14747  0.95275  1.0000
  C   C516      1.0  0.77829  0.28428  0.87971  1.0000
  C   C517      1.0  0.77561  0.18300  0.91020  1.0000
  H   H869      1.0  0.79009  0.19479  0.90607  1.0000
  C   C518      1.0  0.59739  0.16210  0.92593  1.0000
  H   H870      1.0  0.67637  0.16893  0.87004  1.0000
  H   H871      1.0  0.78500  0.15114  0.95812  1.0000
  H   H872      1.0  0.66834  0.30588  0.82279  1.0000
  C   C519      1.0  0.66672  0.15295  0.87121  1.0000
  C   C520      1.0  0.64302  0.15650  0.88996  1.0000
  S   S154      1.0  0.72485  0.25852  0.93154  1.0000
  C   C521      1.0  0.60305  0.14432  0.90480  1.0000
  H   H873      1.0  0.67624  0.27460  0.83384  1.0000
  C   C522      1.0  0.75673  0.19017  0.93348  1.0000
  H   H874      1.0  0.87515  0.29976  0.65918  1.0000
  H   H875      1.0  0.74183  0.17908  0.93411  1.0000
  H   H876      1.0  0.67161  0.26363  0.79019  1.0000
  H   H877      1.0  0.74823  0.20905  0.92757  1.0000
  H   H878      1.0  0.71332  0.19371  0.96605  1.0000
  H   H879      1.0  0.63140  0.17184  0.87937  1.0000
  H   H880      1.0  0.90243  0.29605  0.70287  1.0000
  C   C523      1.0  0.49489  0.05730  0.54811  1.0000
  H   H881      1.0  0.51757  0.00166  0.78624  1.0000
  H   H882      1.0  0.56762  0.03560  0.70463  1.0000
  N   N38       1.0  0.62954  0.13487  0.89821  1.0000
  C   C524      1.0  0.74623  0.99317  0.88238  1.0000
  H   H883      1.0  0.62230  0.08751  0.86343  1.0000
  C   C525      1.0  0.52205  0.04153  0.73167  1.0000
  H   H884      1.0  0.59336  0.03060  0.75489  1.0000
  H   H885      1.0  0.74731  0.31337  0.79434  1.0000
  H   H886      1.0  0.96431  0.03678  0.96406  1.0000
  C   C526      1.0  0.63857  0.11982  0.92297  1.0000
  H   H887      1.0  0.60640  0.17854  0.91999  1.0000
  Fe  Fe79      1.0  0.77553  0.08800  0.97036  1.0000
  S   S155      1.0  0.80204  0.27620  0.83124  1.0000
  H   H888      1.0  0.91460  0.29814  0.64904  1.0000
  H   H889      1.0  0.78298  0.23627  0.96308  1.0000
  H   H890      1.0  0.53607  0.07402  0.73934  1.0000
  H   H891      1.0  0.58252  0.25719  0.97673  1.0000
  H   H892      1.0  0.85225  0.27922  0.82565  1.0000
  H   H893      1.0  0.60225  0.15337  0.94590  1.0000
  H   H894      1.0  0.59888  0.10116  0.88560  1.0000
  H   H895      1.0  0.67894  0.13667  0.87823  1.0000
  H   H896      1.0  0.51169  0.03750  0.71591  1.0000
  H   H897      1.0  0.75635  0.27256  0.80749  1.0000
  H   H898      1.0  0.54183  0.06838  0.70457  1.0000
  C   C527      1.0  0.97365  0.01785  0.96492  1.0000
  H   H899      1.0  0.64543  0.30006  0.93904  1.0000
  H   H900      1.0  0.54946  0.01643  0.69546  1.0000
  C   C528      1.0  0.83813  0.30379  0.65305  1.0000
  H   H901      1.0  0.89451  0.26438  0.79860  1.0000
  H   H902      1.0  0.86312  0.31290  0.58864  1.0000
  H   H903      1.0  0.88066  0.28366  0.83447  1.0000
  C   C529      1.0  0.63068  0.31491  0.93800  1.0000
  H   H904      1.0  0.90287  0.30632  0.60305  1.0000
  H   H905      1.0  0.57442  0.05419  0.73617  1.0000
  C   C530      1.0  0.53138  0.99797  0.74397  1.0000
  C   C531      1.0  0.53640  0.32223  0.97708  1.0000
  H   H906      1.0  0.77964  0.00646  0.88286  1.0000
  H   H907      1.0  0.49030  0.00753  0.66531  1.0000
  H   H908      1.0  0.73282  0.99526  0.96016  1.0000
  H   H909      1.0  0.74382  0.22050  0.97041  1.0000
  H   H910      1.0  0.64636  0.28476  0.79984  1.0000
  H   H911      1.0  0.52333  0.99692  0.48400  1.0000
  H   H912      1.0  0.55169  0.02056  0.49015  1.0000
  C   C532      1.0  0.58079  0.99791  0.71389  1.0000
  C   C533      1.0  0.90090  0.02311  0.93532  1.0000
  H   H913      1.0  0.93434  0.31688  0.62861  1.0000
  H   H914      1.0  0.72766  0.01067  0.92707  1.0000
  N   N39       1.0  0.93741  0.99714  0.95717  1.0000
  H   H915      1.0  0.95860  0.00380  0.91876  1.0000
  H   H916      1.0  0.56386  0.00696  0.76993  1.0000
  H   H917      1.0  0.52313  0.99412  0.72652  1.0000
  C   C534      1.0  0.70166  0.31843  0.84807  1.0000
  H   H918      1.0  0.90170  0.31483  0.81296  1.0000
  C   C535      1.0  0.91528  0.31647  0.63770  1.0000
  C   C536      1.0  0.77012  0.16074  0.97087  1.0000
  H   H919      1.0  0.88714  0.01194  0.94603  1.0000
  C   C537      1.0  0.67665  0.14989  0.96980  1.0000
  H   H920      1.0  0.59067  0.99733  0.73152  1.0000
  H   H921      1.0  0.81789  0.00276  0.89237  1.0000
  C   C538      1.0  0.81809  0.99578  0.91392  1.0000
  H   H922      1.0  0.68337  0.31559  0.85814  1.0000
  H   H923      1.0  0.91245  0.28821  0.78358  1.0000
  H   H924      1.0  0.71228  0.32187  0.86381  1.0000
  C   C539      1.0  0.95590  0.99942  0.97546  1.0000
  Fe  Fe80      1.0  0.55750  0.58993  0.13729  1.0000
  S   S156      1.0  0.55084  0.60531  0.09519  1.0000
  S   S157      1.0  0.58324  0.60309  0.16090  1.0000
  Fe  Fe81      1.0  0.52531  0.55036  0.13914  1.0000
  Fe  Fe82      1.0  0.51222  0.60002  0.10891  1.0000
  H   H925      1.0  0.50461  0.40697  0.10291  1.0000
  Fe  Fe83      1.0  0.55520  0.56661  0.08767  1.0000
  S   S158      1.0  0.57648  0.55264  0.05130  1.0000
  H   H926      1.0  0.53166  0.41961  0.10175  1.0000
  S   S159      1.0  0.56526  0.55148  0.12858  1.0000
  S   S160      1.0  0.51823  0.58759  0.15187  1.0000
  Fe  Fe84      1.0  0.52629  0.39901  0.99906  1.0000
  C   C540      1.0  0.63893  0.64219  0.13960  1.0000
  Fe  Fe85      1.0  0.55502  0.43170  0.02025  1.0000
  S   S161      1.0  0.55881  0.44385  0.05931  1.0000
  C   C541      1.0  0.59504  0.63893  0.12051  1.0000
  S   S162      1.0  0.56102  0.39187  0.01788  1.0000
  H   H927      1.0  0.90591  0.65065  0.37490  1.0000
  H   H928      1.0  0.91056  0.52926  0.43163  1.0000
  S   S163      1.0  0.94193  0.56466  0.43473  1.0000
  C   C542      1.0  0.95670  0.48241  0.43796  1.0000
  H   H929      1.0  0.96431  0.37210  0.38770  1.0000
  C   C543      1.0  0.93338  0.49467  0.43444  1.0000
  H   H930      1.0  0.52720  0.46367  0.17451  1.0000
  C   C544      1.0  0.97112  0.52097  0.43736  1.0000
  C   C545      1.0  0.92876  0.51998  0.43342  1.0000
  H   H931      1.0  0.62044  0.64549  0.20633  1.0000
  H   H932      1.0  0.58503  0.61715  0.03714  1.0000
  H   H933      1.0  0.54638  0.57720  0.98663  1.0000
  H   H934      1.0  0.50280  0.53084  0.02907  1.0000
  S   S164      1.0  0.51846  0.43823  0.00489  1.0000
  C   C546      1.0  0.51949  0.53537  0.01631  1.0000
  H   H935      1.0  0.94757  0.45782  0.35963  1.0000
  C   C547      1.0  0.51862  0.44436  0.14398  1.0000
  H   H936      1.0  0.82959  0.62537  0.19640  1.0000
  H   H937      1.0  0.80482  0.62694  0.15895  1.0000
  H   H938      1.0  0.95555  0.42692  0.39702  1.0000
  H   H939      1.0  0.97774  0.45602  0.36764  1.0000
  Fe  Fe86      1.0  0.85897  0.59883  0.47448  1.0000
  H   H940      1.0  0.54096  0.39884  0.14434  1.0000
  H   H941      1.0  0.52116  0.36087  0.15976  1.0000
  H   H942      1.0  0.66722  0.64075  0.04019  1.0000
  H   H943      1.0  0.69790  0.62217  0.25846  1.0000
  H   H944      1.0  0.80520  0.57037  0.45823  1.0000
  H   H945      1.0  0.49296  0.37670  0.14963  1.0000
  H   H946      1.0  0.81820  0.54006  0.45513  1.0000
  H   H947      1.0  0.88726  0.57681  0.34525  1.0000
  H   H948      1.0  0.54198  0.49566  0.98148  1.0000
  C   C548      1.0  0.60205  0.62361  0.14325  1.0000
  H   H949      1.0  0.52705  0.54832  0.02637  1.0000
  H   H950      1.0  0.65596  0.64309  0.14686  1.0000
  H   H951      1.0  0.51644  0.60527  0.05692  1.0000
  C   C549      1.0  0.96545  0.44610  0.35931  1.0000
  C   C550      1.0  0.62408  0.62521  0.15270  1.0000
  C   C551      1.0  0.59343  0.32660  0.02781  1.0000
  H   H952      1.0  0.86188  0.56893  0.38355  1.0000
  C   C552      1.0  0.65093  0.56143  0.02755  1.0000
  H   H953      1.0  0.62964  0.61328  0.17022  1.0000
  C   C553      1.0  0.57303  0.52195  0.05379  1.0000
  C   C554      1.0  0.58254  0.50849  0.03290  1.0000
  C   C555      1.0  0.57807  0.48445  0.03422  1.0000
  C   C556      1.0  0.56484  0.47371  0.05687  1.0000
  C   C557      1.0  0.55629  0.48688  0.07818  1.0000
  C   C558      1.0  0.56010  0.51102  0.07649  1.0000
  H   H954      1.0  0.59312  0.51669  0.01563  1.0000
  H   H955      1.0  0.58524  0.47411  0.01799  1.0000
  H   H956      1.0  0.54643  0.47858  0.09594  1.0000
  H   H957      1.0  0.55301  0.52102  0.09292  1.0000
  C   C559      1.0  0.79873  0.63852  0.17437  1.0000
  C   C560      1.0  0.81274  0.63764  0.19553  1.0000
  H   H958      1.0  0.65647  0.55226  0.06843  1.0000
  N   N40       1.0  0.50764  0.42309  0.13832  1.0000
  C   C561      1.0  0.85095  0.65115  0.42655  1.0000
  H   H959      1.0  0.91870  0.48451  0.43357  1.0000
  C   C562      1.0  0.49918  0.60963  0.02094  1.0000
  H   H960      1.0  0.67022  0.56429  0.02252  1.0000
  H   H961      1.0  0.50982  0.46161  0.13366  1.0000
  C   C563      1.0  0.51185  0.42253  0.10847  1.0000
  H   H962      1.0  0.63431  0.57027  0.13432  1.0000
  C   C564      1.0  0.57782  0.32426  0.00573  1.0000
  H   H963      1.0  0.78202  0.61658  0.26465  1.0000
  H   H964      1.0  0.53233  0.51843  0.01595  1.0000
  H   H965      1.0  0.90817  0.64448  0.32954  1.0000
  H   H966      1.0  0.97586  0.38877  0.34336  1.0000
  C   C565      1.0  0.74361  0.62843  0.26116  1.0000
  N   N41       1.0  0.63842  0.58955  0.06504  1.0000
  S   S165      1.0  0.51402  0.51663  0.16402  1.0000
  H   H967      1.0  0.63983  0.57367  0.01337  1.0000
  H   H968      1.0  0.90149  0.62094  0.31199  1.0000
  C   C566      1.0  0.91577  0.55809  0.36857  1.0000
  H   H969      1.0  0.56200  0.33865  0.00711  1.0000
  H   H970      1.0  0.85016  0.58049  0.41414  1.0000
  H   H971      1.0  0.66304  0.58092  0.09582  1.0000
  C   C567      1.0  0.94765  0.53315  0.43488  1.0000
  H   H972      1.0  0.86521  0.61536  0.34625  1.0000
  H   H973      1.0  0.60894  0.57785  0.11558  1.0000
  C   C568      1.0  0.64346  0.58748  0.09383  1.0000
  H   H974      1.0  0.59980  0.58854  0.07391  1.0000
  H   H975      1.0  0.76428  0.61669  0.29628  1.0000
  C   C569      1.0  0.96226  0.42184  0.37682  1.0000
  H   H976      1.0  0.60843  0.61746  0.07366  1.0000
  S   S166      1.0  0.57581  0.44137  0.98050  1.0000
  H   H977      1.0  0.53818  0.44289  0.13587  1.0000
  H   H978      1.0  0.86291  0.64759  0.44212  1.0000
  H   H979      1.0  0.49798  0.45440  0.18142  1.0000
  H   H980      1.0  0.93391  0.63987  0.38856  1.0000
  C   C570      1.0  0.97735  0.38094  0.39646  1.0000
  C   C571      1.0  0.50037  0.44505  0.09075  1.0000
  C   C572      1.0  0.83057  0.63918  0.42896  1.0000
  S   S167      1.0  0.51582  0.56258  0.09750  1.0000
  H   H981      1.0  0.79864  0.63571  0.41115  1.0000
  S   S168      1.0  0.82304  0.65111  0.24176  1.0000
  C   C573      1.0  0.64235  0.56421  0.05716  1.0000
  H   H982      1.0  0.67508  0.59557  0.04988  1.0000
  H   H983      1.0  0.92073  0.54402  0.35493  1.0000
  H   H984      1.0  0.62562  0.55541  0.06277  1.0000
  H   H985      1.0  0.73986  0.60955  0.26137  1.0000
  S   S169      1.0  0.87464  0.56199  0.46418  1.0000
  H   H986      1.0  0.90652  0.63251  0.40744  1.0000
  H   H987      1.0  0.71892  0.63745  0.21515  1.0000
  H   H988      1.0  0.52305  0.32569  0.99444  1.0000
  C   C574      1.0  0.97555  0.49563  0.43941  1.0000
  Fe  Fe87      1.0  0.91064  0.57372  0.46530  1.0000
  C   C575      1.0  0.60430  0.60856  0.03514  1.0000
  S   S170      1.0  0.89516  0.61184  0.47148  1.0000
  C   C576      1.0  0.65612  0.60479  0.04835  1.0000
  S   S171      1.0  0.82542  0.61636  0.45564  1.0000
  H   H989      1.0  0.65361  0.60688  0.02680  1.0000
  C   C577      1.0  0.80388  0.55132  0.46687  1.0000
  H   H990      1.0  0.97162  0.44403  0.33811  1.0000
  C   C578      1.0  0.76639  0.62677  0.27587  1.0000
  H   H991      1.0  0.53516  0.32651  0.03740  1.0000
  C   C579      1.0  0.89381  0.63429  0.32584  1.0000
  H   H992      1.0  0.71405  0.61497  0.30300  1.0000
  C   C580      1.0  0.81464  0.64464  0.40919  1.0000
  H   H993      1.0  0.97588  0.39704  0.43387  1.0000
  C   C581      1.0  0.61242  0.60104  0.06330  1.0000
  C   C582      1.0  0.52116  0.39991  0.15123  1.0000
  H   H994      1.0  0.84488  0.59914  0.38359  1.0000
  H   H995      1.0  0.77157  0.64480  0.27667  1.0000
  H   H996      1.0  0.64979  0.54260  0.02423  1.0000
  H   H997      1.0  0.68327  0.65126  0.26317  1.0000
  H   H998      1.0  0.66214  0.63055  0.07490  1.0000
  N   N42       1.0  0.89642  0.60290  0.36841  1.0000
  C   C583      1.0  0.88207  0.59610  0.39487  1.0000
  C   C584      1.0  0.91931  0.61154  0.37363  1.0000
  C   C585      1.0  0.90336  0.58146  0.35310  1.0000
  C   C586      1.0  0.88097  0.62245  0.35204  1.0000
  C   C587      1.0  0.85855  0.58552  0.39348  1.0000
  C   C588      1.0  0.91579  0.63500  0.38682  1.0000
  H   H999      1.0  0.74937  0.63497  0.23990  1.0000
  H   H1000     1.0  0.60474  0.59272  0.02456  1.0000
  H   H1001     1.0  0.89352  0.58319  0.40848  1.0000
  H   H1002     1.0  0.50280  0.44118  0.06971  1.0000
  H   H1003     1.0  0.93171  0.61428  0.35486  1.0000
  H   H1004     1.0  0.92980  0.59757  0.38710  1.0000
  S   S172      1.0  0.96187  0.45059  0.44196  1.0000
  H   H1005     1.0  0.91614  0.58593  0.33507  1.0000
  H   H1006     1.0  0.51433  0.59955  0.01029  1.0000
  H   H1007     1.0  0.68947  0.63769  0.33614  1.0000
  H   H1008     1.0  0.93281  0.56078  0.37591  1.0000
  C   C589      1.0  0.62855  0.57077  0.11411  1.0000
  H   H1009     1.0  0.57786  0.63821  0.11342  1.0000
  H   H1010     1.0  0.94706  0.41455  0.36999  1.0000
  H   H1011     1.0  0.52014  0.39921  0.17317  1.0000
  H   H1012     1.0  0.87633  0.61214  0.40557  1.0000
  H   H1013     1.0  0.87287  0.63713  0.36403  1.0000
  H   H1014     1.0  0.63126  0.55184  0.10956  1.0000
  H   H1015     1.0  0.90353  0.55053  0.38554  1.0000
  H   H1016     1.0  0.50047  0.53558  0.98210  1.0000
  C   C590      1.0  0.65517  0.63066  0.05542  1.0000
  H   H1017     1.0  0.63971  0.60545  0.10116  1.0000
  C   C591      1.0  0.51269  0.54698  0.98833  1.0000
  H   H1018     1.0  0.51928  0.37217  0.12540  1.0000
  C   C592      1.0  0.51699  0.44852  0.17342  1.0000
  S   S173      1.0  0.50014  0.37182  0.00946  1.0000
  C   C593      1.0  0.50034  0.61288  0.04743  1.0000
  C   C594      1.0  0.80505  0.65260  0.21548  1.0000
  H   H1019     1.0  0.98553  0.56900  0.46166  1.0000
  H   H1020     1.0  0.52540  0.43276  0.18640  1.0000
  H   H1021     1.0  0.59720  0.34563  0.02561  1.0000
  H   H1022     1.0  0.63635  0.65573  0.22976  1.0000
  C   C595      1.0  0.51291  0.37628  0.14602  1.0000
  H   H1023     1.0  0.50961  0.46107  0.09072  1.0000
  C   C596      1.0  0.96589  0.38543  0.42484  1.0000
  H   H1024     1.0  0.61483  0.62217  0.02297  1.0000
  H   H1025     1.0  0.58822  0.32972  0.98636  1.0000
  H   H1026     1.0  0.72970  0.63690  0.31275  1.0000
  H   H1027     1.0  0.94658  0.39368  0.42483  1.0000
  C   C597      1.0  0.71510  0.63477  0.30072  1.0000
  H   H1028     1.0  0.88023  0.64771  0.31542  1.0000
  H   H1029     1.0  0.78623  0.54632  0.46368  1.0000
  N   N43       1.0  0.72113  0.64426  0.27168  1.0000
  H   H1030     1.0  0.96621  0.36784  0.43805  1.0000
  C   C598      1.0  0.70096  0.64149  0.25590  1.0000
  H   H1031     1.0  0.50103  0.56438  0.99173  1.0000
  H   H1032     1.0  0.63674  0.64114  0.05536  1.0000
  H   H1033     1.0  0.56031  0.54737  0.99476  1.0000
  H   H1034     1.0  0.68768  0.65003  0.21701  1.0000
  C   C599      1.0  0.69150  0.64681  0.31521  1.0000
  H   H1035     1.0  0.67502  0.64487  0.30628  1.0000
  H   H1036     1.0  0.98579  0.53103  0.43849  1.0000
  C   C600      1.0  0.70490  0.64996  0.22564  1.0000
  H   H1037     1.0  0.56737  0.51173  0.98252  1.0000
  N   N44       1.0  0.98441  0.40287  0.37787  1.0000
  C   C601      1.0  0.77688  0.65427  0.17309  1.0000
  S   S174      1.0  0.75980  0.65501  0.14630  1.0000
  C   C602      1.0  0.60990  0.65593  0.10741  1.0000
  S   S175      1.0  0.54435  0.40565  0.95730  1.0000
  C   C603      1.0  0.96667  0.45381  0.68021  1.0000
  H   H1038     1.0  0.93733  0.58312  0.60359  1.0000
  H   H1039     1.0  0.77770  0.59998  0.54686  1.0000
  H   H1040     1.0  0.73930  0.53780  0.54760  1.0000
  H   H1041     1.0  0.92417  0.48644  0.61106  1.0000
  Fe  Fe88      1.0  0.89421  0.59727  0.51509  1.0000
  C   C604      1.0  0.95115  0.61505  0.63238  1.0000
  S   S176      1.0  0.85660  0.58742  0.51869  1.0000
  S   S177      1.0  0.90290  0.61960  0.54454  1.0000
  C   C605      1.0  0.88325  0.33151  0.70863  1.0000
  S   S178      1.0  0.86205  0.51616  0.52381  1.0000
  H   H1042     1.0  0.90445  0.33763  0.60192  1.0000
  Fe  Fe89      1.0  0.93013  0.41660  0.67213  1.0000
  S   S179      1.0  0.89514  0.43012  0.69527  1.0000
  H   H1043     1.0  0.92968  0.46320  0.67092  1.0000
  Fe  Fe90      1.0  0.90484  0.40127  0.62946  1.0000
  S   S180      1.0  0.86762  0.41399  0.64839  1.0000
  C   C606      1.0  0.93193  0.60171  0.65082  1.0000
  Fe  Fe91      1.0  0.88350  0.44640  0.65522  1.0000
  S   S181      1.0  0.86734  0.48551  0.64736  1.0000
  Fe  Fe92      1.0  0.88251  0.39646  0.68667  1.0000
  S   S182      1.0  0.85798  0.37602  0.71730  1.0000
  S   S183      1.0  0.91931  0.43523  0.63271  1.0000
  S   S184      1.0  0.91874  0.38111  0.66714  1.0000
  C   C607      1.0  0.86250  0.50816  0.55833  1.0000
  C   C608      1.0  0.86299  0.52565  0.57500  1.0000
  C   C609      1.0  0.86363  0.51868  0.60258  1.0000
  C   C610      1.0  0.86483  0.49419  0.61325  1.0000
  C   C611      1.0  0.86453  0.47675  0.59649  1.0000
  C   C612      1.0  0.86289  0.48379  0.56912  1.0000
  H   H1044     1.0  0.86268  0.54450  0.56673  1.0000
  H   H1045     1.0  0.86358  0.53213  0.61568  1.0000
  H   H1046     1.0  0.86540  0.45783  0.60466  1.0000
  H   H1047     1.0  0.86257  0.47023  0.55622  1.0000
  H   H1048     1.0  0.84590  0.36483  0.80267  1.0000
  N   N45       1.0  0.91255  0.59398  0.63713  1.0000
  C   C613      1.0  0.94207  0.38715  0.57783  1.0000
  H   H1049     1.0  0.91684  0.50698  0.58237  1.0000
  C   C614      1.0  0.74597  0.55504  0.53843  1.0000
  H   H1050     1.0  0.49779  0.49306  0.97489  1.0000
  C   C615      1.0  0.49945  0.48870  0.93330  1.0000
  H   H1051     1.0  0.95237  0.39361  0.61524  1.0000
  C   C616      1.0  0.90089  0.61614  0.62037  1.0000
  C   C617      1.0  0.79925  0.52468  0.55569  1.0000
  C   C618      1.0  0.61332  0.35557  0.94722  1.0000
  C   C619      1.0  0.59219  0.35313  0.93654  1.0000
  H   H1052     1.0  0.92379  0.51128  0.53825  1.0000
  H   H1053     1.0  0.97324  0.58078  0.49269  1.0000
  H   H1054     1.0  0.55373  0.53317  0.93400  1.0000
  H   H1055     1.0  0.96440  0.50272  0.54615  1.0000
  H   H1056     1.0  0.87040  0.63194  0.59817  1.0000
  H   H1057     1.0  0.95500  0.45280  0.51275  1.0000
  H   H1058     1.0  0.89624  0.36119  0.78847  1.0000
  C   C620      1.0  0.76603  0.55021  0.51514  1.0000
  C   C621      1.0  0.94536  0.45113  0.53329  1.0000
  H   H1059     1.0  0.89918  0.63245  0.63085  1.0000
  C   C622      1.0  0.50029  0.56741  0.93431  1.0000
  H   H1060     1.0  0.87403  0.59982  0.60272  1.0000
  C   C623      1.0  0.92477  0.57507  0.61988  1.0000
  H   H1061     1.0  0.90619  0.48863  0.53570  1.0000
  H   H1062     1.0  0.93707  0.56082  0.63104  1.0000
  H   H1063     1.0  0.92599  0.42445  0.52175  1.0000
  H   H1064     1.0  0.96252  0.60315  0.61875  1.0000
  S   S185      1.0  0.61475  0.38078  0.96322  1.0000
  H   H1065     1.0  0.90854  0.45349  0.52018  1.0000
  C   C624      1.0  0.98369  0.56500  0.48374  1.0000
  H   H1066     1.0  0.94156  0.57869  0.54674  1.0000
  C   C625      1.0  0.90337  0.56123  0.67688  1.0000
  C   C626      1.0  0.93370  0.61703  0.54903  1.0000
  C   C627      1.0  0.57579  0.56499  0.95797  1.0000
  H   H1067     1.0  0.94314  0.63191  0.62063  1.0000
  N   N46       1.0  0.94254  0.47465  0.54493  1.0000
  H   H1068     1.0  0.91263  0.43529  0.55223  1.0000
  H   H1069     1.0  0.92357  0.61382  0.66596  1.0000
  C   C628      1.0  0.63281  0.33668  0.94726  1.0000
  H   H1070     1.0  0.87948  0.33756  0.82471  1.0000
  C   C629      1.0  0.94279  0.63749  0.55397  1.0000
  C   C630      1.0  0.97235  0.59259  0.55728  1.0000
  C   C631      1.0  0.90836  0.56238  0.60606  1.0000
  H   H1071     1.0  0.91013  0.54602  0.66519  1.0000
  H   H1072     1.0  0.81854  0.55529  0.54236  1.0000
  H   H1073     1.0  0.91745  0.54378  0.60359  1.0000
  C   C632      1.0  0.94640  0.49493  0.67050  1.0000
  S   S186      1.0  0.91142  0.38668  0.59001  1.0000
  C   C633      1.0  0.88483  0.32687  0.80772  1.0000
  C   C634      1.0  0.96676  0.48378  0.54137  1.0000
  H   H1074     1.0  0.86137  0.61660  0.63027  1.0000
  H   H1075     1.0  0.57143  0.58023  0.94210  1.0000
  H   H1076     1.0  0.78266  0.59083  0.48804  1.0000
  H   H1077     1.0  0.97459  0.48484  0.52010  1.0000
  H   H1078     1.0  0.94813  0.49895  0.58986  1.0000
  H   H1079     1.0  0.81102  0.51183  0.54349  1.0000
  C   C635      1.0  0.92158  0.44088  0.53201  1.0000
  C   C636      1.0  0.95833  0.39159  0.59455  1.0000
  H   H1080     1.0  0.57338  0.32935  0.91979  1.0000
  H   H1081     1.0  0.80657  0.52192  0.57539  1.0000
  H   H1082     1.0  0.98368  0.57519  0.55886  1.0000
  C   C637      1.0  0.83483  0.35077  0.81287  1.0000
  H   H1083     1.0  0.89086  0.55980  0.61788  1.0000
  Fe  Fe93      1.0  0.57878  0.40185  0.97652  1.0000
  H   H1084     1.0  0.58435  0.54855  0.94898  1.0000
  C   C638      1.0  0.54199  0.52908  0.95302  1.0000
  C   C639      1.0  0.77258  0.60226  0.52624  1.0000
  H   H1085     1.0  0.75154  0.56323  0.55467  1.0000
  S   S187      1.0  0.96754  0.53560  0.66891  1.0000
  H   H1086     1.0  0.97250  0.55000  0.48904  1.0000
  H   H1087     1.0  0.88297  0.34744  0.56698  1.0000
  H   H1088     1.0  0.91760  0.56406  0.68889  1.0000
  H   H1089     1.0  0.95697  0.43663  0.54493  1.0000
  C   C640      1.0  0.83979  0.36141  0.64042  1.0000
  C   C641      1.0  0.89412  0.58438  0.65875  1.0000
  H   H1090     1.0  0.93769  0.38034  0.53828  1.0000
  H   H1091     1.0  0.91258  0.62024  0.60138  1.0000
  C   C642      1.0  0.98610  0.46874  0.55854  1.0000
  H   H1092     1.0  0.88652  0.59853  0.67187  1.0000
  H   H1093     1.0  0.52654  0.52255  0.94614  1.0000
  H   H1094     1.0  0.93036  0.50705  0.66522  1.0000
  C   C643      1.0  0.94607  0.46990  0.67358  1.0000
  H   H1095     1.0  0.87817  0.58010  0.65051  1.0000
  C   C644      1.0  0.93067  0.49210  0.58982  1.0000
  H   H1096     1.0  0.90510  0.57230  0.58599  1.0000
  H   H1097     1.0  0.54500  0.33873  0.96934  1.0000
  C   C645      1.0  0.94863  0.59461  0.55014  1.0000
  C   C646      1.0  0.93319  0.47024  0.57410  1.0000
  H   H1098     1.0  0.87790  0.36181  0.62922  1.0000
  H   H1099     1.0  0.56716  0.49567  0.95569  1.0000
  C   C647      1.0  0.92986  0.49820  0.50028  1.0000
  H   H1100     1.0  0.50319  0.55146  0.92330  1.0000
  H   H1101     1.0  0.76854  0.53037  0.51389  1.0000
  H   H1102     1.0  0.94483  0.45496  0.58468  1.0000
  H   H1103     1.0  0.91487  0.46448  0.57652  1.0000
  H   H1104     1.0  0.94235  0.58585  0.66204  1.0000
  C   C648      1.0  0.96745  0.50412  0.67375  1.0000
  H   H1105     1.0  0.73781  0.32882  0.76373  1.0000
  C   C649      1.0  0.59005  0.33140  0.92730  1.0000
  H   H1106     1.0  0.88806  0.55550  0.69130  1.0000
  H   H1107     1.0  0.85151  0.35425  0.56261  1.0000
  N   N47       1.0  0.79016  0.55842  0.51630  1.0000
  C   C650      1.0  0.87525  0.61564  0.61269  1.0000
  C   C651      1.0  0.86613  0.34798  0.63860  1.0000
  H   H1108     1.0  0.49579  0.48758  0.89191  1.0000
  S   S188      1.0  0.52904  0.47301  0.93090  1.0000
  H   H1109     1.0  0.73013  0.56724  0.53070  1.0000
  H   H1110     1.0  0.87713  0.34992  0.76919  1.0000
  S   S189      1.0  0.91294  0.56015  0.50876  1.0000
  H   H1111     1.0  0.78946  0.56237  0.55857  1.0000
  H   H1112     1.0  0.96364  0.62051  0.64494  1.0000
  H   H1113     1.0  0.51974  0.58890  0.95367  1.0000
  C   C652      1.0  0.92474  0.49351  0.53095  1.0000
  H   H1114     1.0  0.91492  0.51153  0.49229  1.0000
  C   C653      1.0  0.86459  0.35114  0.57784  1.0000
  H   H1115     1.0  0.57728  0.36773  0.93599  1.0000
  H   H1116     1.0  0.53731  0.57379  0.92807  1.0000
  C   C654      1.0  0.95020  0.38398  0.55121  1.0000
  C   C655      1.0  0.96677  0.63569  0.55981  1.0000
  H   H1117     1.0  0.86319  0.36818  0.58669  1.0000
  C   C656      1.0  0.98754  0.46296  0.68437  1.0000
  H   H1118     1.0  0.94697  0.50600  0.49391  1.0000
  H   H1119     1.0  0.78068  0.51966  0.55936  1.0000
  H   H1120     1.0  0.82299  0.34333  0.72922  1.0000
  C   C657      1.0  0.79952  0.55142  0.54337  1.0000
  Fe  Fe94      1.0  0.87527  0.55157  0.50817  1.0000
  C   C658      1.0  0.52357  0.57119  0.94567  1.0000
  H   H1121     1.0  0.87104  0.34294  0.65930  1.0000
  H   H1122     1.0  0.83864  0.37867  0.62661  1.0000
  H   H1123     1.0  0.75827  0.55884  0.49636  1.0000
  H   H1124     1.0  0.89922  0.34048  0.70339  1.0000
  H   H1125     1.0  0.82700  0.55152  0.49729  1.0000
  C   C659      1.0  0.97439  0.38624  0.54108  1.0000
  H   H1126     1.0  0.83485  0.36678  0.66082  1.0000
  H   H1127     1.0  0.75314  0.60078  0.52624  1.0000
  Fe  Fe95      1.0  0.53971  0.44446  0.96467  1.0000
  C   C660      1.0  0.86083  0.34484  0.71607  1.0000
  H   H1128     1.0  0.82566  0.35097  0.63700  1.0000
  S   S190      1.0  0.96656  0.42241  0.68213  1.0000
  H   H1129     1.0  0.81100  0.52621  0.50158  1.0000
  N   N48       1.0  0.53324  0.55133  0.96660  1.0000
  H   H1130     1.0  0.72744  0.34189  0.79337  1.0000
  C   C661      1.0  0.98143  0.61322  0.56198  1.0000
  H   H1131     1.0  0.97376  0.65166  0.56333  1.0000
  C   C662      1.0  0.85868  0.32950  0.59883  1.0000
  C   C663      1.0  0.89180  0.34436  0.78244  1.0000
  C   C664      1.0  0.78907  0.58541  0.50815  1.0000
  H   H1132     1.0  0.69285  0.32665  0.78991  1.0000
  H   H1133     1.0  0.64922  0.33854  0.95542  1.0000
  C   C665      1.0  0.55510  0.50695  0.96954  1.0000
  H   H1134     1.0  0.93015  0.48173  0.49075  1.0000
  H   H1135     1.0  0.98706  0.47759  0.57635  1.0000
  H   H1136     1.0  0.77467  0.62129  0.51780  1.0000
  H   H1137     1.0  0.80756  0.59069  0.50639  1.0000
  H   H1138     1.0  0.58960  0.57028  0.96899  1.0000
  H   H1139     1.0  0.98054  0.38420  0.52040  1.0000
  H   H1140     1.0  0.70012  0.33485  0.83313  1.0000
  C   C666      1.0  0.80879  0.54624  0.49652  1.0000
  H   H1141     1.0  0.90851  0.33629  0.77094  1.0000
  H   H1142     1.0  0.83870  0.33165  0.60336  1.0000
  H   H1143     1.0  0.93125  0.65481  0.55323  1.0000
  H   H1144     1.0  0.83667  0.34828  0.83449  1.0000
  C   C667      1.0  0.84035  0.33304  0.72349  1.0000
  H   H1145     1.0  0.81558  0.35817  0.81036  1.0000
  H   H1146     1.0  0.91142  0.33034  0.65156  1.0000
  H   H1147     1.0  0.49478  0.58352  0.91983  1.0000
  C   C668      1.0  0.98254  0.39321  0.58465  1.0000
  H   H1148     1.0  0.98357  0.44955  0.56473  1.0000
  C   C669      1.0  0.98805  0.48812  0.68079  1.0000
  H   H1149     1.0  0.84025  0.33307  0.77817  1.0000
  C   C670      1.0  0.73160  0.32428  0.78528  1.0000
  N   N49       1.0  0.87144  0.32612  0.62377  1.0000
  C   C671      1.0  0.84138  0.32714  0.79992  1.0000
  C   C672      1.0  0.55338  0.56017  0.97785  1.0000
  C   C673      1.0  0.85300  0.76668  0.14244  1.0000
  H   H1150     1.0  0.63643  0.84869  0.39478  1.0000
  S   S191      1.0  0.94618  0.94596  0.11842  1.0000
  H   H1151     1.0  0.91601  0.94663  0.99795  1.0000
  C   C674      1.0  0.80304  0.93688  0.07195  1.0000
  Fe  Fe96      1.0  0.85067  0.86939  0.09986  1.0000
  S   S192      1.0  0.83864  0.87451  0.14277  1.0000
  S   S193      1.0  0.87127  0.89546  0.07080  1.0000
  Fe  Fe97      1.0  0.82493  0.82511  0.10301  1.0000
  S   S194      1.0  0.81024  0.82702  0.14561  1.0000
  S   S195      1.0  0.81859  0.79277  0.08498  1.0000
  Fe  Fe98      1.0  0.80253  0.86711  0.13389  1.0000
  S   S196      1.0  0.76735  0.88933  0.14769  1.0000
  Fe  Fe99      1.0  0.84740  0.83407  0.15097  1.0000
  S   S197      1.0  0.86587  0.81327  0.18579  1.0000
  S   S198      1.0  0.81373  0.86473  0.09028  1.0000
  S   S199      1.0  0.86293  0.82945  0.10888  1.0000
  H   H1152     1.0  0.63986  0.83212  0.45339  1.0000
  C   C675      1.0  0.69247  0.83767  0.19724  1.0000
  H   H1153     1.0  0.55316  0.97248  0.46293  1.0000
  H   H1154     1.0  0.58679  0.72857  0.20617  1.0000
  H   H1155     1.0  0.56977  0.66479  0.20430  1.0000
  H   H1156     1.0  0.80755  0.66489  0.37102  1.0000
  Fe  Fe100     1.0  0.70435  0.73338  0.12720  1.0000
  S   S200      1.0  0.71943  0.71551  0.16508  1.0000
  S   S201      1.0  0.71005  0.77173  0.11143  1.0000
  Fe  Fe101     1.0  0.67656  0.69168  0.12369  1.0000
  C   C676      1.0  0.63175  0.65779  0.11707  1.0000
  Fe  Fe102     1.0  0.68215  0.70551  0.17768  1.0000
  S   S202      1.0  0.66463  0.70707  0.21980  1.0000
  C   C677      1.0  0.78326  0.66840  0.21410  1.0000
  S   S203      1.0  0.66629  0.72639  0.14164  1.0000
  Fe  Fe103     1.0  0.65637  0.82667  0.26862  1.0000
  S   S204      1.0  0.66620  0.86414  0.26569  1.0000
  S   S205      1.0  0.63698  0.81704  0.23643  1.0000
  Fe  Fe104     1.0  0.67360  0.81110  0.32337  1.0000
  S   S206      1.0  0.68450  0.84728  0.32590  1.0000
  S   S207      1.0  0.67359  0.78112  0.35777  1.0000
  Fe  Fe105     1.0  0.64978  0.86270  0.30841  1.0000
  S   S208      1.0  0.62135  0.89241  0.32186  1.0000
  Fe  Fe106     1.0  0.70017  0.84572  0.28302  1.0000
  S   S209      1.0  0.73822  0.85432  0.27002  1.0000
  S   S210      1.0  0.63736  0.82668  0.30988  1.0000
  S   S211      1.0  0.69195  0.80810  0.28205  1.0000
  Fe  Fe107     1.0  0.79566  0.72792  0.28366  1.0000
  S   S212      1.0  0.77468  0.70075  0.27349  1.0000
  S   S213      1.0  0.78487  0.76548  0.26378  1.0000
  H   H1157     1.0  0.67550  0.84459  0.20914  1.0000
  H   H1158     1.0  0.74313  0.79376  0.15873  1.0000
  H   H1159     1.0  0.69075  0.80555  0.14913  1.0000
  Fe  Fe108     1.0  0.77062  0.68809  0.31725  1.0000
  S   S214      1.0  0.73487  0.68011  0.33873  1.0000
  S   S215      1.0  0.78819  0.71781  0.32781  1.0000
  C   C678      1.0  0.68990  0.75306  0.35109  1.0000
  C   C679      1.0  0.70814  0.75143  0.32967  1.0000
  C   C680      1.0  0.72190  0.72899  0.32576  1.0000
  C   C681      1.0  0.71704  0.70803  0.34287  1.0000
  C   C682      1.0  0.69834  0.70953  0.36379  1.0000
  C   C683      1.0  0.68501  0.73207  0.36812  1.0000
  H   H1160     1.0  0.71213  0.76745  0.31646  1.0000
  H   H1161     1.0  0.73624  0.72797  0.30946  1.0000
  H   H1162     1.0  0.69461  0.69338  0.37709  1.0000
  H   H1163     1.0  0.67093  0.73323  0.38470  1.0000
  C   C684      1.0  0.64716  0.76776  0.43589  1.0000
  H   H1164     1.0  0.73817  0.67164  0.28427  1.0000
  H   H1165     1.0  0.54422  0.72753  0.22693  1.0000
  H   H1166     1.0  0.56629  0.72533  0.18393  1.0000
  C   C685      1.0  0.65498  0.73717  0.22559  1.0000
  C   C686      1.0  0.64319  0.75369  0.20646  1.0000
  C   C687      1.0  0.63648  0.77797  0.21065  1.0000
  C   C688      1.0  0.64238  0.78599  0.23345  1.0000
  C   C689      1.0  0.65360  0.76936  0.25292  1.0000
  C   C690      1.0  0.65954  0.74489  0.24917  1.0000
  H   H1167     1.0  0.63932  0.74783  0.18837  1.0000
  H   H1168     1.0  0.62762  0.79076  0.19564  1.0000
  H   H1169     1.0  0.65778  0.77533  0.27084  1.0000
  H   H1170     1.0  0.66826  0.73217  0.26429  1.0000
  H   H1171     1.0  0.81326  0.84288  0.34171  1.0000
  C   C691      1.0  0.61703  0.89509  0.41147  1.0000
  C   C692      1.0  0.63918  0.89643  0.39551  1.0000
  C   C693      1.0  0.64067  0.89539  0.36793  1.0000
  C   C694      1.0  0.61981  0.89386  0.35620  1.0000
  C   C695      1.0  0.59749  0.89348  0.37201  1.0000
  C   C696      1.0  0.59615  0.89374  0.39968  1.0000
  H   H1172     1.0  0.65530  0.89768  0.40457  1.0000
  H   H1173     1.0  0.65789  0.89597  0.35570  1.0000
  H   H1174     1.0  0.58131  0.89242  0.36296  1.0000
  H   H1175     1.0  0.57899  0.89269  0.41187  1.0000
  H   H1176     1.0  0.67038  0.79000  0.41097  1.0000
  H   H1177     1.0  0.54486  0.69721  0.22027  1.0000
  C   C697      1.0  0.80091  0.97249  0.11298  1.0000
  C   C698      1.0  0.84410  0.80095  0.20957  1.0000
  C   C699      1.0  0.81998  0.81195  0.21089  1.0000
  C   C700      1.0  0.80200  0.80106  0.22790  1.0000
  C   C701      1.0  0.80810  0.77910  0.24382  1.0000
  C   C702      1.0  0.83243  0.76859  0.24363  1.0000
  C   C703      1.0  0.85046  0.77952  0.22647  1.0000
  H   H1178     1.0  0.81524  0.82903  0.19890  1.0000
  H   H1179     1.0  0.78334  0.80970  0.22873  1.0000
  H   H1180     1.0  0.83739  0.75205  0.25652  1.0000
  H   H1181     1.0  0.86921  0.77111  0.22579  1.0000
  C   C704      1.0  0.75927  0.88198  0.18218  1.0000
  C   C705      1.0  0.73501  0.88644  0.19315  1.0000
  C   C706      1.0  0.72830  0.87836  0.22027  1.0000
  C   C707      1.0  0.74591  0.86611  0.23647  1.0000
  C   C708      1.0  0.77029  0.86294  0.22573  1.0000
  C   C709      1.0  0.77693  0.87069  0.19866  1.0000
  H   H1182     1.0  0.72131  0.89544  0.18050  1.0000
  H   H1183     1.0  0.70952  0.88142  0.22855  1.0000
  H   H1184     1.0  0.78405  0.85390  0.23818  1.0000
  H   H1185     1.0  0.79574  0.86789  0.19046  1.0000
  C   C710      1.0  0.78833  0.78710  0.09146  1.0000
  C   C711      1.0  0.78280  0.76383  0.09053  1.0000
  C   C712      1.0  0.75882  0.75881  0.09694  1.0000
  C   C713      1.0  0.74022  0.77730  0.10333  1.0000
  C   C714      1.0  0.74568  0.80070  0.10350  1.0000
  C   C715      1.0  0.76977  0.80547  0.09824  1.0000
  H   H1186     1.0  0.79710  0.74962  0.08512  1.0000
  H   H1187     1.0  0.75464  0.74077  0.09650  1.0000
  H   H1188     1.0  0.73128  0.81512  0.10805  1.0000
  H   H1189     1.0  0.77391  0.82348  0.09886  1.0000
  C   C716      1.0  0.92521  0.93246  0.10481  1.0000
  C   C717      1.0  0.91387  0.91406  0.12080  1.0000
  C   C718      1.0  0.89739  0.90250  0.11047  1.0000
  C   C719      1.0  0.89213  0.90937  0.08409  1.0000
  C   C720      1.0  0.90333  0.92791  0.06809  1.0000
  C   C721      1.0  0.91986  0.93946  0.07842  1.0000
  H   H1190     1.0  0.91800  0.90857  0.14122  1.0000
  H   H1191     1.0  0.88893  0.88814  0.12289  1.0000
  H   H1192     1.0  0.89906  0.93341  0.04774  1.0000
  H   H1193     1.0  0.92831  0.95383  0.06609  1.0000
  H   H1194     1.0  0.68780  0.83730  0.17693  1.0000
  S   S216      1.0  0.71345  0.70058  0.10576  1.0000
  H   H1195     1.0  0.59438  0.67514  0.23336  1.0000
  N   N50       1.0  0.58647  0.88845  0.24681  1.0000
  C   C722      1.0  0.60191  0.87376  0.22682  1.0000
  C   C723      1.0  0.59020  0.87571  0.27450  1.0000
  H   H1196     1.0  0.82421  0.80785  0.27849  1.0000
  C   C724      1.0  0.60252  0.88525  0.19730  1.0000
  C   C725      1.0  0.58112  0.85082  0.28186  1.0000
  H   H1197     1.0  0.62099  0.86928  0.23182  1.0000
  H   H1198     1.0  0.59553  0.85590  0.22762  1.0000
  H   H1199     1.0  0.58167  0.88730  0.29005  1.0000
  H   H1200     1.0  0.60984  0.87233  0.27722  1.0000
  H   H1201     1.0  0.55526  0.87278  0.23975  1.0000
  H   H1202     1.0  0.58447  0.88731  0.18988  1.0000
  H   H1203     1.0  0.78713  0.80200  0.37091  1.0000
  H   H1204     1.0  0.61504  0.87292  0.18493  1.0000
  H   H1205     1.0  0.56147  0.85170  0.28040  1.0000
  H   H1206     1.0  0.59159  0.83717  0.26966  1.0000
  H   H1207     1.0  0.58397  0.84404  0.30303  1.0000
  C   C726      1.0  0.83284  0.94258  0.13471  1.0000
  C   C727      1.0  0.85604  0.66762  0.40373  1.0000
  H   H1208     1.0  0.82526  0.92729  0.17624  1.0000
  C   C728      1.0  0.73346  0.80738  0.17156  1.0000
  H   H1209     1.0  0.72223  0.82035  0.15800  1.0000
  C   C729      1.0  0.77880  0.73934  0.15914  1.0000
  H   H1210     1.0  0.59905  0.80065  0.45866  1.0000
  H   H1211     1.0  0.93250  0.96630  0.01053  1.0000
  C   C730      1.0  0.85572  0.70721  0.13040  1.0000
  H   H1212     1.0  0.79643  0.92617  0.11401  1.0000
  C   C731      1.0  0.98840  0.90547  0.06429  1.0000
  H   H1213     1.0  0.87190  0.98093  0.07779  1.0000
  H   H1214     1.0  0.74600  0.83158  0.19586  1.0000
  H   H1215     1.0  0.75830  0.83412  0.16157  1.0000
  H   H1216     1.0  0.83759  0.78048  0.13690  1.0000
  H   H1217     1.0  0.76329  0.75381  0.15563  1.0000
  H   H1218     1.0  0.77398  0.72837  0.17851  1.0000
  C   C732      1.0  0.56029  0.89077  0.24158  1.0000
  H   H1219     1.0  0.81728  0.82446  0.37338  1.0000
  H   H1220     1.0  0.80935  0.83774  0.27054  1.0000
  H   H1221     1.0  0.60955  0.90289  0.19374  1.0000
  H   H1222     1.0  0.83122  0.81324  0.34392  1.0000
  C   C733      1.0  0.75275  0.82110  0.17905  1.0000
  H   H1223     1.0  0.94574  0.85756  0.07668  1.0000
  H   H1224     1.0  0.68590  0.82566  0.41419  1.0000
  H   H1225     1.0  0.59805  0.73851  0.15371  1.0000
  C   C734      1.0  0.81974  0.66108  0.38637  1.0000
  N   N51       1.0  0.59280  0.69332  0.19265  1.0000
  N   N52       1.0  0.63681  0.81398  0.41960  1.0000
  C   C735      1.0  0.76909  0.66913  0.19310  1.0000
  C   C736      1.0  0.61793  0.80597  0.40546  1.0000
  H   H1226     1.0  0.57062  0.68052  0.14449  1.0000
  H   H1227     1.0  0.84720  0.92694  0.13131  1.0000
  H   H1228     1.0  0.63171  0.76790  0.45173  1.0000
  C   C737      1.0  0.59809  0.82608  0.39500  1.0000
  H   H1229     1.0  0.54129  0.89149  0.28252  1.0000
  H   H1230     1.0  0.70679  0.70137  0.28620  1.0000
  H   H1231     1.0  0.58085  0.95854  0.42508  1.0000
  H   H1232     1.0  0.52302  0.90368  0.25617  1.0000
  H   H1233     1.0  0.60823  0.79209  0.41834  1.0000
  H   H1234     1.0  0.62690  0.79693  0.38798  1.0000
  C   C738      1.0  0.97823  0.88471  0.02831  1.0000
  H   H1235     1.0  0.98607  0.84444  0.06310  1.0000
  H   H1236     1.0  0.96905  0.91200  0.07004  1.0000
  C   C739      1.0  0.56128  0.68173  0.16495  1.0000
  H   H1237     1.0  0.64232  0.76070  0.41829  1.0000
  H   H1238     1.0  0.57155  0.98509  0.40305  1.0000
  H   H1239     1.0  0.58772  0.98681  0.43131  1.0000
  H   H1240     1.0  0.60551  0.83861  0.37808  1.0000
  H   H1241     1.0  0.58438  0.81759  0.38706  1.0000
  H   H1242     1.0  0.58828  0.83645  0.41094  1.0000
  H   H1243     1.0  0.80553  0.91949  0.15525  1.0000
  H   H1244     1.0  0.67951  0.85293  0.39213  1.0000
  Fe  Fe109     1.0  0.82249  0.69180  0.32338  1.0000
  H   H1245     1.0  0.95325  0.91882  0.03037  1.0000
  H   H1246     1.0  0.79634  0.92034  0.06797  1.0000
  S   S217      1.0  0.84958  0.68930  0.35293  1.0000
  N   N53       1.0  0.71835  0.79529  0.19486  1.0000
  C   C740      1.0  0.73566  0.77814  0.21177  1.0000
  C   C741      1.0  0.70236  0.78040  0.18448  1.0000
  C   C742      1.0  0.70355  0.81316  0.21196  1.0000
  C   C743      1.0  0.72402  0.76086  0.23456  1.0000
  C   C744      1.0  0.68300  0.79430  0.16692  1.0000
  H   H1247     1.0  0.74887  0.76658  0.19916  1.0000
  H   H1248     1.0  0.74687  0.78835  0.22143  1.0000
  H   H1249     1.0  0.71369  0.76676  0.17272  1.0000
  H   H1250     1.0  0.69198  0.77004  0.20117  1.0000
  H   H1251     1.0  0.68858  0.80477  0.22447  1.0000
  H   H1252     1.0  0.70859  0.77036  0.24654  1.0000
  H   H1253     1.0  0.71798  0.74567  0.22671  1.0000
  H   H1254     1.0  0.73780  0.75263  0.24835  1.0000
  H   H1255     1.0  0.67383  0.78097  0.15933  1.0000
  H   H1256     1.0  0.66867  0.80541  0.17864  1.0000
  H   H1257     1.0  0.79793  0.73266  0.21228  1.0000
  H   H1258     1.0  0.85126  0.94548  0.07799  1.0000
  H   H1259     1.0  0.78490  0.96545  0.12517  1.0000
  H   H1260     1.0  0.82975  0.72889  0.21741  1.0000
  H   H1261     1.0  0.70961  0.66863  0.22116  1.0000
  N   N54       1.0  0.79017  0.79949  0.32827  1.0000
  C   C745      1.0  0.76717  0.78782  0.33349  1.0000
  C   C746      1.0  0.81118  0.77934  0.32585  1.0000
  C   C747      1.0  0.78904  0.81650  0.30234  1.0000
  C   C748      1.0  0.79108  0.81322  0.35132  1.0000
  C   C749      1.0  0.74306  0.80524  0.33217  1.0000
  C   C750      1.0  0.81567  0.76196  0.35177  1.0000
  C   C751      1.0  0.81326  0.82338  0.28746  1.0000
  C   C752      1.0  0.81456  0.82404  0.35220  1.0000
  H   H1262     1.0  0.76712  0.77487  0.31891  1.0000
  H   H1263     1.0  0.76583  0.77685  0.35354  1.0000
  H   H1264     1.0  0.82865  0.78622  0.31883  1.0000
  H   H1265     1.0  0.80877  0.76828  0.31022  1.0000
  H   H1266     1.0  0.78049  0.80870  0.28759  1.0000
  H   H1267     1.0  0.77702  0.83376  0.30554  1.0000
  H   H1268     1.0  0.77629  0.82883  0.35152  1.0000
  H   H1269     1.0  0.72770  0.79487  0.33949  1.0000
  H   H1270     1.0  0.74140  0.81984  0.34487  1.0000
  H   H1271     1.0  0.74047  0.81321  0.31129  1.0000
  H   H1272     1.0  0.82427  0.83068  0.30000  1.0000
  H   H1273     1.0  0.95178  0.88293  0.09147  1.0000
  C   C753      1.0  0.92976  0.95921  0.99205  1.0000
  S   S218      1.0  0.61594  0.89355  0.44625  1.0000
  C   C754      1.0  0.62067  0.91483  0.24521  1.0000
  H   H1274     1.0  0.62344  0.93415  0.24299  1.0000
  H   H1275     1.0  0.71505  0.81799  0.22616  1.0000
  H   H1276     1.0  0.79976  0.75285  0.36028  1.0000
  Fe  Fe110     1.0  0.52631  0.88867  0.45771  1.0000
  C   C755      1.0  0.83124  0.72385  0.13394  1.0000
  H   H1277     1.0  0.83917  0.75731  0.18306  1.0000
  C   C756      1.0  0.81542  0.72049  0.21064  1.0000
  H   H1278     1.0  0.80288  0.76473  0.14112  1.0000
  S   S219      1.0  0.68978  0.67022  0.16093  1.0000
  Fe  Fe111     1.0  0.80993  0.67597  0.27297  1.0000
  C   C757      1.0  0.72669  0.66989  0.26866  1.0000
  H   H1279     1.0  0.60420  0.66800  0.09004  1.0000
  H   H1280     1.0  0.58784  0.92480  0.22578  1.0000
  H   H1281     1.0  0.55734  0.90198  0.22204  1.0000
  H   H1282     1.0  0.56432  0.70406  0.24332  1.0000
  C   C758      1.0  0.59349  0.91353  0.24442  1.0000
  C   C759      1.0  0.84506  0.74748  0.16540  1.0000
  H   H1283     1.0  0.82128  0.77134  0.36716  1.0000
  C   C760      1.0  0.80191  0.75111  0.15929  1.0000
  S   S220      1.0  0.50037  0.88526  0.42914  1.0000
  H   H1284     1.0  0.86157  0.73482  0.17062  1.0000
  N   N55       1.0  0.82178  0.95254  0.10909  1.0000
  N   N56       1.0  0.82534  0.73388  0.16026  1.0000
  C   C761      1.0  0.82298  0.71317  0.18241  1.0000
  H   H1285     1.0  0.61592  0.72108  0.12982  1.0000
  H   H1286     1.0  0.84053  0.70100  0.18375  1.0000
  H   H1287     1.0  0.79879  0.76206  0.17625  1.0000
  H   H1288     1.0  0.81785  0.94058  0.05589  1.0000
  S   S221      1.0  0.55827  0.86040  0.46514  1.0000
  H   H1289     1.0  0.58379  0.92326  0.26104  1.0000
  H   H1290     1.0  0.62688  0.90638  0.26467  1.0000
  H   H1291     1.0  0.83242  0.97342  0.07105  1.0000
  Fe  Fe112     1.0  0.57806  0.89181  0.46613  1.0000
  H   H1292     1.0  0.70465  0.85143  0.19631  1.0000
  H   H1293     1.0  0.81003  0.70144  0.17827  1.0000
  C   C762      1.0  0.84095  0.96106  0.08753  1.0000
  H   H1294     1.0  0.61394  0.84360  0.43778  1.0000
  H   H1295     1.0  0.64159  0.66719  0.19538  1.0000
  H   H1296     1.0  0.54437  0.92111  0.26434  1.0000
  H   H1297     1.0  0.54739  0.66919  0.16860  1.0000
  H   H1298     1.0  0.63247  0.90666  0.22877  1.0000
  S   S222      1.0  0.54704  0.91991  0.45446  1.0000
  H   H1299     1.0  0.81324  0.70393  0.22491  1.0000
  C   C763      1.0  0.98465  0.86110  0.07282  1.0000
  H   H1300     1.0  0.78022  0.72802  0.14285  1.0000
  H   H1301     1.0  0.86655  0.77627  0.14911  1.0000
  C   C764      1.0  0.70516  0.69063  0.27004  1.0000
  H   H1302     1.0  0.94033  0.89230  0.04699  1.0000
  H   H1303     1.0  0.83083  0.73873  0.11684  1.0000
  H   H1304     1.0  0.81724  0.71285  0.13091  1.0000
  H   H1305     1.0  0.85864  0.70251  0.10967  1.0000
  H   H1306     1.0  0.87139  0.71602  0.13316  1.0000
  H   H1307     1.0  0.66608  0.85156  0.42586  1.0000
  Fe  Fe113     1.0  0.72580  0.68196  0.14495  1.0000
  H   H1308     1.0  0.76916  0.80838  0.18425  1.0000
  H   H1309     1.0  0.73784  0.67422  0.24932  1.0000
  C   C765      1.0  0.60667  0.68251  0.21620  1.0000
  H   H1310     1.0  0.75219  0.68114  0.19246  1.0000
  H   H1311     1.0  0.65556  0.82475  0.38068  1.0000
  H   H1312     1.0  0.68687  0.68515  0.27375  1.0000
  H   H1313     1.0  0.83078  0.74738  0.34716  1.0000
  C   C766      1.0  0.61101  0.70085  0.16955  1.0000
  C   C767      1.0  0.65575  0.79279  0.42765  1.0000
  H   H1314     1.0  0.77733  0.68021  0.22898  1.0000
  H   H1315     1.0  0.55085  0.69993  0.16590  1.0000
  C   C768      1.0  0.64929  0.83212  0.39991  1.0000
  H   H1316     1.0  0.85566  0.68988  0.14397  1.0000
  S   S223      1.0  0.80430  0.66087  0.31632  1.0000
  S   S224      1.0  0.97201  0.97932  0.04808  1.0000
  C   C769      1.0  0.81201  0.93193  0.09999  1.0000
  S   S225      1.0  0.83165  0.70432  0.27977  1.0000
  H   H1317     1.0  0.62008  0.68493  0.15986  1.0000
  C   C770      1.0  0.60163  0.72026  0.14709  1.0000
  C   C771      1.0  0.84077  0.67211  0.38330  1.0000
  H   H1318     1.0  0.62584  0.70830  0.17691  1.0000
  H   H1319     1.0  0.82610  0.91566  0.09986  1.0000
  Fe  Fe114     1.0  0.96616  0.97436  0.09292  1.0000
  H   H1320     1.0  0.86178  0.75867  0.12440  1.0000
  C   C772      1.0  0.57368  0.97815  0.42428  1.0000
  H   H1321     1.0  0.50042  0.97430  0.45797  1.0000
  S   S226      1.0  0.64946  0.67989  0.10072  1.0000
  C   C773      1.0  0.57937  0.67412  0.18608  1.0000
  C   C774      1.0  0.67141  0.84076  0.40899  1.0000
  H   H1322     1.0  0.95885  0.85355  0.10781  1.0000
  C   C775      1.0  0.54146  0.90245  0.26252  1.0000
  H   H1323     1.0  0.80134  0.94968  0.16478  1.0000
  H   H1324     1.0  0.58532  0.71633  0.13945  1.0000
  C   C776      1.0  0.57603  0.71529  0.20071  1.0000
  H   H1325     1.0  0.61490  0.69672  0.22360  1.0000
  C   C777      1.0  0.55638  0.71033  0.22419  1.0000
  C   C778      1.0  0.62561  0.82623  0.44353  1.0000
  C   C779      1.0  0.95877  0.86423  0.08760  1.0000
  H   H1326     1.0  0.84248  0.95580  0.14167  1.0000
  C   C780      1.0  0.81494  0.93440  0.15882  1.0000
  H   H1327     1.0  0.78762  0.95174  0.07053  1.0000
  H   H1328     1.0  0.66513  0.79652  0.44432  1.0000
  C   C781      1.0  0.54940  0.98100  0.44238  1.0000
  H   H1329     1.0  0.70596  0.70333  0.25114  1.0000
  H   H1330     1.0  0.87212  0.67644  0.40162  1.0000
  C   C782      1.0  0.95257  0.89933  0.02985  1.0000
  H   H1331     1.0  0.66237  0.75466  0.44370  1.0000
  H   H1332     1.0  0.94419  0.89816  0.01153  1.0000
  H   H1333     1.0  0.69227  0.66605  0.31678  1.0000
  C   C783      1.0  0.61144  0.81097  0.46606  1.0000
  H   H1334     1.0  0.94683  0.94845  0.98468  1.0000
  C   C784      1.0  0.86056  0.97395  0.09597  1.0000
  H   H1335     1.0  0.98854  0.89395  0.01058  1.0000
  H   H1336     1.0  0.53774  0.96930  0.43570  1.0000
  H   H1337     1.0  0.96726  0.98183  0.98079  1.0000
  H   H1338     1.0  0.79387  0.98005  0.09355  1.0000
  H   H1339     1.0  0.59242  0.65916  0.17844  1.0000
  H   H1340     1.0  0.87310  0.96110  0.10834  1.0000
  H   H1341     1.0  0.97651  0.86665  0.02289  1.0000
  C   C785      1.0  0.62732  0.66155  0.21120  1.0000
  H   H1342     1.0  0.54545  0.92841  0.57351  1.0000
  H   H1343     1.0  0.98371  0.96812  0.94264  1.0000
  S   S227      1.0  0.51916  0.95123  0.51717  1.0000
  H   H1344     1.0  0.51308  0.95384  0.60241  1.0000
  S   S228      1.0  0.54681  0.83052  0.53818  1.0000
  H   H1345     1.0  0.58903  0.86380  0.59128  1.0000
  C   C786      1.0  0.52255  0.82300  0.61664  1.0000
  H   H1346     1.0  0.49695  0.92779  0.61028  1.0000
  H   H1347     1.0  0.58227  0.90775  0.58846  1.0000
  C   C787      1.0  0.53436  0.91974  0.59098  1.0000
  C   C788      1.0  0.55418  0.93427  0.62549  1.0000
  H   H1348     1.0  0.53745  0.94385  0.63557  1.0000
  C   C789      1.0  0.53956  0.96770  0.52725  1.0000
  C   C790      1.0  0.57243  0.89762  0.60587  1.0000
  N   N57       1.0  0.54874  0.91241  0.61469  1.0000
  Fe  Fe115     1.0  0.53656  0.91845  0.49855  1.0000
  H   H1349     1.0  0.50725  0.97801  0.77278  1.0000
  C   C791      1.0  0.76994  0.93796  0.91891  1.0000
  C   C792      1.0  0.56592  0.95320  0.60493  1.0000
  C   C793      1.0  0.56455  0.95964  0.52529  1.0000
  C   C794      1.0  0.49910  0.94625  0.68141  1.0000
  C   C795      1.0  0.54685  0.88661  0.66124  1.0000
  H   H1350     1.0  0.49739  0.84353  0.52128  1.0000
  H   H1351     1.0  0.52931  0.90361  0.58403  1.0000
  H   H1352     1.0  0.56025  0.87486  0.57964  1.0000
  H   H1353     1.0  0.52727  0.88335  0.62848  1.0000
  C   C796      1.0  0.57050  0.87289  0.59725  1.0000
  H   H1354     1.0  0.55183  0.90053  0.67201  1.0000
  C   C797      1.0  0.50283  0.86164  0.59694  1.0000
  H   H1355     1.0  0.57175  0.94305  0.51713  1.0000
  Fe  Fe116     1.0  0.54669  0.86391  0.50833  1.0000
  C   C798      1.0  0.50453  0.97003  0.67597  1.0000
  H   H1356     1.0  0.53404  0.87641  0.67537  1.0000
  H   H1357     1.0  0.56221  0.86048  0.61364  1.0000
  H   H1358     1.0  0.58478  0.89425  0.62191  1.0000
  H   H1359     1.0  0.56669  0.92879  0.64130  1.0000
  H   H1360     1.0  0.59948  0.96626  0.53410  1.0000
  C   C799      1.0  0.53456  0.81872  0.59156  1.0000
  S   S229      1.0  0.49249  0.84969  0.65106  1.0000
  C   C800      1.0  0.53398  0.89805  0.63642  1.0000
  H   H1361     1.0  0.56975  0.96786  0.61550  1.0000
  S   S230      1.0  0.56934  0.89284  0.51033  1.0000
  H   H1362     1.0  0.54678  0.80206  0.58956  1.0000
  C   C801      1.0  0.53118  0.83610  0.56924  1.0000
  S   S231      1.0  0.53427  0.97578  0.67676  1.0000
  H   H1363     1.0  0.57447  0.98019  0.71392  1.0000
  S   S232      1.0  0.51301  0.88964  0.50073  1.0000
  H   H1364     1.0  0.51318  0.93146  0.68650  1.0000
  H   H1365     1.0  0.97497  0.96228  0.91210  1.0000
  H   H1366     1.0  0.75826  0.92421  0.92863  1.0000
  H   H1367     1.0  0.52556  0.80968  0.63398  1.0000
  H   H1368     1.0  0.56303  0.87340  0.65634  1.0000
  C   C802      1.0  0.49161  0.81620  0.49840  1.0000
  H   H1369     1.0  0.95945  0.95002  0.94249  1.0000
  H   H1370     1.0  0.78353  0.97601  0.87842  1.0000
  C   C803      1.0  0.51549  0.85770  0.57199  1.0000
  H   H1371     1.0  0.51731  0.90955  0.64403  1.0000
  H   H1372     1.0  0.58348  0.94558  0.59475  1.0000
  C   C804      1.0  0.91999  0.98001  0.97108  1.0000
  H   H1373     1.0  0.74272  0.96528  0.93339  1.0000
  C   C805      1.0  0.76275  0.96109  0.93260  1.0000
  H   H1374     1.0  0.51311  0.87139  0.55502  1.0000
  C   C806      1.0  0.58027  0.97290  0.53459  1.0000
  C   C807      1.0  0.51034  0.93672  0.59576  1.0000
  H   H1375     1.0  0.50999  0.80645  0.50188  1.0000
  H   H1376     1.0  0.91192  0.97181  0.95627  1.0000
  H   H1377     1.0  0.55356  0.96189  0.58988  1.0000
  H   H1378     1.0  0.83722  0.98832  0.91698  1.0000
  C   C808      1.0  0.50648  0.84431  0.61931  1.0000
  H   H1379     1.0  0.50216  0.94151  0.57658  1.0000
  H   H1380     1.0  0.80501  0.96828  0.94388  1.0000
  H   H1381     1.0  0.78894  0.92970  0.92132  1.0000
  H   H1382     1.0  0.73397  0.98124  0.89447  1.0000
  C   C809      1.0  0.80202  0.97547  0.92273  1.0000
  H   H1383     1.0  0.49079  0.87835  0.59903  1.0000
  H   H1384     1.0  0.80997  0.96065  0.91071  1.0000
  H   H1385     1.0  0.76707  0.94131  0.89743  1.0000
  C   C810      1.0  0.96783  0.96604  0.93269  1.0000
  H   H1386     1.0  0.54551  0.98220  0.74855  1.0000
  H   H1387     1.0  0.76625  0.95623  0.95397  1.0000
  N   N58       1.0  0.77521  0.98252  0.92004  1.0000
  H   H1388     1.0  0.62394  0.79862  0.47890  1.0000
  H   H1389     1.0  0.59936  0.82330  0.47876  1.0000
  C   C811      1.0  0.77223  0.98929  0.89068  1.0000
  H   H1390     1.0  0.74701  0.98884  0.86164  1.0000
  H   H1391     1.0  0.93532  0.98595  0.91865  1.0000
  H   H1392     1.0  0.49349  0.82688  0.47827  1.0000
  C   C812      1.0  0.94923  0.98919  0.93097  1.0000
