data_image0
_chemical_formula_structural       FeSFeSHFeHFeS2H2FeS2FeS2FeSFeS4H2SCHCH2C6HCH4C2HC3H2C6H5C5HCH2CH6C2H2SC3HCHCHFeNH2CHCHFeHCHCH2SH4CHCH2C3SH6C2H3CH2CH5CNH2CH4FeCHC2H8SCHNHC2SHSNHCHCHCH2C2H2CFeH8CH2CSNH3CH4C2HCH3CH5SCHCHFeSFeH2FeS2CFeHSH4C3SHC2H2CH3C3H3SFeSNCFeH6FeS2HFeS3C3H3C4H3CHC2H4CH2C2HCH2NHSHCSHC2H4CH2FeCH2CH3CH5CHCSHC3HNHSHCH2C2SHSHCH2CFeHCHC3SH2CH2CH2CH2CHCHC3H7CHSH2C2H4NHCH4CH3NHCHC4H8CHCH2CH3C2H4CHC3HC2H2CH4CNHCHCH3C2HNHSH5CHCHC2HFeS2FeHFeSFeSHCHFeSCFeS2FeSFeS4HCH2C6H4C6H4C2NH3CHCH7SHCHCHCH3CH4C2HC4HSH4SH5CHSCHCH5C2HSHCH4NCFeC7H2CHC2H2CH3C4NH7CSH4CH4CSH2C2H2FeC3H2CH2C2HNHCH2CH2C2H5CH4CHC4H2CSH3C2H3CHCHC3HCH2C4H5CHCH4CN2HNH10C2H2SC2H2CH3CHCH2CH6C2SHFeS2FeS2FeSFeHS2HCHFeCFeS2FeNFeS2H3C3H6C6H5CHC7H4C3H2C2H2CHCH4C3H6CHC3H2CNHCHC2HC4SH5SHCH2C2H4CHCH4CH5CH2NH4CHCH2SH11C5SHSHCH2CHCSH4CH2C2H7C2SH11C3HSFeSHFeSFeS2HFeS2Fe2HSHSH4CHC2SC3H3C4H2FeS2FeS2Fe2HS2HFeS2FeH2SHNCHC7H3CNC2HNC8H15SFeH3C3FeH3CH6CFeHSHC3HCHCH8NHS2HC2H3C3HCHCH2CHCHCNH7C2HCH4C2H2CH2SH3CHC2H8C2SCHC3H9CH3CH5CHCHNH2SCNH5SH2CH2FeS2FeSNFeSFeS3HFeS2HFe3CS2HNH3C3H4CFeH4C6H4C2HCNC2H2C2H2CH3CH5C2H5SH2CH3CH2CH6CH2SHCHC2HCHC2H2CH4C2H3C2HCHCSH2C2HCHCHSH2C3H2CHSHCHC2HCH2SHCH2CH2C3HCH6CH4CS
_chemical_formula_sum              "Fe64 S128 H768 C448 N32"
_cell_length_a       35.5582
_cell_length_b       36.3981
_cell_length_c       35.2761
_cell_angle_alpha    90.1548
_cell_angle_beta     89.8443
_cell_angle_gamma    90.0416

_space_group_name_H-M_alt    "P 1"
_space_group_IT_number       1

loop_
  _space_group_symop_operation_xyz
  'x, y, z'

loop_
  _atom_site_type_symbol
  _atom_site_label
  _atom_site_symmetry_multiplicity
  _atom_site_fract_x
  _atom_site_fract_y
  _atom_site_fract_z
  _atom_site_occupancy
  Fe  Fe1       1.0  0.43566  0.06740  0.47299  1.0000
  S   S1        1.0  0.43275  0.05141  0.41135  1.0000
  Fe  Fe2       1.0  0.37568  0.12981  0.46309  1.0000
  S   S2        1.0  0.36856  0.11710  0.40160  1.0000
  H   H1        1.0  0.37886  0.08888  0.32104  1.0000
  Fe  Fe3       1.0  0.37033  0.05801  0.41906  1.0000
  H   H2        1.0  0.50922  0.13834  0.04146  1.0000
  Fe  Fe4       1.0  0.43131  0.11212  0.39991  1.0000
  S   S3        1.0  0.46185  0.14403  0.35479  1.0000
  S   S4        1.0  0.43903  0.12831  0.46089  1.0000
  H   H3        1.0  0.27435  0.07100  0.12109  1.0000
  H   H4        1.0  0.19069  0.07993  0.48633  1.0000
  Fe  Fe5       1.0  0.41296  0.17237  0.07567  1.0000
  S   S5        1.0  0.41512  0.18338  0.13844  1.0000
  S   S6        1.0  0.44335  0.20463  0.02871  1.0000
  Fe  Fe6       1.0  0.35690  0.10643  0.08608  1.0000
  S   S7        1.0  0.35532  0.11348  0.14908  1.0000
  S   S8        1.0  0.32501  0.06019  0.05602  1.0000
  Fe  Fe7       1.0  0.35269  0.17369  0.13697  1.0000
  S   S9        1.0  0.31240  0.20906  0.17022  1.0000
  Fe  Fe8       1.0  0.41762  0.12193  0.14483  1.0000
  S   S10       1.0  0.45417  0.08939  0.18455  1.0000
  S   S11       1.0  0.34998  0.16666  0.07361  1.0000
  S   S12       1.0  0.42010  0.11096  0.08215  1.0000
  S   S13       1.0  0.08399  0.26866  0.10049  1.0000
  H   H5        1.0  0.19273  0.24118  0.21894  1.0000
  H   H6        1.0  0.12071  0.11489  0.01613  1.0000
  S   S14       1.0  0.17873  0.23897  0.05816  1.0000
  C   C1        1.0  0.28445  0.03644  0.07260  1.0000
  H   H7        1.0  0.21671  0.07124  0.01310  1.0000
  C   C2        1.0  0.26449  0.04766  0.10487  1.0000
  H   H8        1.0  0.07083  0.15568  0.02874  1.0000
  H   H9        1.0  0.29898  0.04996  0.30997  1.0000
  C   C3        1.0  0.27219  0.21513  0.14254  1.0000
  C   C4        1.0  0.24822  0.24494  0.14902  1.0000
  C   C5        1.0  0.21841  0.25181  0.12402  1.0000
  C   C6        1.0  0.21338  0.22955  0.09199  1.0000
  C   C7        1.0  0.23686  0.19930  0.08626  1.0000
  C   C8        1.0  0.26537  0.19145  0.11216  1.0000
  H   H10       1.0  0.25331  0.26327  0.17262  1.0000
  C   C9        1.0  0.18106  0.12813  0.13528  1.0000
  H   H11       1.0  0.23316  0.18198  0.06163  1.0000
  H   H12       1.0  0.28212  0.16704  0.10849  1.0000
  H   H13       1.0  0.18586  0.14202  0.46748  1.0000
  H   H14       1.0  0.43554  0.15920  0.21965  1.0000
  C   C10       1.0  0.45858  0.12817  0.30782  1.0000
  C   C11       1.0  0.37191  0.07660  0.29301  1.0000
  H   H15       1.0  0.33487  0.28900  0.13835  1.0000
  C   C12       1.0  0.45634  0.10495  0.23169  1.0000
  C   C13       1.0  0.44499  0.14053  0.24141  1.0000
  C   C14       1.0  0.44684  0.15233  0.27930  1.0000
  H   H16       1.0  0.38145  0.02139  0.26914  1.0000
  H   H17       1.0  0.27667  0.30236  0.27100  1.0000
  C   C15       1.0  0.29186  0.23327  0.49215  1.0000
  C   C16       1.0  0.24360  0.10181  0.43225  1.0000
  C   C17       1.0  0.30780  0.20456  0.47070  1.0000
  C   C18       1.0  0.24641  0.24625  0.44238  1.0000
  C   C19       1.0  0.26277  0.21796  0.42056  1.0000
  C   C20       1.0  0.29357  0.19754  0.43439  1.0000
  H   H18       1.0  0.25098  0.21122  0.39321  1.0000
  H   H19       1.0  0.30546  0.17558  0.41751  1.0000
  H   H20       1.0  0.32214  0.01172  0.47247  1.0000
  H   H21       1.0  0.43907  0.18021  0.28658  1.0000
  H   H22       1.0  0.35902  0.13464  0.24949  1.0000
  C   C21       1.0  0.34590  0.15416  0.30581  1.0000
  C   C22       1.0  0.36213  0.28481  0.12366  1.0000
  C   C23       1.0  0.46597  0.24834  0.02735  1.0000
  C   C24       1.0  0.46851  0.27136  0.05911  1.0000
  C   C25       1.0  0.25936  0.10859  0.47246  1.0000
  H   H23       1.0  0.45593  0.26295  0.08566  1.0000
  C   C26       1.0  0.20886  0.15261  0.48591  1.0000
  H   H24       1.0  0.37724  0.26283  0.13923  1.0000
  H   H25       1.0  0.06557  0.05111  0.38812  1.0000
  C   C27       1.0  0.16058  0.27395  0.33073  1.0000
  H   H26       1.0  0.25668  0.23558  0.24170  1.0000
  H   H27       1.0  0.18684  0.31495  0.25496  1.0000
  H   H28       1.0  0.20117  0.12811  0.04469  1.0000
  H   H29       1.0  0.48964  0.32281  0.08134  1.0000
  H   H30       1.0  0.14564  0.28491  0.35602  1.0000
  H   H31       1.0  0.22063  0.08128  0.43202  1.0000
  C   C28       1.0  0.18646  0.10310  0.05518  1.0000
  C   C29       1.0  0.32553  0.06843  0.24315  1.0000
  H   H32       1.0  0.22553  0.29324  0.23253  1.0000
  H   H33       1.0  0.34412  0.24466  0.08339  1.0000
  S   S15       1.0  0.37267  0.07052  0.48133  1.0000
  C   C30       1.0  0.37789  0.03481  0.29722  1.0000
  C   C31       1.0  0.15461  0.14038  0.10303  1.0000
  C   C32       1.0  0.46937  0.09239  0.29822  1.0000
  H   H34       1.0  0.36940  0.29046  0.00891  1.0000
  C   C33       1.0  0.28929  0.07865  0.22180  1.0000
  H   H35       1.0  0.24375  0.08015  0.31044  1.0000
  C   C34       1.0  0.05228  0.07829  0.38436  1.0000
  H   H36       1.0  0.38516  0.26788  0.06960  1.0000
  Fe  Fe9       1.0  0.05814  0.30705  0.05838  1.0000
  N   N1        1.0  0.33370  0.08894  0.27945  1.0000
  H   H37       1.0  0.17360  0.10065  0.14651  1.0000
  H   H38       1.0  0.27318  0.08254  0.48112  1.0000
  C   C35       1.0  0.12873  0.07971  0.08725  1.0000
  H   H39       1.0  0.16664  0.23968  0.26302  1.0000
  C   C36       1.0  0.12599  0.13256  0.04112  1.0000
  H   H40       1.0  0.34941  0.07180  0.22284  1.0000
  Fe  Fe10      1.0  0.18554  0.32701  0.43673  1.0000
  H   H41       1.0  0.31107  0.14093  0.25842  1.0000
  C   C37       1.0  0.25701  0.30888  0.29468  1.0000
  H   H42       1.0  0.27309  0.30398  0.32134  1.0000
  C   C38       1.0  0.26706  0.10045  0.30853  1.0000
  H   H43       1.0  0.10848  0.08817  0.10980  1.0000
  H   H44       1.0  0.22686  0.16984  0.46730  1.0000
  S   S16       1.0  0.34291  0.17632  0.49184  1.0000
  H   H45       1.0  0.21205  0.22592  0.30052  1.0000
  H   H46       1.0  0.21488  0.03933  0.13934  1.0000
  H   H47       1.0  0.26379  0.07129  0.23820  1.0000
  H   H48       1.0  0.39399  0.08635  0.27323  1.0000
  C   C39       1.0  0.29449  0.00943  0.46019  1.0000
  H   H49       1.0  0.37960  0.30997  0.12581  1.0000
  C   C40       1.0  0.28993  0.01154  0.42091  1.0000
  H   H50       1.0  0.07522  0.06227  0.06150  1.0000
  H   H51       1.0  0.28790  0.30371  0.09864  1.0000
  C   C41       1.0  0.34399  0.33735  0.06311  1.0000
  C   C42       1.0  0.26162  0.25422  0.47800  1.0000
  C   C43       1.0  0.17812  0.25789  0.24088  1.0000
  S   S17       1.0  0.20426  0.26737  0.42623  1.0000
  H   H52       1.0  0.10824  0.02658  0.06770  1.0000
  H   H53       1.0  0.29314  0.24254  0.27667  1.0000
  H   H54       1.0  0.14097  0.27728  0.30662  1.0000
  H   H55       1.0  0.28497  0.26332  0.07118  1.0000
  H   H56       1.0  0.15344  0.27005  0.22622  1.0000
  H   H57       1.0  0.17879  0.14809  0.15907  1.0000
  C   C44       1.0  0.19681  0.29641  0.32493  1.0000
  C   C45       1.0  0.20386  0.28939  0.25505  1.0000
  H   H58       1.0  0.07224  0.31970  0.27971  1.0000
  H   H59       1.0  0.47902  0.07383  0.32003  1.0000
  H   H60       1.0  0.16580  0.16670  0.09172  1.0000
  C   C46       1.0  0.10530  0.34057  0.23323  1.0000
  H   H61       1.0  0.23391  0.12757  0.41872  1.0000
  H   H62       1.0  0.14238  0.15625  0.02957  1.0000
  C   C47       1.0  0.09514  0.33764  0.27154  1.0000
  H   H63       1.0  0.26753  0.20049  0.27530  1.0000
  H   H64       1.0  0.34464  0.18342  0.29700  1.0000
  H   H65       1.0  0.26199  0.11698  0.28289  1.0000
  H   H66       1.0  0.24913  0.27558  0.49530  1.0000
  H   H67       1.0  0.06034  0.08938  0.35618  1.0000
  C   C48       1.0  0.23563  0.24573  0.30013  1.0000
  N   N2        1.0  0.22256  0.28455  0.29312  1.0000
  H   H68       1.0  0.21230  0.29642  0.35233  1.0000
  H   H69       1.0  0.09117  0.17350  0.07102  1.0000
  C   C49       1.0  0.26483  0.23066  0.27155  1.0000
  H   H70       1.0  0.20015  0.27483  0.12903  1.0000
  H   H71       1.0  0.12751  0.14767  0.11700  1.0000
  H   H72       1.0  0.24820  0.24354  0.32899  1.0000
  H   H73       1.0  0.26408  0.11865  0.33371  1.0000
  Fe  Fe11      1.0  0.13882  0.28444  0.07365  1.0000
  C   C50       1.0  0.08758  0.14797  0.05406  1.0000
  H   H74       1.0  0.07094  0.12779  0.07051  1.0000
  C   C51       1.0  0.33682  0.12956  0.27132  1.0000
  C   C52       1.0  0.35681  0.27257  0.08215  1.0000
  H   H75       1.0  0.16605  0.24462  0.33678  1.0000
  H   H76       1.0  0.18715  0.32512  0.32087  1.0000
  H   H77       1.0  0.28859  0.10778  0.21282  1.0000
  H   H78       1.0  0.14937  0.06135  0.10148  1.0000
  H   H79       1.0  0.21097  0.12850  0.12621  1.0000
  H   H80       1.0  0.03277  0.04042  0.32650  1.0000
  H   H81       1.0  0.37483  0.14954  0.31643  1.0000
  H   H82       1.0  0.17823  0.04707  0.03321  1.0000
  S   S18       1.0  0.15140  0.33088  0.11382  1.0000
  C   C53       1.0  0.29261  0.29290  0.06948  1.0000
  H   H83       1.0  0.20486  0.09129  0.07729  1.0000
  N   N3        1.0  0.14843  0.11308  0.07126  1.0000
  H   H84       1.0  0.26655  0.09077  0.41406  1.0000
  C   C54       1.0  0.46887  0.08101  0.26011  1.0000
  C   C55       1.0  0.30520  0.07995  0.30986  1.0000
  S   S19       1.0  0.08002  0.31510  0.19934  1.0000
  H   H85       1.0  0.28262  0.12876  0.46932  1.0000
  S   S20       1.0  0.11294  0.31997  0.02862  1.0000
  N   N4        1.0  0.33321  0.29762  0.05785  1.0000
  H   H86       1.0  0.40439  0.03002  0.31311  1.0000
  C   C56       1.0  0.33917  0.28756  0.01682  1.0000
  H   H87       1.0  0.32554  0.15046  0.32930  1.0000
  C   C57       1.0  0.48787  0.30524  0.05662  1.0000
  H   H88       1.0  0.17334  0.19982  0.49791  1.0000
  C   C58       1.0  0.23083  0.02959  0.11519  1.0000
  H   H89       1.0  0.31723  0.08555  0.33845  1.0000
  H   H90       1.0  0.47773  0.05348  0.25266  1.0000
  C   C59       1.0  0.18717  0.07454  0.02297  1.0000
  C   C60       1.0  0.26301  0.31146  0.04398  1.0000
  H   H91       1.0  0.02633  0.21942  0.02860  1.0000
  H   H92       1.0  0.23466  0.30681  0.05646  1.0000
  C   C61       1.0  0.10568  0.05587  0.05922  1.0000
  Fe  Fe12      1.0  0.09409  0.31841  0.13697  1.0000
  H   H93       1.0  0.06423  0.09713  0.40605  1.0000
  H   H94       1.0  0.02490  0.04207  0.48957  1.0000
  H   H95       1.0  0.32316  0.03840  0.24850  1.0000
  H   H96       1.0  0.34667  0.22765  0.01948  1.0000
  H   H97       1.0  0.28811  0.06215  0.19525  1.0000
  H   H98       1.0  0.35494  0.02132  0.31321  1.0000
  H   H99       1.0  0.11463  0.05719  0.02929  1.0000
  H   H100      1.0  0.40518  0.32419  0.05897  1.0000
  C   C62       1.0  0.32797  0.24802  0.00581  1.0000
  H   H101      1.0  0.29820  0.24165  0.01250  1.0000
  H   H102      1.0  0.26233  0.29928  0.01515  1.0000
  C   C63       1.0  0.50549  0.31628  0.02265  1.0000
  S   S21       1.0  0.32847  0.02033  0.39132  1.0000
  N   N5        1.0  0.23152  0.12129  0.50221  1.0000
  H   H103      1.0  0.26684  0.34160  0.04217  1.0000
  H   H104      1.0  0.25051  0.00879  0.37472  1.0000
  H   H105      1.0  0.18640  0.11138  0.56705  1.0000
  C   C64       1.0  0.17654  0.09487  0.54273  1.0000
  H   H106      1.0  0.30257  0.23897  0.52024  1.0000
  H   H107      1.0  0.23548  0.14449  0.55918  1.0000
  H   H108      1.0  0.30391  0.09848  0.53444  1.0000
  H   H109      1.0  0.15064  0.10720  0.53068  1.0000
  C   C65       1.0  0.19126  0.18032  0.51400  1.0000
  C   C66       1.0  0.25382  0.13435  0.53600  1.0000
  H   H110      1.0  0.17322  0.16727  0.53564  1.0000
  C   C67       1.0  0.48302  0.25972  0.99325  1.0000
  H   H111      1.0  0.27125  0.15858  0.52800  1.0000
  H   H112      1.0  0.48115  0.24227  0.96844  1.0000
  H   H113      1.0  0.32402  0.30688  0.99781  1.0000
  C   C68       1.0  0.28051  0.10588  0.55387  1.0000
  H   H114      1.0  0.16917  0.06771  0.55508  1.0000
  H   H115      1.0  0.29376  0.11830  0.57937  1.0000
  H   H116      1.0  0.26542  0.08085  0.56328  1.0000
  H   H117      1.0  0.33159  0.24448  0.97472  1.0000
  H   H118      1.0  0.21324  0.19725  0.52800  1.0000
  S   S22       1.0  0.47341  0.04038  0.51784  1.0000
  C   C69       1.0  0.50290  0.29325  0.99096  1.0000
  H   H119      1.0  0.22322  0.06437  0.51929  1.0000
  C   C70       1.0  0.20657  0.08911  0.51176  1.0000
  H   H120      1.0  0.17050  0.08307  0.99805  1.0000
  Fe  Fe13      1.0  0.16462  0.39058  0.38443  1.0000
  S   S23       1.0  0.16707  0.40841  0.32296  1.0000
  Fe  Fe14      1.0  0.20834  0.40573  0.45656  1.0000
  H   H121      1.0  0.26067  0.61034  0.25443  1.0000
  H   H122      1.0  0.09823  0.49598  0.08354  1.0000
  Fe  Fe15      1.0  0.12591  0.38547  0.46220  1.0000
  S   S24       1.0  0.21964  0.36968  0.40641  1.0000
  S   S25       1.0  0.15616  0.43082  0.43217  1.0000
  C   C71       1.0  0.32178  0.52573  0.33595  1.0000
  Fe  Fe16      1.0  0.12155  0.36569  0.07115  1.0000
  H   H123      1.0  0.33729  0.45742  0.45743  1.0000
  S   S26       1.0  0.14088  0.42476  0.05994  1.0000
  H   H124      1.0  0.09236  0.40354  0.16581  1.0000
  H   H125      1.0  0.13821  0.43880  0.13891  1.0000
  H   H126      1.0  0.21087  0.52822  0.25881  1.0000
  H   H127      1.0  0.47746  0.51575  0.45549  1.0000
  C   C72       1.0  0.25596  0.43329  0.06127  1.0000
  C   C73       1.0  0.21919  0.41848  0.06212  1.0000
  C   C74       1.0  0.18790  0.44181  0.06149  1.0000
  S   S27       1.0  0.24974  0.66315  0.05934  1.0000
  H   H128      1.0  0.21502  0.38905  0.06234  1.0000
  C   C75       1.0  0.14322  0.38182  0.28894  1.0000
  C   C76       1.0  0.15370  0.38450  0.25067  1.0000
  H   H129      1.0  0.42099  0.47578  0.47377  1.0000
  H   H130      1.0  0.29611  0.53321  0.19695  1.0000
  C   C77       1.0  0.12742  0.46497  0.15130  1.0000
  H   H131      1.0  0.07528  0.43289  0.10595  1.0000
  H   H132      1.0  0.40225  0.43127  0.47154  1.0000
  H   H133      1.0  0.23179  0.35815  0.26797  1.0000
  C   C78       1.0  0.25504  0.48368  0.46027  1.0000
  C   C79       1.0  0.23606  0.48857  0.42608  1.0000
  C   C80       1.0  0.23450  0.52330  0.40936  1.0000
  H   H134      1.0  0.22234  0.46564  0.41250  1.0000
  H   H135      1.0  0.21810  0.52714  0.38394  1.0000
  H   H136      1.0  0.27991  0.41503  0.06090  1.0000
  S   S28       1.0  0.35521  0.64947  0.09770  1.0000
  Fe  Fe17      1.0  0.36998  0.64863  0.46155  1.0000
  S   S29       1.0  0.35573  0.62396  0.40455  1.0000
  N   N6        1.0  0.08550  0.46240  0.15802  1.0000
  C   C81       1.0  0.04549  0.46483  0.47546  1.0000
  Fe  Fe18      1.0  0.29588  0.63505  0.42156  1.0000
  H   H137      1.0  0.05461  0.48118  0.06526  1.0000
  H   H138      1.0  0.02358  0.40665  0.16176  1.0000
  H   H139      1.0  0.12585  0.57182  0.44757  1.0000
  H   H140      1.0  0.10314  0.53424  0.14498  1.0000
  H   H141      1.0  0.34550  0.66295  0.19583  1.0000
  H   H142      1.0  0.29759  0.51106  0.34884  1.0000
  Fe  Fe19      1.0  0.32369  0.54933  0.06867  1.0000
  S   S30       1.0  0.29487  0.58135  0.11459  1.0000
  S   S31       1.0  0.30878  0.48902  0.05755  1.0000
  H   H143      1.0  0.32960  0.54751  0.25557  1.0000
  Fe  Fe20      1.0  0.35271  0.59828  0.13318  1.0000
  S   S32       1.0  0.37589  0.58845  0.19178  1.0000
  S   S33       1.0  0.32576  0.59602  0.02681  1.0000
  S   S34       1.0  0.38171  0.56326  0.08979  1.0000
  C   C82       1.0  0.26195  0.47156  0.06053  1.0000
  C   C83       1.0  0.19392  0.48004  0.06112  1.0000
  C   C84       1.0  0.23064  0.49485  0.06098  1.0000
  H   H144      1.0  0.17004  0.49841  0.06036  1.0000
  H   H145      1.0  0.23471  0.52431  0.06019  1.0000
  H   H146      1.0  0.38556  0.50777  0.01817  1.0000
  C   C85       1.0  0.38661  0.63691  0.29415  1.0000
  C   C86       1.0  0.38828  0.61190  0.26387  1.0000
  C   C87       1.0  0.37355  0.62118  0.22836  1.0000
  C   C88       1.0  0.38542  0.34711  0.05411  1.0000
  H   H147      1.0  0.30721  0.61677  0.26919  1.0000
  H   H148      1.0  0.39807  0.62955  0.32150  1.0000
  H   H149      1.0  0.40085  0.58515  0.26809  1.0000
  C   C89       1.0  0.35749  0.65583  0.22299  1.0000
  H   H150      1.0  0.02124  0.43867  0.20149  1.0000
  C   C90       1.0  0.25376  0.55287  0.42563  1.0000
  C   C91       1.0  0.24619  0.55091  0.30421  1.0000
  H   H151      1.0  0.48729  0.59537  0.13922  1.0000
  H   H152      1.0  0.28876  0.50972  0.50328  1.0000
  H   H153      1.0  0.18164  0.47422  0.17782  1.0000
  H   H154      1.0  0.16480  0.51631  0.46378  1.0000
  C   C92       1.0  0.45408  0.67280  0.01434  1.0000
  H   H155      1.0  0.12381  0.49183  0.47634  1.0000
  H   H156      1.0  0.29341  0.51433  0.26215  1.0000
  C   C93       1.0  0.07901  0.42749  0.18034  1.0000
  C   C94       1.0  0.02302  0.49663  0.47952  1.0000
  H   H157      1.0  0.42960  0.62985  0.13037  1.0000
  C   C95       1.0  0.37117  0.67175  0.28876  1.0000
  H   H158      1.0  0.36115  0.39441  0.49391  1.0000
  H   H159      1.0  0.29350  0.58074  0.20794  1.0000
  N   N7        1.0  0.28291  0.56655  0.29019  1.0000
  H   H160      1.0  0.03468  0.45462  0.12501  1.0000
  S   S35       1.0  0.25290  0.44125  0.48349  1.0000
  H   H161      1.0  0.25302  0.55129  0.21483  1.0000
  C   C96       1.0  0.49418  0.46038  0.02510  1.0000
  S   S36       1.0  0.17827  0.36184  0.48933  1.0000
  H   H162      1.0  0.18595  0.55381  0.29472  1.0000
  C   C97       1.0  0.28387  0.55322  0.21740  1.0000
  C   C98       1.0  0.47295  0.53342  0.47980  1.0000
  H   H163      1.0  0.23757  0.36155  0.31894  1.0000
  H   H164      1.0  0.26203  0.66075  0.29754  1.0000
  H   H165      1.0  0.05948  0.45911  0.44882  1.0000
  H   H166      1.0  0.17675  0.40227  0.24267  1.0000
  C   C99       1.0  0.15158  0.47342  0.18654  1.0000
  H   H167      1.0  0.45953  0.54734  0.01087  1.0000
  H   H168      1.0  0.35899  0.50264  0.45506  1.0000
  Fe  Fe21      1.0  0.30011  0.62895  0.07439  1.0000
  C   C100      1.0  0.47217  0.67272  0.22850  1.0000
  H   H169      1.0  0.23783  0.56334  0.33177  1.0000
  H   H170      1.0  0.37309  0.46712  0.42341  1.0000
  C   C101      1.0  0.11265  0.54457  0.45208  1.0000
  H   H171      1.0  0.08381  0.54823  0.46342  1.0000
  H   H172      1.0  0.09533  0.54793  0.19297  1.0000
  H   H173      1.0  0.28932  0.57057  0.47154  1.0000
  C   C102      1.0  0.21209  0.55287  0.27740  1.0000
  H   H174      1.0  0.30032  0.57909  0.34784  1.0000
  H   H175      1.0  0.18925  0.57389  0.46871  1.0000
  H   H176      1.0  0.07713  0.49125  0.21109  1.0000
  H   H177      1.0  0.33749  0.57887  0.31449  1.0000
  H   H178      1.0  0.05774  0.54976  0.15970  1.0000
  C   C103      1.0  0.31092  0.56458  0.32229  1.0000
  H   H179      1.0  0.10993  0.53140  0.42376  1.0000
  C   C104      1.0  0.44916  0.56437  0.47634  1.0000
  S   S37       1.0  0.06415  0.35622  0.09718  1.0000
  H   H180      1.0  0.34323  0.52847  0.35866  1.0000
  C   C105      1.0  0.06888  0.48979  0.09184  1.0000
  C   C106      1.0  0.24990  0.35066  0.29225  1.0000
  C   C107      1.0  0.48682  0.61645  0.11656  1.0000
  H   H181      1.0  0.24937  0.52127  0.31105  1.0000
  N   N8        1.0  0.46405  0.67257  0.15527  1.0000
  H   H182      1.0  0.02005  0.51521  0.45582  1.0000
  S   S38       1.0  0.43584  0.62771  0.02202  1.0000
  H   H183      1.0  0.44476  0.49206  0.03715  1.0000
  C   C108      1.0  0.11416  0.35804  0.29937  1.0000
  H   H184      1.0  0.03867  0.49398  0.17970  1.0000
  H   H185      1.0  0.43562  0.57027  0.44962  1.0000
  C   C109      1.0  0.29843  0.54419  0.25751  1.0000
  C   C110      1.0  0.19106  0.58005  0.49940  1.0000
  S   S39       1.0  0.24942  0.59641  0.40533  1.0000
  H   H186      1.0  0.13500  0.48578  0.12985  1.0000
  S   S40       1.0  0.13011  0.34631  0.41210  1.0000
  H   H187      1.0  0.23819  0.62469  0.32216  1.0000
  C   C111      1.0  0.13501  0.36369  0.22285  1.0000
  H   H188      1.0  0.33458  0.50884  0.31314  1.0000
  H   H189      1.0  0.14907  0.45195  0.20847  1.0000
  C   C112      1.0  0.27953  0.60639  0.27899  1.0000
  Fe  Fe22      1.0  0.38091  0.61352  0.05279  1.0000
  H   H190      1.0  0.21111  0.57798  0.25997  1.0000
  C   C113      1.0  0.36398  0.47262  0.45303  1.0000
  H   H191      1.0  0.28674  0.63622  0.33296  1.0000
  C   C114      1.0  0.27455  0.51320  0.47653  1.0000
  C   C115      1.0  0.27462  0.54766  0.45874  1.0000
  C   C116      1.0  0.08256  0.53333  0.16846  1.0000
  S   S41       1.0  0.30926  0.65595  0.47984  1.0000
  H   H192      1.0  0.44539  0.63083  0.19506  1.0000
  H   H193      1.0  0.27719  0.36505  0.28837  1.0000
  C   C117      1.0  0.39514  0.45967  0.48029  1.0000
  H   H194      1.0  0.14350  0.36561  0.19348  1.0000
  H   H195      1.0  0.45016  0.65892  0.09668  1.0000
  C   C118      1.0  0.06997  0.49427  0.18049  1.0000
  H   H196      1.0  0.14488  0.50052  0.19917  1.0000
  H   H197      1.0  0.48038  0.60172  0.08971  1.0000
  C   C119      1.0  0.06542  0.45817  0.12063  1.0000
  H   H198      1.0  0.03746  0.39273  0.20775  1.0000
  H   H199      1.0  0.48157  0.65408  0.25151  1.0000
  C   C120      1.0  0.46902  0.65058  0.19124  1.0000
  H   H200      1.0  0.09233  0.42924  0.20875  1.0000
  C   C121      1.0  0.26570  0.63301  0.31007  1.0000
  H   H201      1.0  0.32689  0.35526  0.04435  1.0000
  C   C122      1.0  0.13678  0.51965  0.47758  1.0000
  C   C123      1.0  0.45593  0.64534  0.12401  1.0000
  C   C124      1.0  0.03774  0.41643  0.18790  1.0000
  H   H202      1.0  0.05417  0.51486  0.10165  1.0000
  H   H203      1.0  0.39486  0.36971  0.07307  1.0000
  H   H204      1.0  0.10585  0.35585  0.32879  1.0000
  H   H205      1.0  0.49143  0.44720  0.05336  1.0000
  H   H206      1.0  0.38852  0.35606  0.02417  1.0000
  H   H207      1.0  0.49484  0.63336  0.18967  1.0000
  H   H208      1.0  0.33689  0.34749  0.09208  1.0000
  C   C125      1.0  0.45552  0.47540  0.01289  1.0000
  H   H209      1.0  0.43579  0.45169  0.01129  1.0000
  S   S42       1.0  0.07614  0.39892  0.50171  1.0000
  H   H210      1.0  0.19693  0.60995  0.50188  1.0000
  H   H211      1.0  0.50438  0.43875  0.00542  1.0000
  C   C126      1.0  0.08400  0.63896  0.90415  1.0000
  C   C127      1.0  0.37550  0.51266  0.57330  1.0000
  H   H212      1.0  0.11978  0.64033  0.95545  1.0000
  H   H213      1.0  0.49093  0.42425  0.92515  1.0000
  H   H214      1.0  0.45641  0.59686  0.56629  1.0000
  H   H215      1.0  0.11640  0.55745  0.59141  1.0000
  N   N9        1.0  0.45522  0.49761  0.97678  1.0000
  H   H216      1.0  0.36033  0.38353  0.54397  1.0000
  C   C128      1.0  0.02236  0.60972  0.88956  1.0000
  H   H217      1.0  0.42218  0.39130  0.52479  1.0000
  H   H218      1.0  0.46122  0.40646  0.55248  1.0000
  H   H219      1.0  0.09832  0.61335  0.89444  1.0000
  H   H220      1.0  0.47612  0.49534  0.91906  1.0000
  C   C129      1.0  0.47783  0.47934  0.94581  1.0000
  H   H221      1.0  0.37203  0.54294  0.57566  1.0000
  H   H222      1.0  0.07308  0.53252  0.59101  1.0000
  H   H223      1.0  0.08383  0.55209  0.52711  1.0000
  N   N10       1.0  0.14074  0.53196  0.51817  1.0000
  H   H224      1.0  0.48422  0.58901  0.96279  1.0000
  C   C130      1.0  0.35055  0.44210  0.53243  1.0000
  H   H225      1.0  0.50846  0.47947  0.95222  1.0000
  C   C131      1.0  0.01362  0.58999  0.97087  1.0000
  C   C132      1.0  0.49054  0.52483  0.51443  1.0000
  C   C133      1.0  0.46581  0.43988  0.93487  1.0000
  C   C134      1.0  0.46106  0.57927  0.54195  1.0000
  H   H226      1.0  0.44076  0.57102  0.94640  1.0000
  H   H227      1.0  0.06771  0.58046  0.94470  1.0000
  H   H228      1.0  0.17593  0.51701  0.56626  1.0000
  H   H229      1.0  0.48508  0.55447  0.92706  1.0000
  H   H230      1.0  0.17017  0.45371  0.56493  1.0000
  H   H231      1.0  0.32514  0.45610  0.52116  1.0000
  H   H232      1.0  0.02626  0.57940  0.89184  1.0000
  H   H233      1.0  0.11612  0.50759  0.59373  1.0000
  C   C135      1.0  0.41895  0.44900  0.54539  1.0000
  H   H234      1.0  0.02878  0.64762  0.84044  1.0000
  C   C136      1.0  0.10273  0.52979  0.53723  1.0000
  H   H235      1.0  0.49778  0.54204  0.57232  1.0000
  H   H236      1.0  0.39729  0.55087  0.99528  1.0000
  C   C137      1.0  0.15891  0.46601  0.53852  1.0000
  H   H237      1.0  0.06547  0.61875  0.97623  1.0000
  H   H238      1.0  0.05857  0.60740  0.83876  1.0000
  H   H239      1.0  0.50771  0.65282  0.99446  1.0000
  C   C138      1.0  0.15425  0.57118  0.52073  1.0000
  C   C139      1.0  0.38848  0.52199  0.99055  1.0000
  H   H240      1.0  0.13238  0.59057  0.51035  1.0000
  H   H241      1.0  0.21552  0.56567  0.51187  1.0000
  H   H242      1.0  0.40248  0.47371  0.95866  1.0000
  H   H243      1.0  0.31802  0.39351  0.51789  1.0000
  C   C140      1.0  0.10272  0.53207  0.58086  1.0000
  H   H244      1.0  0.12836  0.46036  0.53884  1.0000
  C   C141      1.0  0.48468  0.54822  0.54544  1.0000
  C   C142      1.0  0.44057  0.41509  0.53065  1.0000
  C   C143      1.0  0.05025  0.60472  0.95278  1.0000
  H   H245      1.0  0.34596  0.44293  0.56360  1.0000
  C   C144      1.0  0.41522  0.50131  0.96339  1.0000
  C   C145      1.0  0.34811  0.40113  0.52149  1.0000
  H   H246      1.0  0.40990  0.44275  0.57493  1.0000
  H   H247      1.0  0.08778  0.50417  0.52946  1.0000
  C   C146      1.0  0.03027  0.44800  0.53985  1.0000
  H   H248      1.0  0.35002  0.50004  0.58590  1.0000
  H   H249      1.0  0.03291  0.42919  0.56339  1.0000
  H   H250      1.0  0.35490  0.51355  0.51651  1.0000
  H   H251      1.0  0.45726  0.42192  0.50493  1.0000
  C   C147      1.0  0.04920  0.44016  0.50561  1.0000
  N   N11       1.0  0.04532  0.62995  0.91923  1.0000
  H   H252      1.0  0.08246  0.65682  0.87874  1.0000
  C   C148      1.0  0.16904  0.50734  0.53712  1.0000
  H   H253      1.0  0.44066  0.47095  0.54811  1.0000
  C   C149      1.0  0.47017  0.56338  0.95311  1.0000
  H   H254      1.0  0.41398  0.51501  0.93524  1.0000
  H   H255      1.0  0.15910  0.57915  0.55078  1.0000
  H   H256      1.0  0.40420  0.51915  0.52023  1.0000
  C   C150      1.0  0.03061  0.61811  0.84743  1.0000
  C   C151      1.0  0.47243  0.53466  0.98516  1.0000
  H   H257      1.0  0.44482  0.44037  0.91160  1.0000
  N   N12       1.0  0.38609  0.46238  0.52203  1.0000
  H   H258      1.0  0.45401  0.42393  0.95873  1.0000
  S   S43       1.0  0.41199  0.62621  0.50561  1.0000
  H   H259      1.0  0.02091  0.56934  0.99278  1.0000
  H   H260      1.0  0.35991  0.52288  0.97787  1.0000
  H   H261      1.0  0.19654  0.50858  0.52202  1.0000
  H   H262      1.0  0.40067  0.50552  0.59025  1.0000
  H   H263      1.0  0.17132  0.45124  0.51391  1.0000
  C   C152      1.0  0.38021  0.50260  0.53100  1.0000
  H   H264      1.0  0.50276  0.53176  0.99215  1.0000
  C   C153      1.0  0.11094  0.65854  0.93195  1.0000
  H   H265      1.0  0.13705  0.66619  0.91649  1.0000
  C   C154      1.0  0.02487  0.66382  0.93279  1.0000
  C   C155      1.0  0.44277  0.58742  0.50755  1.0000
  H   H266      1.0  0.19613  0.76219  0.33702  1.0000
  Fe  Fe23      1.0  0.09814  0.96459  0.39272  1.0000
  S   S44       1.0  0.06007  0.91998  0.41332  1.0000
  S   S45       1.0  0.09642  0.98904  0.33411  1.0000
  Fe  Fe24      1.0  0.13951  0.96838  0.46745  1.0000
  H   H267      1.0  0.35395  0.93400  0.01973  1.0000
  Fe  Fe25      1.0  0.11228  0.89475  0.43866  1.0000
  S   S46       1.0  0.12994  0.83577  0.42520  1.0000
  Fe  Fe26      1.0  0.05533  0.95457  0.46641  1.0000
  S   S47       1.0  0.15024  0.93723  0.41386  1.0000
  H   H268      1.0  0.43172  0.76377  0.02142  1.0000
  C   C156      1.0  0.32444  0.88297  0.47647  1.0000
  H   H269      1.0  0.34501  0.70835  0.24879  1.0000
  Fe  Fe27      1.0  0.10895  0.85430  0.07290  1.0000
  S   S48       1.0  0.11769  0.82196  0.12619  1.0000
  C   C157      1.0  0.42005  0.72276  0.12766  1.0000
  Fe  Fe28      1.0  0.15263  0.92210  0.10447  1.0000
  S   S49       1.0  0.16289  0.89400  0.16000  1.0000
  S   S50       1.0  0.17136  0.98233  0.10360  1.0000
  Fe  Fe29      1.0  0.17633  0.84462  0.12480  1.0000
  S   S51       1.0  0.22727  0.81397  0.14497  1.0000
  Fe  Fe30      1.0  0.10348  0.87443  0.15645  1.0000
  S   S52       1.0  0.06430  0.87076  0.20658  1.0000
  S   S53       1.0  0.16970  0.87335  0.06873  1.0000
  S   S54       1.0  0.09112  0.90605  0.10363  1.0000
  S   S55       1.0  0.10381  0.92448  0.49427  1.0000
  H   H270      1.0  0.36508  0.93282  0.36449  1.0000
  C   C158      1.0  0.13640  0.80481  0.31677  1.0000
  H   H271      1.0  0.22498  0.91032  0.39865  1.0000
  H   H272      1.0  0.36296  0.87021  0.03990  1.0000
  C   C159      1.0  0.24365  0.70460  0.08402  1.0000
  C   C160      1.0  0.21338  0.72739  0.07454  1.0000
  C   C161      1.0  0.20790  0.76080  0.09361  1.0000
  C   C162      1.0  0.23277  0.77151  0.12216  1.0000
  C   C163      1.0  0.26301  0.74873  0.13179  1.0000
  C   C164      1.0  0.26844  0.71524  0.11275  1.0000
  H   H273      1.0  0.19418  0.71918  0.05232  1.0000
  H   H274      1.0  0.18462  0.77836  0.08592  1.0000
  H   H275      1.0  0.28225  0.75699  0.15395  1.0000
  H   H276      1.0  0.29161  0.69761  0.12039  1.0000
  C   C165      1.0  0.08576  0.95716  0.29815  1.0000
  C   C166      1.0  0.10142  0.96153  0.26195  1.0000
  C   C167      1.0  0.09473  0.93526  0.23350  1.0000
  C   C168      1.0  0.07164  0.90500  0.24097  1.0000
  C   C169      1.0  0.05492  0.90134  0.27675  1.0000
  C   C170      1.0  0.06235  0.92709  0.30543  1.0000
  H   H277      1.0  0.11943  0.98483  0.25610  1.0000
  H   H278      1.0  0.10733  0.93857  0.20578  1.0000
  H   H279      1.0  0.03676  0.87815  0.28255  1.0000
  H   H280      1.0  0.04968  0.92379  0.33303  1.0000
  C   C171      1.0  0.24266  0.78408  0.46203  1.0000
  C   C172      1.0  0.17354  0.81659  0.43980  1.0000
  N   N13       1.0  0.31393  0.88775  0.43530  1.0000
  H   H281      1.0  0.14046  0.87510  0.35075  1.0000
  H   H282      1.0  0.13868  0.80539  0.34828  1.0000
  H   H283      1.0  0.18506  0.77771  0.26371  1.0000
  C   C173      1.0  0.31611  0.85038  0.41675  1.0000
  H   H284      1.0  0.39335  0.73709  0.13475  1.0000
  C   C174      1.0  0.23085  0.81788  0.47744  1.0000
  H   H285      1.0  0.25686  0.89083  0.45744  1.0000
  H   H286      1.0  0.49935  0.71978  0.16673  1.0000
  H   H287      1.0  0.14007  0.83829  0.22334  1.0000
  H   H288      1.0  0.18673  0.89354  0.34135  1.0000
  H   H289      1.0  0.27364  0.93256  0.43810  1.0000
  H   H290      1.0  0.07668  0.76287  0.06387  1.0000
  H   H291      1.0  0.33350  0.89631  0.35820  1.0000
  S   S56       1.0  0.07208  0.83354  0.02396  1.0000
  H   H292      1.0  0.30764  0.85104  0.38659  1.0000
  C   C175      1.0  0.31874  0.83260  0.08958  1.0000
  H   H293      1.0  0.32633  0.84800  0.11572  1.0000
  C   C176      1.0  0.20304  0.82128  0.32375  1.0000
  H   H294      1.0  0.24840  0.91753  0.11268  1.0000
  C   C177      1.0  0.32903  0.91570  0.02238  1.0000
  H   H295      1.0  0.43405  0.71580  0.18534  1.0000
  H   H296      1.0  0.22665  0.83858  0.31300  1.0000
  H   H297      1.0  0.09061  0.82206  0.27760  1.0000
  C   C178      1.0  0.04591  0.79179  0.02089  1.0000
  H   H298      1.0  0.28524  0.89059  0.13215  1.0000
  H   H299      1.0  0.03777  0.79133  0.11801  1.0000
  H   H300      1.0  0.18805  0.86025  0.47826  1.0000
  H   H301      1.0  0.13689  0.77508  0.30929  1.0000
  C   C179      1.0  0.26324  0.00365  0.48372  1.0000
  C   C180      1.0  0.49925  0.69486  0.14834  1.0000
  H   H302      1.0  0.22715  0.96542  0.04516  1.0000
  C   C181      1.0  0.23779  0.98772  0.06239  1.0000
  C   C182      1.0  0.27135  0.80417  0.02744  1.0000
  C   C183      1.0  0.15858  0.88826  0.32907  1.0000
  C   C184      1.0  0.27410  0.90226  0.43380  1.0000
  H   H303      1.0  0.35013  0.78136  0.09466  1.0000
  S   S57       1.0  0.28700  0.76569  0.47574  1.0000
  H   H304      1.0  0.02855  0.83127  0.14423  1.0000
  H   H305      1.0  0.44161  0.74443  0.12354  1.0000
  H   H306      1.0  0.37961  0.82168  0.08993  1.0000
  H   H307      1.0  0.18430  0.87769  0.27492  1.0000
  S   S58       1.0  0.37107  0.70407  0.32584  1.0000
  H   H308      1.0  0.05858  0.78716  0.18436  1.0000
  H   H309      1.0  0.34779  0.89833  0.07778  1.0000
  H   H310      1.0  0.24960  0.85820  0.08118  1.0000
  H   H311      1.0  0.36225  0.82264  0.44711  1.0000
  H   H312      1.0  0.16698  0.76826  0.40502  1.0000
  C   C185      1.0  0.05356  0.76156  0.04404  1.0000
  H   H313      1.0  0.24419  0.81100  0.04122  1.0000
  S   S59       1.0  0.09107  0.00045  0.44410  1.0000
  C   C186      1.0  0.33789  0.88507  0.05113  1.0000
  H   H314      1.0  0.48950  0.98580  0.45792  1.0000
  C   C187      1.0  0.27618  0.90497  0.10608  1.0000
  H   H315      1.0  0.24283  0.86461  0.39668  1.0000
  H   H316      1.0  0.41497  0.70779  0.10088  1.0000
  H   H317      1.0  0.40424  0.70171  0.03192  1.0000
  H   H318      1.0  0.14638  0.91549  0.32233  1.0000
  H   H319      1.0  0.13550  0.86990  0.27618  1.0000
  C   C188      1.0  0.18502  0.78253  0.42481  1.0000
  C   C189      1.0  0.09644  0.81908  0.30819  1.0000
  H   H320      1.0  0.09100  0.84564  0.32263  1.0000
  S   S60       1.0  0.37303  0.70682  0.43881  1.0000
  H   H321      1.0  0.19654  0.83163  0.35282  1.0000
  C   C190      1.0  0.25126  0.89400  0.39770  1.0000
  H   H322      1.0  0.19512  0.00028  0.41641  1.0000
  H   H323      1.0  0.12465  0.79202  0.23557  1.0000
  H   H324      1.0  0.02404  0.85535  0.08620  1.0000
  H   H325      1.0  0.33737  0.94245  0.43107  1.0000
  N   N14       1.0  0.16904  0.82470  0.29835  1.0000
  C   C191      1.0  0.43287  0.70439  0.02186  1.0000
  Fe  Fe31      1.0  0.31114  0.71184  0.45224  1.0000
  C   C192      1.0  0.14915  0.80981  0.22925  1.0000
  C   C193      1.0  0.21953  0.76652  0.43553  1.0000
  C   C194      1.0  0.21715  0.99967  0.09390  1.0000
  C   C195      1.0  0.22735  0.99986  0.46800  1.0000
  C   C196      1.0  0.21853  0.78205  0.32934  1.0000
  C   C197      1.0  0.01894  0.80257  0.14051  1.0000
  C   C198      1.0  0.34103  0.91486  0.41795  1.0000
  H   H326      1.0  0.22795  0.74035  0.42370  1.0000
  H   H327      1.0  0.37081  0.90805  0.42462  1.0000
  C   C199      1.0  0.35323  0.80830  0.08021  1.0000
  H   H328      1.0  0.16159  0.79916  0.20245  1.0000
  C   C200      1.0  0.27134  0.87834  0.07231  1.0000
  C   C201      1.0  0.44848  0.73959  0.01570  1.0000
  H   H329      1.0  0.28590  0.99781  0.02633  1.0000
  H   H330      1.0  0.07554  0.79934  0.31976  1.0000
  C   C202      1.0  0.35476  0.83123  0.41793  1.0000
  H   H331      1.0  0.35325  0.80551  0.40089  1.0000
  H   H332      1.0  0.20528  0.82012  0.24906  1.0000
  H   H333      1.0  0.29557  0.92799  0.09960  1.0000
  C   C203      1.0  0.16162  0.86512  0.29252  1.0000
  C   C204      1.0  0.17902  0.80753  0.26062  1.0000
  C   C205      1.0  0.19678  0.83430  0.46606  1.0000
  C   C206      1.0  0.33792  0.92158  0.37498  1.0000
  N   N15       1.0  0.30626  0.85859  0.05893  1.0000
  H   H334      1.0  0.30527  0.93320  0.03170  1.0000
  H   H335      1.0  0.31546  0.94184  0.36870  1.0000
  H   H336      1.0  0.23918  0.78228  0.35296  1.0000
  H   H337      1.0  0.48219  0.70837  0.08828  1.0000
  H   H338      1.0  0.25811  0.89415  0.04889  1.0000
  H   H339      1.0  0.37736  0.84840  0.40551  1.0000
  H   H340      1.0  0.35457  0.87524  0.47935  1.0000
  C   C207      1.0  0.27100  0.00624  0.05166  1.0000
  S   S61       1.0  0.18846  0.99383  0.49796  1.0000
  H   H341      1.0  0.23392  0.77225  0.30383  1.0000
  H   H342      1.0  0.30816  0.85991  0.48931  1.0000
  H   H343      1.0  0.02420  0.75257  0.17570  1.0000
  H   H344      1.0  0.26613  0.90147  0.37131  1.0000
  C   C208      1.0  0.02835  0.78267  0.17783  1.0000
  H   H345      1.0  0.01221  0.79407  0.20209  1.0000
  H   H346      1.0  0.29553  0.83147  0.43022  1.0000
  H   H347      1.0  0.35627  0.80173  0.04975  1.0000
  H   H348      1.0  0.03801  0.70609  0.05911  1.0000
  C   C209      1.0  0.03164  0.72929  0.04113  1.0000
  S   S62       1.0  0.29311  0.69097  0.39563  1.0000
  H   H349      1.0  0.29535  0.81461  0.09916  1.0000
  H   H350      1.0  0.02842  0.00035  0.38003  1.0000
  C   C210      1.0  0.22286  0.00170  0.42867  1.0000
  C   C211      1.0  0.50531  0.97860  0.48298  1.0000
  H   H351      1.0  0.24797  0.83131  0.49860  1.0000
  H   H352      1.0  0.49289  0.69539  0.22652  1.0000
  Fe  Fe32      1.0  0.35421  0.68226  0.38340  1.0000
  C   C212      1.0  0.43028  0.69712  0.16068  1.0000
  C   C213      1.0  0.29673  0.83831  0.02281  1.0000
  C   C214      1.0  0.50689  0.70755  0.10707  1.0000
  H   H353      1.0  0.40499  0.68017  0.16698  1.0000
  H   H354      1.0  0.44439  0.68355  0.23768  1.0000
  C   C215      1.0  0.35697  0.68135  0.25302  1.0000
  H   H355      1.0  0.33672  0.94036  0.49370  1.0000
  H   H356      1.0  0.28546  0.78190  0.04345  1.0000
  C   C216      1.0  0.31872  0.91693  0.50230  1.0000
  C   C217      1.0  0.25420  0.00703  0.40509  1.0000
  H   H357      1.0  0.32247  0.82964  0.00719  1.0000
  N   N16       1.0  0.47899  0.86977  0.60107  1.0000
  H   H358      1.0  0.43358  0.87880  0.53283  1.0000
  C   C218      1.0  0.47782  0.84016  0.66769  1.0000
  H   H359      1.0  0.32323  0.90443  0.99375  1.0000
  H   H360      1.0  0.26684  0.00209  0.51413  1.0000
  C   C219      1.0  0.41946  0.88125  0.56078  1.0000
  H   H361      1.0  0.09893  0.68436  0.94348  1.0000
  H   H362      1.0  0.46982  0.92852  0.59750  1.0000
  C   C220      1.0  0.43926  0.85845  0.59174  1.0000
  C   C221      1.0  0.50298  0.87140  0.56583  1.0000
  H   H363      1.0  0.47653  0.82737  0.53130  1.0000
  H   H364      1.0  0.42101  0.86031  0.61734  1.0000
  H   H365      1.0  0.41700  0.91063  0.56877  1.0000
  H   H366      1.0  0.04881  0.70630  0.89503  1.0000
  H   H367      1.0  0.03841  0.67527  0.95868  1.0000
  C   C222      1.0  0.01624  0.78906  0.99461  1.0000
  H   H368      1.0  0.45623  0.90880  0.64140  1.0000
  H   H369      1.0  0.43799  0.82903  0.58305  1.0000
  H   H370      1.0  0.49396  0.89418  0.54697  1.0000
  H   H371      1.0  0.39038  0.87063  0.55709  1.0000
  C   C223      1.0  0.49544  0.84171  0.62770  1.0000
  H   H372      1.0  0.44769  0.83246  0.66693  1.0000
  C   C224      1.0  0.47814  0.90753  0.61881  1.0000
  C   C225      1.0  0.49102  0.67697  0.00050  1.0000
  C   C226      1.0  0.02116  0.69535  0.90413  1.0000
  C   C227      1.0  0.50656  0.71218  0.99411  1.0000
  H   H373      1.0  0.48149  0.86619  0.68358  1.0000
  H   H374      1.0  0.32690  0.90962  0.53169  1.0000
  C   C228      1.0  0.50187  0.00011  0.51578  1.0000
  S   S63       1.0  0.50349  0.78902  0.99426  1.0000
  H   H375      1.0  0.49265  0.81353  0.61575  1.0000
  H   H376      1.0  0.26470  0.79278  0.99899  1.0000
  H   H377      1.0  0.49259  0.81868  0.68434  1.0000
  C   C229      1.0  0.50453  0.83591  0.54182  1.0000
  C   C230      1.0  0.48533  0.74381  0.00156  1.0000
  H   H378      1.0  0.28193  0.85679  0.00264  1.0000
  H   H379      1.0  0.28891  0.92584  0.50363  1.0000
  H   H380      1.0  0.56225  0.21758  0.08334  1.0000
  C   C231      1.0  0.97783  0.18744  0.01105  1.0000
  H   H381      1.0  0.59505  0.28362  0.04149  1.0000
  C   C232      1.0  0.00181  0.04407  0.32880  1.0000
  H   H382      1.0  0.61953  0.15726  0.02002  1.0000
  C   C233      1.0  0.54939  0.17685  0.01794  1.0000
  C   C234      1.0  0.99536  0.04253  0.49691  1.0000
  C   C235      1.0  0.59634  0.26236  0.06401  1.0000
  H   H383      1.0  0.94018  0.08364  0.42520  1.0000
  C   C236      1.0  0.00912  0.07680  0.38886  1.0000
  H   H384      1.0  0.59487  0.09721  0.43486  1.0000
  H   H385      1.0  0.00352  0.07679  0.41995  1.0000
  C   C237      1.0  0.56865  0.23065  0.05580  1.0000
  C   C238      1.0  0.59861  0.03071  0.46765  1.0000
  C   C239      1.0  0.62090  0.17233  0.07938  1.0000
  C   C240      1.0  0.58550  0.09688  0.46499  1.0000
  H   H386      1.0  0.77164  0.27395  0.01260  1.0000
  H   H387      1.0  0.65942  0.06087  0.42907  1.0000
  H   H388      1.0  0.66361  0.05647  0.50316  1.0000
  H   H389      1.0  0.99270  0.10178  0.50147  1.0000
  H   H390      1.0  0.58795  0.27626  0.09082  1.0000
  C   C241      1.0  0.66590  0.08321  0.44943  1.0000
  H   H391      1.0  0.94119  0.07860  0.35592  1.0000
  C   C242      1.0  0.94003  0.25441  0.00905  1.0000
  H   H392      1.0  0.65793  0.11009  0.43702  1.0000
  H   H393      1.0  0.00340  0.01495  0.42071  1.0000
  H   H394      1.0  0.93915  0.03429  0.43069  1.0000
  H   H395      1.0  0.62567  0.25266  0.06726  1.0000
  C   C243      1.0  0.97823  0.25402  0.01955  1.0000
  N   N17       1.0  0.98940  0.04492  0.36975  1.0000
  N   N18       1.0  0.58115  0.20322  0.02618  1.0000
  H   H396      1.0  0.64169  0.19978  0.03017  1.0000
  N   N19       1.0  0.60562  0.06720  0.48695  1.0000
  H   H397      1.0  0.90015  0.05799  0.41043  1.0000
  H   H398      1.0  0.52297  0.17209  0.07484  1.0000
  H   H399      1.0  0.53111  0.11402  0.44279  1.0000
  H   H400      1.0  0.52508  0.19180  0.00540  1.0000
  H   H401      1.0  0.53243  0.06633  0.45448  1.0000
  H   H402      1.0  0.59246  0.12461  0.47658  1.0000
  H   H403      1.0  0.68251  0.25199  0.01845  1.0000
  H   H404      1.0  0.92521  0.28033  0.00810  1.0000
  H   H405      1.0  0.69690  0.08382  0.45348  1.0000
  H   H406      1.0  0.57056  0.01976  0.47575  1.0000
  C   C244      1.0  0.99697  0.22021  0.02070  1.0000
  C   C245      1.0  0.54216  0.09390  0.46365  1.0000
  H   H407      1.0  0.99571  0.01712  0.27432  1.0000
  H   H408      1.0  0.59443  0.16875  0.09536  1.0000
  S   S64       1.0  0.00144  0.29659  0.02897  1.0000
  C   C246      1.0  0.93134  0.05733  0.41193  1.0000
  C   C247      1.0  0.53378  0.15456  0.05152  1.0000
  H   H409      1.0  0.63923  0.19245  0.09423  1.0000
  H   H410      1.0  0.81663  0.29719  0.01547  1.0000
  C   C248      1.0  0.97539  0.00946  0.49968  1.0000
  H   H411      1.0  0.52917  0.10102  0.49136  1.0000
  H   H412      1.0  0.59770  0.03452  0.43633  1.0000
  H   H413      1.0  0.99804  0.10356  0.37835  1.0000
  C   C249      1.0  0.94777  0.05286  0.37165  1.0000
  H   H414      1.0  0.71939  0.32510  0.01679  1.0000
  C   C250      1.0  0.64674  0.07738  0.48822  1.0000
  H   H415      1.0  0.76066  0.32847  0.04382  1.0000
  H   H416      1.0  0.93078  0.03159  0.35723  1.0000
  C   C251      1.0  0.61650  0.18286  0.03714  1.0000
  H   H417      1.0  0.63610  0.14571  0.08109  1.0000
  H   H418      1.0  0.99273  0.16156  0.01176  1.0000
  H   H419      1.0  0.55456  0.13433  0.06198  1.0000
  H   H420      1.0  0.99540  0.07080  0.31487  1.0000
  H   H421      1.0  0.54167  0.24343  0.04724  1.0000
  H   H422      1.0  0.95436  0.01363  0.30266  1.0000
  C   C252      1.0  0.98546  0.01325  0.30384  1.0000
  C   C253      1.0  0.00026  0.00984  0.38977  1.0000
  S   S65       1.0  0.73098  0.19032  0.00451  1.0000
  H   H423      1.0  0.70649  0.04270  0.96179  1.0000
  Fe  Fe33      1.0  0.77893  0.11232  0.56372  1.0000
  S   S66       1.0  0.80837  0.15682  0.53080  1.0000
  S   S67       1.0  0.73365  0.07585  0.53986  1.0000
  Fe  Fe34      1.0  0.82716  0.12242  0.63324  1.0000
  S   S68       1.0  0.86031  0.16785  0.60626  1.0000
  S   S69       1.0  0.84049  0.09464  0.68884  1.0000
  Fe  Fe35      1.0  0.80395  0.18909  0.58555  1.0000
  S   S70       1.0  0.78986  0.25040  0.59435  1.0000
  Fe  Fe36      1.0  0.86173  0.13158  0.55415  1.0000
  H   H424      1.0  0.59563  0.04729  0.58410  1.0000
  S   S71       1.0  0.77103  0.14558  0.61678  1.0000
  S   S72       1.0  0.83200  0.08524  0.58274  1.0000
  H   H425      1.0  0.88468  0.18510  0.88416  1.0000
  C   C254      1.0  0.67536  0.27885  0.96452  1.0000
  H   H426      1.0  0.88936  0.26044  0.86231  1.0000
  Fe  Fe37      1.0  0.77385  0.15667  0.97294  1.0000
  C   C255      1.0  0.73718  0.08987  0.76619  1.0000
  Fe  Fe38      1.0  0.80979  0.15238  0.89548  1.0000
  S   S73       1.0  0.84651  0.10533  0.91215  1.0000
  S   S74       1.0  0.81082  0.18326  0.84017  1.0000
  Fe  Fe39      1.0  0.79462  0.08209  0.94071  1.0000
  N   N20       1.0  0.72353  0.07843  0.80511  1.0000
  Fe  Fe40      1.0  0.85688  0.13776  0.96589  1.0000
  S   S75       1.0  0.75730  0.12725  0.91965  1.0000
  S   S76       1.0  0.82290  0.18592  0.94709  1.0000
  H   H427      1.0  0.65386  0.20705  0.66152  1.0000
  H   H428      1.0  0.72459  0.15718  0.79222  1.0000
  H   H429      1.0  0.99796  0.23749  0.92279  1.0000
  C   C256      1.0  0.68535  0.27919  0.92616  1.0000
  C   C257      1.0  0.70961  0.25222  0.91195  1.0000
  C   C258      1.0  0.72387  0.22506  0.93602  1.0000
  H   H430      1.0  0.65092  0.10303  0.50507  1.0000
  H   H431      1.0  0.71772  0.25249  0.88235  1.0000
  H   H432      1.0  0.74276  0.20459  0.92472  1.0000
  H   H433      1.0  0.59040  0.09595  0.53852  1.0000
  H   H434      1.0  0.60484  0.01320  0.54950  1.0000
  H   H435      1.0  0.74631  0.07114  0.86193  1.0000
  C   C259      1.0  0.83502  0.12095  0.73027  1.0000
  C   C260      1.0  0.84591  0.10597  0.76513  1.0000
  C   C261      1.0  0.83922  0.12516  0.79907  1.0000
  C   C262      1.0  0.82169  0.15948  0.79817  1.0000
  C   C263      1.0  0.81194  0.17503  0.76322  1.0000
  C   C264      1.0  0.81843  0.15573  0.72929  1.0000
  H   H436      1.0  0.85919  0.07924  0.76584  1.0000
  H   H437      1.0  0.84733  0.11324  0.82585  1.0000
  H   H438      1.0  0.79871  0.20178  0.76239  1.0000
  H   H439      1.0  0.81021  0.16754  0.70243  1.0000
  H   H440      1.0  0.65606  0.22070  0.61202  1.0000
  C   C265      1.0  0.88285  0.24447  0.88803  1.0000
  H   H441      1.0  0.77029  0.01708  0.81449  1.0000
  C   C266      1.0  0.68727  0.32215  0.56179  1.0000
  C   C267      1.0  0.68491  0.02883  0.84044  1.0000
  C   C268      1.0  0.74725  0.31385  0.59414  1.0000
  C   C269      1.0  0.75019  0.27738  0.58081  1.0000
  C   C270      1.0  0.72154  0.26357  0.55766  1.0000
  C   C271      1.0  0.69054  0.28591  0.54799  1.0000
  C   C272      1.0  0.74898  0.05923  0.73823  1.0000
  H   H442      1.0  0.58530  0.32935  0.60589  1.0000
  H   H443      1.0  0.72345  0.23575  0.54693  1.0000
  H   H444      1.0  0.80537  0.05119  0.80269  1.0000
  H   H445      1.0  0.85219  0.23871  0.88686  1.0000
  C   C273      1.0  0.79465  0.28702  0.99605  1.0000
  C   C274      1.0  0.75602  0.07404  0.83208  1.0000
  C   C275      1.0  0.69992  0.04406  0.80246  1.0000
  H   H446      1.0  0.94920  0.26136  0.85557  1.0000
  H   H447      1.0  0.67181  0.11006  0.80374  1.0000
  C   C276      1.0  0.71531  0.14775  0.82061  1.0000
  C   C277      1.0  0.58860  0.22443  0.99015  1.0000
  H   H448      1.0  0.88924  0.04523  0.52370  1.0000
  H   H449      1.0  0.96188  0.18453  0.81689  1.0000
  C   C278      1.0  0.66316  0.33670  0.69508  1.0000
  H   H450      1.0  0.75645  0.30304  0.95308  1.0000
  C   C279      1.0  0.57465  0.30227  0.61541  1.0000
  H   H451      1.0  0.62522  0.27676  0.59743  1.0000
  H   H452      1.0  0.92006  0.13454  0.90025  1.0000
  H   H453      1.0  0.73892  0.15000  0.84079  1.0000
  H   H454      1.0  0.65054  0.32901  0.72273  1.0000
  C   C280      1.0  0.97534  0.25413  0.90967  1.0000
  C   C281      1.0  0.66849  0.22463  0.64057  1.0000
  C   C282      1.0  0.60078  0.20162  0.95526  1.0000
  H   H455      1.0  0.72431  0.04325  0.72820  1.0000
  H   H456      1.0  0.66877  0.27493  0.52981  1.0000
  H   H457      1.0  0.69002  0.10312  0.85017  1.0000
  H   H458      1.0  0.75598  0.05917  0.61665  1.0000
  H   H459      1.0  0.91827  0.16450  0.83098  1.0000
  H   H460      1.0  0.70805  0.02109  0.85985  1.0000
  C   C283      1.0  0.78395  0.04273  0.82378  1.0000
  H   H461      1.0  0.59564  0.24761  0.62488  1.0000
  C   C284      1.0  0.71377  0.22462  0.97437  1.0000
  C   C285      1.0  0.97705  0.07638  0.50381  1.0000
  C   C286      1.0  0.94964  0.13569  0.89068  1.0000
  H   H462      1.0  0.91072  0.20355  0.77625  1.0000
  H   H463      1.0  0.56340  0.24071  0.98186  1.0000
  C   C287      1.0  0.96385  0.23887  0.87047  1.0000
  N   N21       1.0  0.63132  0.28380  0.65816  1.0000
  H   H464      1.0  0.77323  0.09950  0.83286  1.0000
  C   C288      1.0  0.77926  0.31690  0.96929  1.0000
  H   H465      1.0  0.68573  0.28016  0.63068  1.0000
  C   C289      1.0  0.61378  0.26785  0.69344  1.0000
  C   C290      1.0  0.60755  0.27588  0.62360  1.0000
  H   H466      1.0  0.63939  0.04894  0.55975  1.0000
  C   C291      1.0  0.69843  0.10862  0.82031  1.0000
  C   C292      1.0  0.57668  0.28508  0.70758  1.0000
  C   C293      1.0  0.92079  0.22162  0.99980  1.0000
  C   C294      1.0  0.63835  0.32455  0.66157  1.0000
  S   S77       1.0  0.91733  0.14580  0.98703  1.0000
  H   H467      1.0  0.57747  0.18445  0.94421  1.0000
  H   H468      1.0  0.76162  0.07214  0.71264  1.0000
  H   H469      1.0  0.71545  0.02115  0.78892  1.0000
  H   H470      1.0  0.60746  0.23822  0.68915  1.0000
  H   H471      1.0  0.63391  0.26780  0.71758  1.0000
  S   S78       1.0  0.80834  0.11008  0.99635  1.0000
  H   H472      1.0  0.55776  0.29108  0.59157  1.0000
  C   C295      1.0  0.96495  0.17532  0.89095  1.0000
  H   H473      1.0  0.76926  0.32492  0.61194  1.0000
  H   H474      1.0  0.55800  0.15608  0.99646  1.0000
  C   C296      1.0  0.66911  0.26548  0.65256  1.0000
  C   C297      1.0  0.74395  0.03471  0.60410  1.0000
  H   H475      1.0  0.68633  0.26682  0.67882  1.0000
  H   H476      1.0  0.62586  0.18444  0.96107  1.0000
  H   H477      1.0  0.55203  0.27163  0.69414  1.0000
  H   H478      1.0  0.99023  0.23477  0.85382  1.0000
  C   C298      1.0  0.93454  0.19064  0.83113  1.0000
  H   H479      1.0  0.61192  0.34049  0.66397  1.0000
  C   C299      1.0  0.73016  0.03562  0.56699  1.0000
  H   H480      1.0  0.60882  0.22078  0.93210  1.0000
  H   H481      1.0  0.80176  0.32283  0.94812  1.0000
  H   H482      1.0  0.88279  0.21952  0.81449  1.0000
  H   H483      1.0  0.95125  0.25583  0.92949  1.0000
  C   C300      1.0  0.91231  0.21637  0.80486  1.0000
  H   H484      1.0  0.65634  0.29920  0.97561  1.0000
  H   H485      1.0  0.92591  0.24348  0.80107  1.0000
  H   H486      1.0  0.55541  0.30622  0.63967  1.0000
  H   H487      1.0  0.69356  0.16746  0.83059  1.0000
  H   H488      1.0  0.96621  0.11883  0.91086  1.0000
  C   C301      1.0  0.90430  0.20765  0.89228  1.0000
  H   H489      1.0  0.88676  0.26191  0.91360  1.0000
  H   H490      1.0  0.96876  0.18248  0.92143  1.0000
  N   N22       1.0  0.94113  0.20383  0.87118  1.0000
  H   H491      1.0  0.90895  0.20415  0.92323  1.0000
  H   H492      1.0  0.69800  0.21464  0.63852  1.0000
  H   H493      1.0  0.76146  0.10902  0.76861  1.0000
  H   H494      1.0  0.77042  0.04048  0.74984  1.0000
  C   C302      1.0  0.60912  0.04264  0.55605  1.0000
  H   H495      1.0  0.95255  0.12262  0.86237  1.0000
  C   C303      1.0  0.68982  0.25180  0.98868  1.0000
  H   H496      1.0  0.57490  0.31505  0.70340  1.0000
  H   H497      1.0  0.66547  0.04808  0.85496  1.0000
  S   S79       1.0  0.66937  0.31384  0.89577  1.0000
  H   H498      1.0  0.71496  0.10558  0.75097  1.0000
  H   H499      1.0  0.51592  0.30143  0.96453  1.0000
  H   H500      1.0  0.99380  0.17432  0.87852  1.0000
  H   H501      1.0  0.80746  0.26476  0.97871  1.0000
  H   H502      1.0  0.57449  0.28151  0.73878  1.0000
  H   H503      1.0  0.69226  0.32601  0.69270  1.0000
  H   H504      1.0  0.79870  0.03534  0.85040  1.0000
  H   H505      1.0  0.67530  0.04886  0.78361  1.0000
  H   H506      1.0  0.61135  0.24486  0.99439  1.0000
  H   H507      1.0  0.98675  0.28238  0.90636  1.0000
  H   H508      1.0  0.65171  0.33501  0.63513  1.0000
  C   C304      1.0  0.70458  0.01482  0.95123  1.0000
  C   C305      1.0  0.91885  0.04458  0.51683  1.0000
  C   C306      1.0  0.71593  0.33603  0.58495  1.0000
  C   C307      1.0  0.93702  0.01084  0.50931  1.0000
  C   C308      1.0  0.93877  0.07765  0.51419  1.0000
  S   S80       1.0  0.77992  0.02153  0.92942  1.0000
  H   H509      1.0  0.89140  0.22252  0.99208  1.0000
  S   S81       1.0  0.91645  0.12107  0.52096  1.0000
  H   H510      1.0  0.85316  0.01736  0.63206  1.0000
  C   C309      1.0  0.58979  0.06750  0.52671  1.0000
  H   H511      1.0  0.55970  0.05909  0.52675  1.0000
  H   H512      1.0  0.81819  0.01204  0.51050  1.0000
  C   C310      1.0  0.93965  0.18787  0.00046  1.0000
  H   H513      1.0  0.85255  0.00895  0.56872  1.0000
  C   C311      1.0  0.72767  0.37736  0.04458  1.0000
  S   S82       1.0  0.52964  0.35924  0.02106  1.0000
  H   H514      1.0  0.84904  0.35229  0.01127  1.0000
  H   H515      1.0  0.60790  0.61563  0.49856  1.0000
  H   H516      1.0  0.67742  0.60955  0.02590  1.0000
  H   H517      1.0  0.81424  0.35496  0.04870  1.0000
  C   C312      1.0  0.76275  0.53683  0.03738  1.0000
  H   H518      1.0  0.75052  0.66514  0.07716  1.0000
  H   H519      1.0  0.66808  0.61220  0.49781  1.0000
  C   C313      1.0  0.71306  0.66945  0.02865  1.0000
  C   C314      1.0  0.74836  0.65362  0.04806  1.0000
  H   H520      1.0  0.74994  0.39728  0.05245  1.0000
  H   H521      1.0  0.71438  0.36790  0.07137  1.0000
  H   H522      1.0  0.72209  0.50022  0.06190  1.0000
  H   H523      1.0  0.70536  0.39148  0.02837  1.0000
  H   H524      1.0  0.68992  0.66681  0.04976  1.0000
  H   H525      1.0  0.77253  0.54632  0.06474  1.0000
  H   H526      1.0  0.77454  0.66174  0.03301  1.0000
  C   C315      1.0  0.82601  0.36911  0.02369  1.0000
  C   C316      1.0  0.73397  0.51061  0.03575  1.0000
  S   S83       1.0  0.81315  0.58632  0.01041  1.0000
  H   H527      1.0  0.74716  0.62330  0.05079  1.0000
  H   H528      1.0  0.57680  0.55747  0.49166  1.0000
  H   H529      1.0  0.51506  0.62890  0.11341  1.0000
  H   H530      1.0  0.83840  0.39486  0.03520  1.0000
  H   H531      1.0  0.85836  0.48142  0.49170  1.0000
  H   H532      1.0  0.90178  0.50580  0.49299  1.0000
  H   H533      1.0  0.51563  0.48233  0.02762  1.0000
  H   H534      1.0  0.90159  0.46018  0.47462  1.0000
  H   H535      1.0  0.88767  0.40006  0.48975  1.0000
  H   H536      1.0  0.62697  0.65089  0.01412  1.0000
  H   H537      1.0  0.95068  0.38735  0.48307  1.0000
  C   C317      1.0  0.88896  0.47815  0.49662  1.0000
  C   C318      1.0  0.74345  0.34377  0.02306  1.0000
  C   C319      1.0  0.77879  0.55113  0.00430  1.0000
  H   H538      1.0  0.79268  0.56279  0.62665  1.0000
  S   S84       1.0  0.63259  0.42039  0.63365  1.0000
  Fe  Fe41      1.0  0.55753  0.46063  0.56326  1.0000
  S   S85       1.0  0.56410  0.48180  0.62288  1.0000
  H   H539      1.0  0.87457  0.42740  0.60631  1.0000
  Fe  Fe42      1.0  0.62589  0.47730  0.61054  1.0000
  S   S86       1.0  0.66101  0.52589  0.62709  1.0000
  Fe  Fe43      1.0  0.57006  0.42272  0.64063  1.0000
  S   S87       1.0  0.54922  0.39126  0.69170  1.0000
  S   S88       1.0  0.61971  0.45887  0.55013  1.0000
  H   H540      1.0  0.56734  0.35893  0.76340  1.0000
  Fe  Fe44      1.0  0.58627  0.42299  0.90337  1.0000
  S   S89       1.0  0.58039  0.43991  0.96457  1.0000
  S   S90       1.0  0.56184  0.45885  0.85734  1.0000
  Fe  Fe45      1.0  0.57193  0.37937  0.97634  1.0000
  Fe  Fe46      1.0  0.64278  0.42993  0.96787  1.0000
  H   H541      1.0  0.75255  0.49030  0.75891  1.0000
  S   S91       1.0  0.64893  0.41677  0.90623  1.0000
  H   H542      1.0  0.71039  0.47865  0.81536  1.0000
  S   S92       1.0  0.97717  0.54579  0.51732  1.0000
  H   H543      1.0  0.67357  0.56418  0.96661  1.0000
  H   H544      1.0  0.76962  0.64635  0.58924  1.0000
  H   H545      1.0  0.71149  0.35246  0.95758  1.0000
  H   H546      1.0  0.66686  0.46541  0.83782  1.0000
  C   C320      1.0  0.75186  0.37523  0.91888  1.0000
  H   H547      1.0  0.92786  0.46879  0.54141  1.0000
  C   C321      1.0  0.55899  0.43988  0.81133  1.0000
  C   C322      1.0  0.68309  0.61105  0.52513  1.0000
  S   S93       1.0  0.64646  0.34825  0.54986  1.0000
  C   C323      1.0  0.55353  0.41068  0.73735  1.0000
  C   C324      1.0  0.56265  0.38794  0.76805  1.0000
  C   C325      1.0  0.56584  0.40256  0.80485  1.0000
  H   H548      1.0  0.75665  0.64884  0.90790  1.0000
  H   H549      1.0  0.95878  0.38064  0.53290  1.0000
  H   H550      1.0  0.57302  0.38481  0.82828  1.0000
  C   C326      1.0  0.70930  0.51716  0.62446  1.0000
  C   C327      1.0  0.73456  0.54655  0.62642  1.0000
  C   C328      1.0  0.76164  0.47454  0.62201  1.0000
  C   C329      1.0  0.72280  0.48115  0.62191  1.0000
  H   H551      1.0  0.77208  0.44666  0.62042  1.0000
  H   H552      1.0  0.70343  0.45837  0.62016  1.0000
  Fe  Fe47      1.0  0.86959  0.54565  0.61134  1.0000
  S   S94       1.0  0.87333  0.56598  0.55142  1.0000
  S   S95       1.0  0.83540  0.49528  0.62406  1.0000
  Fe  Fe48      1.0  0.92349  0.60257  0.64137  1.0000
  S   S96       1.0  0.93251  0.62576  0.58315  1.0000
  S   S97       1.0  0.94798  0.63542  0.68990  1.0000
  Fe  Fe49      1.0  0.86941  0.62256  0.57768  1.0000
  Fe  Fe50      1.0  0.93582  0.56683  0.56288  1.0000
  H   H553      1.0  0.72812  0.39692  0.97004  1.0000
  S   S98       1.0  0.86080  0.60153  0.63668  1.0000
  S   S99       1.0  0.93188  0.54410  0.62189  1.0000
  H   H554      1.0  0.68323  0.51116  0.84122  1.0000
  Fe  Fe51      1.0  0.90462  0.62380  0.90488  1.0000
  S   S100      1.0  0.91390  0.60857  0.96583  1.0000
  S   S101      1.0  0.92488  0.58445  0.85980  1.0000
  Fe  Fe52      1.0  0.85224  0.62044  0.97305  1.0000
  H   H555      1.0  0.88383  0.48393  0.55734  1.0000
  H   H556      1.0  0.67623  0.39181  0.76758  1.0000
  S   S102      1.0  0.84250  0.63218  0.91174  1.0000
  H   H557      1.0  0.72903  0.38788  0.90194  1.0000
  N   N23       1.0  0.88529  0.42563  0.54570  1.0000
  C   C330      1.0  0.73747  0.36942  0.95980  1.0000
  H   H558      1.0  0.60055  0.56965  0.59439  1.0000
  C   C331      1.0  0.93870  0.62155  0.73681  1.0000
  C   C332      1.0  0.94480  0.64648  0.76661  1.0000
  C   C333      1.0  0.93844  0.63599  0.80440  1.0000
  C   C334      1.0  0.92751  0.59996  0.81263  1.0000
  C   C335      1.0  0.92150  0.57502  0.78284  1.0000
  C   C336      1.0  0.92634  0.58598  0.74495  1.0000
  C   C337      1.0  0.94429  0.39825  0.51183  1.0000
  H   H559      1.0  0.75637  0.53505  0.73957  1.0000
  H   H560      1.0  0.91335  0.54704  0.78911  1.0000
  H   H561      1.0  0.92181  0.56654  0.72215  1.0000
  C   C338      1.0  0.73579  0.65531  0.96516  1.0000
  N   N24       1.0  0.76490  0.35208  0.98710  1.0000
  C   C339      1.0  0.77337  0.53999  0.62555  1.0000
  C   C340      1.0  0.78696  0.50398  0.62374  1.0000
  H   H562      1.0  0.72421  0.57443  0.62839  1.0000
  N   N25       1.0  0.67129  0.48619  0.74817  1.0000
  C   C341      1.0  0.63871  0.48654  0.72079  1.0000
  C   C342      1.0  0.68694  0.44764  0.74799  1.0000
  C   C343      1.0  0.70055  0.51222  0.73264  1.0000
  C   C344      1.0  0.65740  0.49839  0.78668  1.0000
  C   C345      1.0  0.61677  0.52303  0.71736  1.0000
  C   C346      1.0  0.65998  0.41734  0.76229  1.0000
  C   C347      1.0  0.73714  0.51650  0.75546  1.0000
  C   C348      1.0  0.68130  0.48737  0.82150  1.0000
  H   H563      1.0  0.64822  0.47853  0.69182  1.0000
  H   H564      1.0  0.61737  0.46584  0.72882  1.0000
  H   H565      1.0  0.71286  0.44530  0.76503  1.0000
  H   H566      1.0  0.69595  0.43978  0.71873  1.0000
  H   H567      1.0  0.70881  0.50384  0.70336  1.0000
  H   H568      1.0  0.68916  0.54050  0.73012  1.0000
  H   H569      1.0  0.65403  0.52882  0.78739  1.0000
  H   H570      1.0  0.62870  0.48705  0.79199  1.0000
  H   H571      1.0  0.63393  0.54540  0.70498  1.0000
  H   H572      1.0  0.59287  0.51872  0.69762  1.0000
  H   H573      1.0  0.60442  0.53191  0.74478  1.0000
  H   H574      1.0  0.64569  0.42471  0.78917  1.0000
  H   H575      1.0  0.63849  0.41035  0.74070  1.0000
  H   H576      1.0  0.99452  0.48603  0.57079  1.0000
  H   H577      1.0  0.93957  0.41611  0.62867  1.0000
  S   S103      1.0  0.55798  0.40126  0.58211  1.0000
  Fe  Fe53      1.0  0.62102  0.40134  0.57438  1.0000
  H   H578      1.0  0.82983  0.44714  0.55913  1.0000
  H   H579      1.0  0.89448  0.38546  0.59019  1.0000
  H   H580      1.0  0.64241  0.60654  0.63782  1.0000
  C   C349      1.0  0.65781  0.60068  0.55898  1.0000
  C   C350      1.0  0.90132  0.39803  0.51806  1.0000
  C   C351      1.0  0.61852  0.65717  0.56331  1.0000
  Fe  Fe54      1.0  0.92496  0.66907  0.97557  1.0000
  H   H581      1.0  0.62009  0.54877  0.51544  1.0000
  H   H582      1.0  0.82799  0.38311  0.58624  1.0000
  H   H583      1.0  0.66551  0.36709  0.69460  1.0000
  C   C352      1.0  0.66998  0.67428  0.97546  1.0000
  H   H584      1.0  0.99573  0.65680  0.94164  1.0000
  H   H585      1.0  0.67354  0.60996  0.58445  1.0000
  H   H586      1.0  0.59610  0.59936  0.65539  1.0000
  H   H587      1.0  0.73195  0.52983  0.78328  1.0000
  H   H588      1.0  0.93391  0.45919  0.60561  1.0000
  H   H589      1.0  0.99793  0.61214  0.98564  1.0000
  C   C353      1.0  0.73618  0.51178  0.96735  1.0000
  Fe  Fe55      1.0  0.63544  0.35881  0.92301  1.0000
  H   H590      1.0  0.71408  0.36386  0.59560  1.0000
  S   S104      1.0  0.57299  0.36356  0.91463  1.0000
  H   H591      1.0  0.99170  0.61419  0.89423  1.0000
  C   C354      1.0  0.76545  0.53851  0.96899  1.0000
  C   C355      1.0  0.54955  0.46258  0.78068  1.0000
  C   C356      1.0  0.69200  0.61241  0.99806  1.0000
  H   H592      1.0  0.89438  0.36958  0.52719  1.0000
  C   C357      1.0  0.89554  0.41577  0.58600  1.0000
  H   H593      1.0  0.54395  0.49143  0.78556  1.0000
  C   C358      1.0  0.73072  0.64199  0.92408  1.0000
  H   H594      1.0  0.72786  0.61167  0.92281  1.0000
  H   H595      1.0  0.72586  0.50222  0.94026  1.0000
  H   H596      1.0  0.77743  0.54947  0.94317  1.0000
  H   H597      1.0  0.53928  0.46566  0.72035  1.0000
  H   H598      1.0  0.79362  0.62442  0.70459  1.0000
  H   H599      1.0  0.57569  0.54870  0.54106  1.0000
  H   H600      1.0  0.56695  0.61557  0.52676  1.0000
  H   H601      1.0  0.94358  0.65523  0.82722  1.0000
  N   N26       1.0  0.70221  0.65215  0.99123  1.0000
  H   H602      1.0  0.85673  0.64763  0.70996  1.0000
  S   S105      1.0  0.63397  0.37102  0.98531  1.0000
  S   S106      1.0  0.51726  0.48338  0.51788  1.0000
  H   H603      1.0  0.65807  0.57025  0.56164  1.0000
  C   C359      1.0  0.79835  0.65262  0.69354  1.0000
  C   C360      1.0  0.89736  0.46449  0.53706  1.0000
  H   H604      1.0  0.77611  0.39432  0.91765  1.0000
  H   H605      1.0  0.66742  0.60483  0.93969  1.0000
  H   H606      1.0  0.56766  0.60632  0.59270  1.0000
  C   C361      1.0  0.59235  0.56235  0.51850  1.0000
  C   C362      1.0  0.93404  0.42903  0.60074  1.0000
  C   C363      1.0  0.66589  0.59372  0.96872  1.0000
  H   H607      1.0  0.80072  0.64998  0.66237  1.0000
  C   C364      1.0  0.61251  0.61355  0.63292  1.0000
  H   H608      1.0  0.70468  0.58928  0.52114  1.0000
  C   C365      1.0  0.82371  0.38841  0.55560  1.0000
  H   H609      1.0  0.76000  0.63925  0.97613  1.0000
  H   H610      1.0  0.79284  0.39098  0.55143  1.0000
  C   C366      1.0  0.54695  0.44807  0.74376  1.0000
  H   H611      1.0  0.69782  0.63751  0.53045  1.0000
  C   C367      1.0  0.84290  0.42437  0.54249  1.0000
  H   H612      1.0  0.71781  0.59545  0.00032  1.0000
  C   C368      1.0  0.59837  0.60014  0.59382  1.0000
  N   N27       1.0  0.61830  0.61574  0.55952  1.0000
  H   H613      1.0  0.75887  0.34894  0.90455  1.0000
  H   H614      1.0  0.65995  0.66347  0.94795  1.0000
  H   H615      1.0  0.77305  0.66890  0.70111  1.0000
  H   H616      1.0  0.83295  0.36426  0.53880  1.0000
  H   H617      1.0  0.95689  0.42595  0.51190  1.0000
  H   H618      1.0  0.63629  0.59391  0.97884  1.0000
  H   H619      1.0  0.95761  0.42162  0.58180  1.0000
  C   C369      1.0  0.00424  0.50458  0.51379  1.0000
  C   C370      1.0  0.59605  0.60418  0.52509  1.0000
  H   H620      1.0  0.99492  0.57612  0.95019  1.0000
  C   C371      1.0  0.00825  0.48012  0.54408  1.0000
  H   H621      1.0  0.70733  0.65585  0.90924  1.0000
  H   H622      1.0  0.81289  0.38290  0.96677  1.0000
  H   H623      1.0  0.60820  0.64347  0.63711  1.0000
  H   H624      1.0  0.83378  0.42870  0.51269  1.0000
  C   C372      1.0  0.72023  0.49786  0.00100  1.0000
  C   C373      1.0  0.83391  0.66860  0.71226  1.0000
  H   H625      1.0  0.64125  0.66631  0.58290  1.0000
  H   H626      1.0  0.78581  0.40717  0.99961  1.0000
  C   C374      1.0  0.79656  0.37900  0.99339  1.0000
  H   H627      1.0  0.82667  0.67024  0.74286  1.0000
  H   H628      1.0  0.59170  0.66696  0.57634  1.0000
  S   S107      1.0  0.68299  0.46508  0.00304  1.0000
  H   H629      1.0  0.64801  0.67278  0.51001  1.0000
  H   H630      1.0  0.00955  0.60359  0.82961  1.0000
  H   H631      1.0  0.95486  0.67388  0.76049  1.0000
  C   C375      1.0  0.67522  0.90960  0.03858  1.0000
  H   H632      1.0  0.95361  0.97738  0.36192  1.0000
  C   C376      1.0  0.70978  0.88697  0.05098  1.0000
  C   C377      1.0  0.96996  0.76016  0.12055  1.0000
  H   H633      1.0  0.79643  0.90018  0.08006  1.0000
  H   H634      1.0  0.53273  0.93195  0.45670  1.0000
  H   H635      1.0  0.96854  0.74440  0.14751  1.0000
  H   H636      1.0  0.75590  0.93995  0.04591  1.0000
  H   H637      1.0  0.98498  0.87090  0.05969  1.0000
  H   H638      1.0  0.64169  0.00036  0.50213  1.0000
  H   H639      1.0  0.61321  0.97287  0.47236  1.0000
  H   H640      1.0  0.90800  0.76304  0.11370  1.0000
  C   C378      1.0  0.52996  0.94812  0.48235  1.0000
  C   C379      1.0  0.77141  0.86019  0.03992  1.0000
  S   S108      1.0  0.99643  0.96583  0.49050  1.0000
  C   C380      1.0  0.95147  0.81372  0.15792  1.0000
  H   H641      1.0  0.95646  0.97343  0.41295  1.0000
  C   C381      1.0  0.95746  0.85293  0.17354  1.0000
  C   C382      1.0  0.97287  0.97685  0.38633  1.0000
  C   C383      1.0  0.62772  0.99985  0.47432  1.0000
  H   H642      1.0  0.92936  0.72139  0.09751  1.0000
  H   H643      1.0  0.98712  0.86185  0.17431  1.0000
  H   H644      1.0  0.98536  0.87832  0.10963  1.0000
  H   H645      1.0  0.69959  0.85853  0.05703  1.0000
  H   H646      1.0  0.65501  0.91136  0.06259  1.0000
  H   H647      1.0  0.76961  0.76059  0.02628  1.0000
  H   H648      1.0  0.94284  0.82555  0.08544  1.0000
  H   H649      1.0  0.75920  0.83204  0.04266  1.0000
  H   H650      1.0  0.94080  0.87323  0.15722  1.0000
  C   C384      1.0  0.78721  0.87111  0.07905  1.0000
  H   H651      1.0  0.71836  0.89878  0.07874  1.0000
  H   H652      1.0  0.92218  0.81315  0.14700  1.0000
  H   H653      1.0  0.99596  0.98593  0.31283  1.0000
  C   C385      1.0  0.93307  0.75170  0.09913  1.0000
  H   H654      1.0  0.98388  0.80427  0.06698  1.0000
  H   H655      1.0  0.76641  0.86589  0.10193  1.0000
  H   H656      1.0  0.95040  0.79465  0.18255  1.0000
  H   H657      1.0  0.68249  0.93814  0.03048  1.0000
  H   H658      1.0  0.99296  0.74714  0.10385  1.0000
  C   C386      1.0  0.99305  0.85848  0.08723  1.0000
  H   H659      1.0  0.93408  0.76145  0.06935  1.0000
  C   C387      1.0  0.97324  0.82096  0.09121  1.0000
  H   H660      1.0  0.81210  0.85376  0.08536  1.0000
  N   N28       1.0  0.97849  0.80029  0.12793  1.0000
  H   H661      1.0  0.94815  0.85399  0.20362  1.0000
  H   H662      1.0  0.63991  0.69814  0.02418  1.0000
  S   S109      1.0  0.69137  0.77519  0.01221  1.0000
  C   C388      1.0  0.75703  0.92479  0.01844  1.0000
  N   N29       1.0  0.74260  0.88607  0.02360  1.0000
  H   H663      1.0  0.71782  0.69948  0.02530  1.0000
  H   H664      1.0  0.79591  0.85639  0.02097  1.0000
  H   H665      1.0  0.52451  0.67876  0.15680  1.0000
  H   H666      1.0  0.81650  0.93950  0.02620  1.0000
  H   H667      1.0  0.51847  0.73592  0.10752  1.0000
  S   S110      1.0  0.97332  0.68625  0.01513  1.0000
  H   H668      1.0  0.64909  0.99936  0.45132  1.0000
  H   H669      1.0  0.52901  0.69038  0.09354  1.0000
  C   C389      1.0  0.00130  0.72695  0.01566  1.0000
  H   H670      1.0  0.98948  0.95119  0.38341  1.0000
  H   H671      1.0  0.65989  0.89606  0.01510  1.0000
  Fe  Fe56      1.0  0.66316  0.81084  0.59271  1.0000
  S   S111      1.0  0.67279  0.83938  0.64846  1.0000
  S   S112      1.0  0.68006  0.74984  0.58906  1.0000
  Fe  Fe57      1.0  0.61778  0.87750  0.56117  1.0000
  S   S113      1.0  0.62527  0.90989  0.61453  1.0000
  N   N30       1.0  0.69855  0.87545  0.80252  1.0000
  Fe  Fe58      1.0  0.68452  0.88943  0.61347  1.0000
  S   S114      1.0  0.72955  0.92831  0.63347  1.0000
  Fe  Fe59      1.0  0.61278  0.85731  0.64486  1.0000
  S   S115      1.0  0.57325  0.86269  0.69455  1.0000
  S   S116      1.0  0.67911  0.86032  0.55730  1.0000
  S   S117      1.0  0.60114  0.82549  0.59167  1.0000
  H   H672      1.0  0.74255  0.85116  0.93039  1.0000
  Fe  Fe60      1.0  0.61176  0.80239  0.89864  1.0000
  S   S118      1.0  0.56683  0.84248  0.91630  1.0000
  S   S119      1.0  0.62554  0.77800  0.84137  1.0000
  H   H673      1.0  0.83138  0.76212  0.70360  1.0000
  Fe  Fe61      1.0  0.85891  0.69004  0.92623  1.0000
  Fe  Fe62      1.0  0.56013  0.80548  0.96767  1.0000
  Fe  Fe63      1.0  0.61353  0.87138  0.94834  1.0000
  C   C390      1.0  0.79089  0.73328  0.56154  1.0000
  S   S120      1.0  0.60220  0.76386  0.94743  1.0000
  S   S121      1.0  0.65818  0.83366  0.92702  1.0000
  H   H674      1.0  0.90218  0.88657  0.57444  1.0000
  N   N31       1.0  0.84454  0.95164  0.58363  1.0000
  H   H675      1.0  0.81101  0.96293  0.63343  1.0000
  H   H676      1.0  0.53488  0.71488  0.98321  1.0000
  H   H677      1.0  0.53260  0.87804  0.57306  1.0000
  C   C391      1.0  0.73275  0.96226  0.92050  1.0000
  C   C392      1.0  0.69891  0.94235  0.92450  1.0000
  C   C393      1.0  0.62272  0.67989  0.52666  1.0000
  H   H678      1.0  0.51375  0.92069  0.66799  1.0000
  H   H679      1.0  0.75347  0.83087  0.84282  1.0000
  H   H680      1.0  0.90087  0.73175  0.77709  1.0000
  H   H681      1.0  0.76919  0.89009  0.94431  1.0000
  C   C394      1.0  0.78846  0.74832  0.93233  1.0000
  Fe  Fe64      1.0  0.64452  0.79880  0.97738  1.0000
  H   H682      1.0  0.86130  0.99073  0.67327  1.0000
  H   H683      1.0  0.84891  0.93354  0.64241  1.0000
  H   H684      1.0  0.78903  0.93100  0.56999  1.0000
  H   H685      1.0  0.56394  0.95324  0.57205  1.0000
  C   C395      1.0  0.60815  0.79995  0.80068  1.0000
  C   C396      1.0  0.62083  0.78842  0.76491  1.0000
  C   C397      1.0  0.61011  0.80746  0.73212  1.0000
  C   C398      1.0  0.58593  0.83760  0.73496  1.0000
  C   C399      1.0  0.57239  0.84854  0.77060  1.0000
  C   C400      1.0  0.58376  0.82997  0.80348  1.0000
  H   H686      1.0  0.63959  0.76513  0.76262  1.0000
  H   H687      1.0  0.62036  0.79864  0.70467  1.0000
  H   H688      1.0  0.72572  0.90908  0.73363  1.0000
  H   H689      1.0  0.57375  0.83894  0.83093  1.0000
  C   C401      1.0  0.72562  0.73016  0.58262  1.0000
  C   C402      1.0  0.72812  0.81679  0.83176  1.0000
  H   H690      1.0  0.80413  0.89247  0.62468  1.0000
  C   C403      1.0  0.99384  0.75703  0.99223  1.0000
  N   N32       1.0  0.84763  0.70519  0.69763  1.0000
  C   C404      1.0  0.75602  0.75055  0.56872  1.0000
  C   C405      1.0  0.86092  0.70048  0.65724  1.0000
  H   H691      1.0  0.64688  0.00748  0.96925  1.0000
  H   H692      1.0  0.80500  0.99646  0.57670  1.0000
  C   C406      1.0  0.79464  0.75062  0.97144  1.0000
  C   C407      1.0  0.72762  0.97000  0.60867  1.0000
  H   H693      1.0  0.70709  0.81335  0.85478  1.0000
  H   H694      1.0  0.68759  0.81874  0.78689  1.0000
  C   C408      1.0  0.71289  0.97115  0.57197  1.0000
  H   H695      1.0  0.73307  0.83435  0.77406  1.0000
  H   H696      1.0  0.70133  0.94655  0.55924  1.0000
  H   H697      1.0  0.70647  0.88859  0.97452  1.0000
  C   C409      1.0  0.83185  0.98646  0.56424  1.0000
  H   H698      1.0  0.97070  0.75574  0.97242  1.0000
  H   H699      1.0  0.68431  0.89936  0.70723  1.0000
  H   H700      1.0  0.80261  0.73098  0.72943  1.0000
  H   H701      1.0  0.79459  0.76044  0.65075  1.0000
  H   H702      1.0  0.79801  0.95128  0.98131  1.0000
  C   C410      1.0  0.73102  0.69252  0.59030  1.0000
  C   C411      1.0  0.72761  0.94052  0.81132  1.0000
  H   H703      1.0  0.89791  0.90796  0.62061  1.0000
  H   H704      1.0  0.73816  0.94044  0.99920  1.0000
  H   H705      1.0  0.01016  0.81215  0.97637  1.0000
  H   H706      1.0  0.55356  0.87179  0.77287  1.0000
  H   H707      1.0  0.90232  0.96942  0.57411  1.0000
  S   S122      1.0  0.58281  0.90056  0.51204  1.0000
  H   H708      1.0  0.00599  0.71846  0.91801  1.0000
  H   H709      1.0  0.75234  0.77938  0.56239  1.0000
  C   C412      1.0  0.87847  0.73481  0.63872  1.0000
  H   H710      1.0  0.93622  0.91919  0.59137  1.0000
  H   H711      1.0  0.71392  0.84396  0.99183  1.0000
  H   H712      1.0  0.85092  0.73471  0.77231  1.0000
  C   C413      1.0  0.81862  0.92092  0.57139  1.0000
  H   H713      1.0  0.76033  0.74444  0.68311  1.0000
  H   H714      1.0  0.85105  0.97531  0.50544  1.0000
  C   C414      1.0  0.73295  0.89853  0.81005  1.0000
  H   H715      1.0  0.70786  0.67645  0.60123  1.0000
  H   H716      1.0  0.72151  0.94994  0.84064  1.0000
  H   H717      1.0  0.62554  0.70938  0.53448  1.0000
  H   H718      1.0  0.82251  0.74636  0.98265  1.0000
  H   H719      1.0  0.73691  0.78861  0.82342  1.0000
  H   H720      1.0  0.89223  0.74354  0.71207  1.0000
  C   C415      1.0  0.78800  0.73742  0.67028  1.0000
  H   H721      1.0  0.66416  0.91388  0.77002  1.0000
  H   H722      1.0  0.65428  0.85107  0.83646  1.0000
  S   S123      1.0  0.60252  0.83832  0.00138  1.0000
  H   H723      1.0  0.69697  0.91460  0.91394  1.0000
  C   C416      1.0  0.76480  0.75903  0.99605  1.0000
  H   H724      1.0  0.82578  0.91146  0.54219  1.0000
  C   C417      1.0  0.70223  0.88924  0.73077  1.0000
  C   C418      1.0  0.73595  0.99850  0.93409  1.0000
  H   H725      1.0  0.77961  0.84437  0.96293  1.0000
  C   C419      1.0  0.79770  0.92943  0.00331  1.0000
  H   H726      1.0  0.62207  0.90661  0.81761  1.0000
  C   C420      1.0  0.71136  0.83621  0.79672  1.0000
  C   C421      1.0  0.67078  0.99473  0.95546  1.0000
  H   H727      1.0  0.52621  0.84575  0.63113  1.0000
  H   H728      1.0  0.75675  0.94946  0.90697  1.0000
  C   C422      1.0  0.67220  0.87607  0.83618  1.0000
  H   H729      1.0  0.68838  0.87511  0.86303  1.0000
  H   H730      1.0  0.80146  0.96606  0.51372  1.0000
  H   H731      1.0  0.86098  0.75968  0.64251  1.0000
  H   H732      1.0  0.71314  0.86204  0.72185  1.0000
  C   C423      1.0  0.87591  0.71830  0.76419  1.0000
  C   C424      1.0  0.67805  0.88682  0.76703  1.0000
  H   H733      1.0  0.74560  0.89115  0.83782  1.0000
  H   H734      1.0  0.84449  0.87306  0.60039  1.0000
  H   H735      1.0  0.87422  0.69055  0.77709  1.0000
  C   C425      1.0  0.54746  0.95986  0.54731  1.0000
  C   C426      1.0  0.72880  0.76512  0.98152  1.0000
  H   H736      1.0  0.62969  0.90658  0.86735  1.0000
  C   C427      1.0  0.81787  0.73452  0.70206  1.0000
  H   H737      1.0  0.88136  0.72986  0.60773  1.0000
  C   C428      1.0  0.75720  0.86396  0.95486  1.0000
  S   S124      1.0  0.86387  0.67957  0.98868  1.0000
  H   H738      1.0  0.78348  0.71223  0.65354  1.0000
  H   H739      1.0  0.75588  0.89235  0.78939  1.0000
  C   C429      1.0  0.88159  0.71608  0.72079  1.0000
  C   C430      1.0  0.82552  0.98416  0.52100  1.0000
  H   H740      1.0  0.65819  0.93548  0.83856  1.0000
  C   C431      1.0  0.72269  0.76281  0.94243  1.0000
  H   H741      1.0  0.90727  0.73991  0.64960  1.0000
  C   C432      1.0  0.64437  0.90838  0.83954  1.0000
  H   H742      1.0  0.79819  0.86585  0.58291  1.0000
  S   S125      1.0  0.62496  0.93359  0.94993  1.0000
  H   H743      1.0  0.70562  0.95083  0.79209  1.0000
  H   H744      1.0  0.69471  0.76585  0.93108  1.0000
  C   C433      1.0  0.90570  0.91251  0.59071  1.0000
  C   C434      1.0  0.79618  0.69559  0.56873  1.0000
  C   C435      1.0  0.75255  0.75482  0.91784  1.0000
  H   H745      1.0  0.81385  0.74915  0.54977  1.0000
  H   H746      1.0  0.65447  0.86750  0.76123  1.0000
  C   C436      1.0  0.66786  0.95815  0.94270  1.0000
  H   H747      1.0  0.67938  0.70275  0.96893  1.0000
  S   S126      1.0  0.82489  0.73595  0.90141  1.0000
  H   H748      1.0  0.74755  0.75240  0.88770  1.0000
  C   C437      1.0  0.55144  0.93872  0.51439  1.0000
  H   H749      1.0  0.70470  0.00423  0.52211  1.0000
  C   C438      1.0  0.88454  0.94433  0.57143  1.0000
  C   C439      1.0  0.81692  0.88639  0.59663  1.0000
  H   H750      1.0  0.88562  0.93800  0.54060  1.0000
  C   C440      1.0  0.72827  0.87053  0.98675  1.0000
  H   H751      1.0  0.83824  0.69097  0.63829  1.0000
  H   H752      1.0  0.52033  0.95018  0.62875  1.0000
  S   S127      1.0  0.92048  0.68302  0.91356  1.0000
  H   H753      1.0  0.74554  0.68436  0.96380  1.0000
  C   C441      1.0  0.84100  0.95804  0.62577  1.0000
  H   H754      1.0  0.90531  0.69679  0.71552  1.0000
  H   H755      1.0  0.75398  0.95390  0.80156  1.0000
  C   C442      1.0  0.71448  0.00386  0.55106  1.0000
  H   H756      1.0  0.54072  0.90556  0.62754  1.0000
  H   H757      1.0  0.88250  0.67832  0.65544  1.0000
  C   C443      1.0  0.51550  0.92101  0.63655  1.0000
  C   C444      1.0  0.52281  0.99023  0.54800  1.0000
  C   C445      1.0  0.86403  0.99045  0.64189  1.0000
  H   H758      1.0  0.59730  0.67766  0.50859  1.0000
  C   C446      1.0  0.63512  0.67753  0.00141  1.0000
  H   H759      1.0  0.52237  0.84105  0.51645  1.0000
  H   H760      1.0  0.61085  0.68751  0.98454  1.0000
  H   H761      1.0  0.89440  0.98808  0.63517  1.0000
  H   H762      1.0  0.00411  0.68714  0.87934  1.0000
  H   H763      1.0  0.92117  0.98562  0.51020  1.0000
  H   H764      1.0  0.81042  0.90488  0.99016  1.0000
  C   C447      1.0  0.74281  0.00188  0.62486  1.0000
  H   H765      1.0  0.75409  0.00118  0.65330  1.0000
  H   H766      1.0  0.51788  0.81299  0.55743  1.0000
  H   H767      1.0  0.52049  0.00666  0.57350  1.0000
  H   H768      1.0  0.66844  0.00347  0.83482  1.0000
  C   C448      1.0  0.76611  0.67537  0.58370  1.0000
  S   S128      1.0  0.84036  0.67519  0.55712  1.0000
