data_image0
_chemical_formula_structural       FeS2FeS2FeSFeS3HFeS2H5CFeS2H10SCFeS2CH3CHNCHCH4NH3CH3CH6C3H2CHC2HC6H4C6H2NC2HCHCH3C4HCH2NCH5CHC3HCH4CH2SCSFeH2SH3CH2CH3CNC2HCHCH3CSHC2H2C3HCH9CH3CH4CH2C2HNH3CH2CH2CH2CSH2C2H3FeCH2C2NC3H2CFeS2FeS2FeS2FeSFeS3FeS2FeS2H4CH2CHC2H3C3HC6H7CH2CH2C6H5CHFeHCHC2H5C2NCH3SCH3C2H3CH4FeCH2CH2C3H4CHC2H4CH4SH3CHSC2H3NH2C2H5CH3C2HCH5C2HCH3NFeCH3CNSHC2HCSFeCHC2HC2SHCHFeS2FeS2FeSFeS3FeS2CH2CSH4C3FeHSFeS2CH5CHCHC2H2NCHCHS2CFeH4C2H2C6H4C6H4C3HCH4CH3CH6CH2CHCH8C2HC2HCH5C2H5SH2C3H3NCHC3FeC5HCH13C2NCH4NH4CH3C3H2CHSCHCH11SHCH4SHCHFeCH2CSC2FeC2HFeS2CFeS2FeS2FeSFeS3FeS2CH4NFeS2H3C2H3CHC2H3C6H5C2H4C2H4NC6H4NHC5HNH2C2HCH3CNH3SCHCH2NH2SH4CH2C2HFeCH6C2H5CHCHCHCHCH5CNC8H20SCH2CH2CHC3H4SCH3C3H4C2H6SH6C2H5CHCHC2HCHCFeH2CHSCHC2H2CH3CH4FeSHFeS2FeSFeS3FeS2FeS2FeSFeS3FeS2H5FeS2CSH3C2H4CSHC2H3C6H4CH3C6H4C2H2C7H5NC6H17CH3CFeCHNCH2C2H2CSH2CNHC2H9C2HCH4NC8H19C2SCH2C2NCH2CHCH7C2HC2H6SCH3NHC2H2C3HSHCFe2C3H3SH2CH2Fe2S2FeS2FeS2FeS2FeSFeCS2FeS2FeS2FeSFeS3CHCH2C2H2C6H4C3H3C6H4C6H4C2HCHNC8H21CH3CHC2H9CH5CNH2C2H3CH2CH8NCH3C2H2NC2H3NHCH3CHCH7C2H2CHSHC2H5CH3CHCH4CH2CH2CH2CSCHCHC2H4C3H3CHC2H2CHC2H8SHSHCH2CH3CH2NHC2FeS2FeSHFeSFeS3FeS2FeS2FeSFeS3HS2FeS2HCHNH2C6H4CSC5H2C6H4C6H4SH5NC8H21CHCH4CH3CHCH2C2H2C2H2CH5CH2C2H3C2NH4C2HCH11C2H4NH4CH4SH3CH3CH2NCHCFeH2CH3SC2HC4H4SH3C2H3C5H3FeS2HC2HCHFeS2HCH3FeS2FeS2FeSFeS3FeS2FeS2FeSFeS3HCH3FeH3C6H6CH3C6H4C6H5SHCH2C2H3C3HCSH3CHCH4NCFeH2NC5HC2H3CH9C3HNCHC3H9CHCH3CHCHCHCNC2HCH2C2H2CH3C2NH2SH4SH5FeCH3FeH2C2HC2H2CH8CHFeS2FeS2FeSFeS3FeS2FeS2H2C4FeSH3CH8C3H6FeHCH2CHC6H4C6H5C2H2CNHCNH4CH2CHCH2CHCH3CH2CHSH2C2H4CH4CN2HCH4CH3CH4CH2NC7HC2H5C2H7C2H3CH2CH3CH5C3HSHC2H4CHCH5FeC2HSHSH4C2HC2SH7FeS2CSCH3FeS2FeS2FeSFeS3FeS2FeSH8CH2SH6C3HC6H4C2H9C6H4CH3CHFeHNFeHCH3CHNC8H22CH7CHCHCH6CHCH5C3HC2HCHCHC2H2C2NHFeHC2HC2H3SHSC2HCNHCHCH2C3H2CHCHCH2SHC2H3CHC2FeH3SC2SHC2H6SHCH2FeS2FeS2FeSFeS3FeS2FeS2FeS2C2HCSH3SCH8C7H4C6H4C2H2NC2H2CH5C2HNH4CH2CSCH2CHNH2CH2C6HCH7CH3C2H4CH4CH8CH4NC8H25CH5CH6CH5CH2NC9HFeH2CHC5H2CHFeH2SH2CSCHCFeS2CH3C2FeS2FeS2FeSFeS3FeS2H3CH2FeSCHCH4C2H8SHC6H4C2NH2C3H2C3H3C6H4CSH2C2HCNC8H20SHCH3C2HCH2C2HCH2SHNCHCHCHCH5SCH2CFeH6C3HNHCHC2HCH3C3H2CH2CH5CHCH2CH2CHNCHNH5C2H3CH5C2FeHCH2CSH2CH2FeHFeC2SC
_chemical_formula_sum              "Fe128 S256 H1536 C896 N64"
_cell_length_a       60.5552
_cell_length_b       60.3187
_cell_length_c       44.6781
_cell_angle_alpha    88.9896
_cell_angle_beta     88.6887
_cell_angle_gamma    89.2091

_space_group_name_H-M_alt    "P 1"
_space_group_IT_number       1

loop_
  _space_group_symop_operation_xyz
  'x, y, z'

loop_
  _atom_site_type_symbol
  _atom_site_label
  _atom_site_symmetry_multiplicity
  _atom_site_fract_x
  _atom_site_fract_y
  _atom_site_fract_z
  _atom_site_occupancy
  Fe  Fe1       1.0  0.09472  0.38854  0.22438  1.0000
  S   S1        1.0  0.08302  0.38058  0.27172  1.0000
  S   S2        1.0  0.08330  0.36399  0.18946  1.0000
  Fe  Fe2       1.0  0.11316  0.43340  0.24370  1.0000
  S   S3        1.0  0.10277  0.42844  0.29175  1.0000
  S   S4        1.0  0.13045  0.46491  0.22846  1.0000
  Fe  Fe3       1.0  0.11576  0.39377  0.28627  1.0000
  S   S5        1.0  0.13820  0.37600  0.31964  1.0000
  Fe  Fe4       1.0  0.07124  0.41599  0.27296  1.0000
  S   S6        1.0  0.03843  0.43078  0.28794  1.0000
  S   S7        1.0  0.12833  0.39924  0.23880  1.0000
  S   S8        1.0  0.08076  0.42331  0.22510  1.0000
  H   H1        1.0  0.06866  0.33312  0.14638  1.0000
  Fe  Fe5       1.0  0.20450  0.40990  0.46850  1.0000
  S   S9        1.0  0.24165  0.41091  0.47144  1.0000
  S   S10       1.0  0.18317  0.42204  0.42969  1.0000
  H   H2        1.0  0.12290  0.34891  0.44903  1.0000
  H   H3        1.0  0.18936  0.16522  0.02132  1.0000
  H   H4        1.0  0.18917  0.28399  0.05872  1.0000
  H   H5        1.0  0.12075  0.36880  0.41876  1.0000
  H   H6        1.0  0.23875  0.01828  0.12127  1.0000
  C   C1        1.0  0.21736  0.06792  0.06810  1.0000
  Fe  Fe6       1.0  0.27833  0.12030  0.04174  1.0000
  S   S11       1.0  0.24217  0.12001  0.03078  1.0000
  S   S12       1.0  0.28907  0.10870  0.08824  1.0000
  H   H7        1.0  0.09516  0.37765  0.46459  1.0000
  H   H8        1.0  0.04191  0.38733  0.20231  1.0000
  H   H9        1.0  0.29381  0.31561  0.41642  1.0000
  H   H10       1.0  0.00498  0.50192  0.28454  1.0000
  H   H11       1.0  0.21972  0.06241  0.14235  1.0000
  H   H12       1.0  0.19930  0.41398  0.25339  1.0000
  H   H13       1.0  0.14169  0.45697  0.29727  1.0000
  H   H14       1.0  0.21113  0.46553  0.23919  1.0000
  H   H15       1.0  0.08352  0.32112  0.09686  1.0000
  H   H16       1.0  0.07333  0.50377  0.21715  1.0000
  S   S13       1.0  0.25725  0.34703  0.49923  1.0000
  C   C2        1.0  0.18696  0.18260  0.01571  1.0000
  Fe  Fe7       1.0  0.10815  0.30841  0.03207  1.0000
  S   S14       1.0  0.12351  0.33356  0.06276  1.0000
  S   S15       1.0  0.09634  0.27550  0.04944  1.0000
  C   C3        1.0  0.33230  0.26652  0.43055  1.0000
  H   H17       1.0  0.25142  0.07825  0.07073  1.0000
  H   H18       1.0  0.19819  0.27819  0.15775  1.0000
  H   H19       1.0  0.15300  0.18359  0.03169  1.0000
  C   C4        1.0  0.18636  0.40748  0.26900  1.0000
  H   H20       1.0  0.15560  0.34644  0.48895  1.0000
  N   N1        1.0  0.33314  0.28321  0.40500  1.0000
  C   C5        1.0  0.31675  0.14172  0.10768  1.0000
  H   H21       1.0  0.33240  0.31051  0.43589  1.0000
  C   C6        1.0  0.12080  0.48998  0.24432  1.0000
  H   H22       1.0  0.27140  0.30133  0.49635  1.0000
  H   H23       1.0  0.07713  0.47463  0.21391  1.0000
  H   H24       1.0  0.01259  0.34949  0.15635  1.0000
  H   H25       1.0  0.13888  0.39634  0.44196  1.0000
  N   N2        1.0  0.12622  0.38505  0.48497  1.0000
  H   H26       1.0  0.21849  0.44061  0.27686  1.0000
  H   H27       1.0  0.32682  0.27429  0.45186  1.0000
  H   H28       1.0  0.06299  0.48196  0.26384  1.0000
  C   C7        1.0  0.24235  0.06232  0.06999  1.0000
  H   H29       1.0  0.20784  0.06681  0.08940  1.0000
  H   H30       1.0  0.21687  0.03560  0.11009  1.0000
  H   H31       1.0  0.00621  0.39262  0.13733  1.0000
  C   C8        1.0  0.02034  0.36479  0.16453  1.0000
  H   H32       1.0  0.03078  0.32992  0.24174  1.0000
  H   H33       1.0  0.26679  0.07211  0.11892  1.0000
  H   H34       1.0  0.04739  0.47903  0.30868  1.0000
  H   H35       1.0  0.30997  0.15225  0.09023  1.0000
  H   H36       1.0  0.25997  0.04828  0.14101  1.0000
  H   H37       1.0  0.16368  0.30032  0.05667  1.0000
  C   C9        1.0  0.13942  0.38124  0.45649  1.0000
  C   C10       1.0  0.13542  0.42682  0.48799  1.0000
  C   C11       1.0  0.03306  0.49064  0.31004  1.0000
  H   H38       1.0  0.19348  0.39509  0.28481  1.0000
  H   H39       1.0  0.22360  0.45093  0.34323  1.0000
  C   C12       1.0  0.01510  0.41395  0.28497  1.0000
  H   H40       1.0  0.02238  0.38963  0.23206  1.0000
  C   C13       1.0  0.31768  0.24614  0.42584  1.0000
  C   C14       1.0  0.01035  0.35231  0.21516  1.0000
  H   H41       1.0  0.04386  0.46643  0.24414  1.0000
  C   C15       1.0  0.14959  0.38839  0.35140  1.0000
  C   C16       1.0  0.16582  0.37678  0.36769  1.0000
  C   C17       1.0  0.17611  0.38660  0.39209  1.0000
  C   C18       1.0  0.17022  0.40817  0.40036  1.0000
  C   C19       1.0  0.15362  0.41954  0.38456  1.0000
  C   C20       1.0  0.14333  0.40974  0.36024  1.0000
  H   H42       1.0  0.17070  0.36021  0.36108  1.0000
  H   H43       1.0  0.18881  0.37764  0.40413  1.0000
  H   H44       1.0  0.14879  0.43615  0.39106  1.0000
  H   H45       1.0  0.13072  0.41877  0.34814  1.0000
  C   C21       1.0  0.09497  0.35587  0.15434  1.0000
  C   C22       1.0  0.11474  0.36459  0.14273  1.0000
  C   C23       1.0  0.12319  0.35766  0.11464  1.0000
  C   C24       1.0  0.11199  0.34202  0.09780  1.0000
  C   C25       1.0  0.09228  0.33323  0.10947  1.0000
  C   C26       1.0  0.08387  0.34010  0.13758  1.0000
  H   H46       1.0  0.12347  0.37672  0.15532  1.0000
  H   H47       1.0  0.13845  0.36455  0.10584  1.0000
  N   N3        1.0  0.18790  0.44130  0.30349  1.0000
  C   C27       1.0  0.19940  0.42697  0.32668  1.0000
  C   C28       1.0  0.10297  0.39136  0.47675  1.0000
  H   H48       1.0  0.19504  0.48387  0.26265  1.0000
  C   C29       1.0  0.21093  0.43926  0.35193  1.0000
  H   H49       1.0  0.14516  0.43818  0.50169  1.0000
  C   C30       1.0  0.23065  0.49203  0.48448  1.0000
  H   H50       1.0  0.18756  0.41538  0.33784  1.0000
  H   H51       1.0  0.21231  0.41616  0.31610  1.0000
  H   H52       1.0  0.07104  0.40245  0.49448  1.0000
  C   C31       1.0  0.27088  0.03543  0.08601  1.0000
  C   C32       1.0  0.13705  0.40325  0.50187  1.0000
  C   C33       1.0  0.15455  0.46912  0.30248  1.0000
  C   C34       1.0  0.33294  0.14991  0.12669  1.0000
  H   H53       1.0  0.04338  0.33720  0.20658  1.0000
  C   C35       1.0  0.23407  0.07290  0.13637  1.0000
  H   H54       1.0  0.27629  0.02351  0.10383  1.0000
  H   H55       1.0  0.16006  0.47776  0.28173  1.0000
  N   N4        1.0  0.15630  0.26998  0.10589  1.0000
  C   C36       1.0  0.00650  0.48190  0.21662  1.0000
  H   H56       1.0  0.17262  0.29289  0.15871  1.0000
  H   H57       1.0  0.04259  0.35663  0.23708  1.0000
  H   H58       1.0  0.13171  0.31097  0.14761  1.0000
  H   H59       1.0  0.03086  0.42534  0.20826  1.0000
  H   H60       1.0  0.17381  0.26297  0.16566  1.0000
  C   C37       1.0  0.17381  0.42621  0.28553  1.0000
  H   H61       1.0  0.29988  0.25067  0.42573  1.0000
  C   C38       1.0  0.01719  0.50321  0.22790  1.0000
  C   C39       1.0  0.02121  0.38207  0.13875  1.0000
  C   C40       1.0  0.13168  0.36224  0.43661  1.0000
  H   H62       1.0  0.15738  0.37895  0.46074  1.0000
  C   C41       1.0  0.02400  0.39012  0.20730  1.0000
  H   H63       1.0  0.29541  0.29066  0.43874  1.0000
  H   H64       1.0  0.16103  0.41828  0.30033  1.0000
  H   H65       1.0  0.11208  0.29078  0.13894  1.0000
  H   H66       1.0  0.14471  0.25038  0.14458  1.0000
  C   C42       1.0  0.23299  0.02885  0.10218  1.0000
  H   H67       1.0  0.14631  0.35415  0.42574  1.0000
  H   H68       1.0  0.02193  0.48405  0.32809  1.0000
  S   S16       1.0  0.28803  0.09633  0.00579  1.0000
  C   C43       1.0  0.05083  0.48332  0.24567  1.0000
  S   S17       1.0  0.03397  0.27197  0.03602  1.0000
  Fe  Fe8       1.0  0.06838  0.28041  0.01738  1.0000
  H   H69       1.0  0.11675  0.22937  0.12302  1.0000
  H   H70       1.0  0.29722  0.05847  0.09824  1.0000
  S   S18       1.0  0.28552  0.15007  0.01221  1.0000
  H   H71       1.0  0.27644  0.29214  0.40940  1.0000
  H   H72       1.0  0.32450  0.07859  0.04104  1.0000
  H   H73       1.0  0.21536  0.08527  0.05984  1.0000
  C   C44       1.0  0.17357  0.45808  0.31983  1.0000
  H   H74       1.0  0.17021  0.27948  0.02988  1.0000
  H   H75       1.0  0.17457  0.39831  0.25534  1.0000
  C   C45       1.0  0.29324  0.29721  0.41573  1.0000
  H   H76       1.0  0.14631  0.48178  0.31681  1.0000
  H   H77       1.0  0.14253  0.42777  0.46498  1.0000
  H   H78       1.0  0.22602  0.02207  0.05460  1.0000
  C   C46       1.0  0.03321  0.34383  0.22541  1.0000
  N   N5        1.0  0.03298  0.50012  0.25329  1.0000
  C   C47       1.0  0.28422  0.33420  0.50108  1.0000
  C   C48       1.0  0.01846  0.41437  0.19840  1.0000
  H   H79       1.0  0.22094  0.47792  0.47849  1.0000
  C   C49       1.0  0.00910  0.27337  0.01577  1.0000
  H   H80       1.0  0.18672  0.28840  0.10769  1.0000
  C   C50       1.0  0.19796  0.46621  0.25690  1.0000
  H   H81       1.0  0.23934  0.08062  0.15741  1.0000
  H   H82       1.0  0.10284  0.40565  0.46061  1.0000
  H   H83       1.0  0.33460  0.14772  0.00390  1.0000
  C   C51       1.0  0.14188  0.29038  0.10990  1.0000
  S   S19       1.0  0.13549  0.22749  0.02028  1.0000
  H   H84       1.0  0.30791  0.28208  0.49852  1.0000
  C   C52       1.0  0.33405  0.11489  0.15377  1.0000
  C   C53       1.0  0.31051  0.28798  0.39296  1.0000
  H   H85       1.0  0.16545  0.45018  0.33984  1.0000
  H   H86       1.0  0.01898  0.41736  0.17394  1.0000
  C   C54       1.0  0.01627  0.39113  0.29102  1.0000
  C   C55       1.0  0.10796  0.48976  0.27068  1.0000
  C   C56       1.0  0.27540  0.01355  0.00893  1.0000
  H   H87       1.0  0.13640  0.28305  0.15933  1.0000
  C   C57       1.0  0.17900  0.27344  0.11810  1.0000
  H   H88       1.0  0.31189  0.09005  0.13838  1.0000
  H   H89       1.0  0.10369  0.47424  0.28143  1.0000
  H   H90       1.0  0.12458  0.23654  0.08554  1.0000
  H   H91       1.0  0.02222  0.37328  0.11710  1.0000
  H   H92       1.0  0.12852  0.29064  0.09319  1.0000
  H   H93       1.0  0.01884  0.46990  0.20757  1.0000
  H   H94       1.0  0.20957  0.05772  0.05086  1.0000
  H   H95       1.0  0.21482  0.46432  0.29825  1.0000
  H   H96       1.0  0.30360  0.27328  0.38189  1.0000
  C   C58       1.0  0.31776  0.10677  0.13493  1.0000
  H   H97       1.0  0.21950  0.42686  0.36644  1.0000
  H   H98       1.0  0.18315  0.45986  0.24610  1.0000
  H   H99       1.0  0.32232  0.23725  0.40509  1.0000
  C   C59       1.0  0.18049  0.27696  0.15204  1.0000
  H   H100      1.0  0.16410  0.43535  0.26846  1.0000
  H   H101      1.0  0.29186  0.01149  0.01757  1.0000
  H   H102      1.0  0.18377  0.47167  0.32851  1.0000
  H   H103      1.0  0.24704  0.05504  0.04809  1.0000
  C   C60       1.0  0.29058  0.05059  0.07815  1.0000
  H   H104      1.0  0.03161  0.38363  0.29831  1.0000
  H   H105      1.0  0.28634  0.06344  0.06112  1.0000
  C   C61       1.0  0.25370  0.05962  0.12305  1.0000
  C   C62       1.0  0.12352  0.24299  0.10864  1.0000
  H   H106      1.0  0.19892  0.44806  0.36682  1.0000
  N   N6        1.0  0.24946  0.04687  0.09507  1.0000
  H   H107      1.0  0.31993  0.23413  0.44467  1.0000
  H   H108      1.0  0.30423  0.04037  0.06834  1.0000
  H   H109      1.0  0.16807  0.24964  0.06885  1.0000
  C   C63       1.0  0.14643  0.24934  0.11998  1.0000
  H   H110      1.0  0.11151  0.25698  0.10963  1.0000
  H   H111      1.0  0.03783  0.35952  0.16753  1.0000
  C   C64       1.0  0.15914  0.26569  0.07275  1.0000
  H   H112      1.0  0.19009  0.25913  0.11235  1.0000
  H   H113      1.0  0.15769  0.23480  0.11626  1.0000
  C   C65       1.0  0.20549  0.45260  0.28453  1.0000
  H   H114      1.0  0.32717  0.11853  0.05102  1.0000
  H   H115      1.0  0.11409  0.35201  0.49633  1.0000
  C   C66       1.0  0.17129  0.28363  0.05391  1.0000
  S   S20       1.0  0.20173  0.37905  0.49705  1.0000
  H   H116      1.0  0.15151  0.30567  0.10490  1.0000
  H   H117      1.0  0.22919  0.08680  0.12119  1.0000
  C   C67       1.0  0.16257  0.21567  0.01413  1.0000
  C   C68       1.0  0.13012  0.29344  0.14076  1.0000
  H   H118      1.0  0.11823  0.43334  0.48813  1.0000
  H   H119      1.0  0.31140  0.30066  0.37462  1.0000
  H   H120      1.0  0.14285  0.26397  0.06218  1.0000
  Fe  Fe9       1.0  0.11629  0.26040  0.01146  1.0000
  C   C69       1.0  0.30914  0.12006  0.11168  1.0000
  H   H121      1.0  0.03603  0.39262  0.14040  1.0000
  H   H122      1.0  0.26865  0.02532  0.06585  1.0000
  C   C70       1.0  0.16630  0.19313  0.02161  1.0000
  C   C71       1.0  0.30698  0.29992  0.50004  1.0000
  N   N7        1.0  0.01031  0.37213  0.19396  1.0000
  C   C72       1.0  0.06435  0.48790  0.21656  1.0000
  C   C73       1.0  0.28618  0.31093  0.49888  1.0000
  C   C74       1.0  0.02025  0.49180  0.28055  1.0000
  H   H123      1.0  0.05401  0.48761  0.19644  1.0000
  H   H124      1.0  0.01434  0.47469  0.27703  1.0000
  C   C75       1.0  0.22826  0.01313  0.07620  1.0000
  Fe  Fe10      1.0  0.19793  0.40144  0.53688  1.0000
  S   S21       1.0  0.23461  0.40177  0.54475  1.0000
  S   S22       1.0  0.16679  0.39806  0.56702  1.0000
  Fe  Fe11      1.0  0.07743  0.43911  0.75110  1.0000
  S   S23       1.0  0.08068  0.41734  0.71088  1.0000
  S   S24       1.0  0.06553  0.47428  0.74215  1.0000
  Fe  Fe12      1.0  0.09059  0.40133  0.79470  1.0000
  S   S25       1.0  0.09546  0.37697  0.75760  1.0000
  S   S26       1.0  0.09483  0.39523  0.84481  1.0000
  Fe  Fe13      1.0  0.11205  0.40481  0.73132  1.0000
  S   S27       1.0  0.14604  0.40397  0.70788  1.0000
  Fe  Fe14      1.0  0.06374  0.39187  0.74024  1.0000
  S   S28       1.0  0.03512  0.37126  0.72603  1.0000
  S   S29       1.0  0.10971  0.42819  0.77015  1.0000
  S   S30       1.0  0.05795  0.41456  0.77882  1.0000
  Fe  Fe15      1.0  0.29254  0.12584  0.97499  1.0000
  S   S31       1.0  0.25733  0.12570  0.95974  1.0000
  S   S32       1.0  0.32517  0.12456  0.94782  1.0000
  Fe  Fe16      1.0  0.09952  0.29659  0.96713  1.0000
  S   S33       1.0  0.10142  0.30301  0.91648  1.0000
  S   S34       1.0  0.08713  0.26260  0.98083  1.0000
  H   H125      1.0  0.14968  0.35025  0.81228  1.0000
  H   H126      1.0  0.17768  0.24497  0.99522  1.0000
  H   H127      1.0  0.15328  0.46481  0.61331  1.0000
  H   H128      1.0  0.09925  0.18229  0.95454  1.0000
  C   C76       1.0  0.01129  0.41021  0.72167  1.0000
  H   H129      1.0  0.30174  0.14635  0.84616  1.0000
  H   H130      1.0  0.11102  0.21945  0.96521  1.0000
  C   C77       1.0  0.17130  0.40133  0.82830  1.0000
  H   H131      1.0  0.13619  0.41020  0.82045  1.0000
  C   C78       1.0  0.11781  0.46372  0.69041  1.0000
  C   C79       1.0  0.32442  0.33524  0.50549  1.0000
  H   H132      1.0  0.10197  0.47892  0.78329  1.0000
  H   H133      1.0  0.13406  0.44968  0.63607  1.0000
  H   H134      1.0  0.17244  0.37044  0.77091  1.0000
  C   C80       1.0  0.01106  0.38713  0.71949  1.0000
  C   C81       1.0  0.15313  0.46409  0.73793  1.0000
  C   C82       1.0  0.13237  0.20906  0.89376  1.0000
  H   H135      1.0  0.02652  0.41854  0.72622  1.0000
  C   C83       1.0  0.09457  0.36933  0.86436  1.0000
  C   C84       1.0  0.09469  0.34915  0.84942  1.0000
  C   C85       1.0  0.09629  0.32899  0.86579  1.0000
  C   C86       1.0  0.09760  0.32876  0.89723  1.0000
  C   C87       1.0  0.09695  0.34894  0.91219  1.0000
  C   C88       1.0  0.09558  0.36910  0.89579  1.0000
  H   H136      1.0  0.09392  0.34905  0.82525  1.0000
  H   H137      1.0  0.09674  0.31347  0.85402  1.0000
  H   H138      1.0  0.09796  0.34904  0.93633  1.0000
  H   H139      1.0  0.09553  0.38462  0.90757  1.0000
  H   H140      1.0  0.08368  0.46012  0.67734  1.0000
  H   H141      1.0  0.09343  0.41058  0.51700  1.0000
  H   H142      1.0  0.14210  0.19480  0.96712  1.0000
  C   C89       1.0  0.14889  0.46020  0.63686  1.0000
  H   H143      1.0  0.13864  0.47310  0.74739  1.0000
  H   H144      1.0  0.14748  0.42271  0.85272  1.0000
  C   C90       1.0  0.30985  0.26392  0.61372  1.0000
  H   H145      1.0  0.13451  0.17774  0.93728  1.0000
  H   H146      1.0  0.15117  0.44624  0.74373  1.0000
  C   C91       1.0  0.16161  0.40033  0.60627  1.0000
  C   C92       1.0  0.17852  0.40270  0.62675  1.0000
  C   C93       1.0  0.17347  0.40374  0.65774  1.0000
  C   C94       1.0  0.15149  0.40263  0.66861  1.0000
  C   C95       1.0  0.13456  0.40065  0.64810  1.0000
  C   C96       1.0  0.13962  0.39943  0.61717  1.0000
  H   H147      1.0  0.19551  0.40333  0.61876  1.0000
  H   H148      1.0  0.18672  0.40524  0.67337  1.0000
  H   H149      1.0  0.11758  0.39972  0.65606  1.0000
  H   H150      1.0  0.12639  0.39754  0.60159  1.0000
  H   H151      1.0  0.14402  0.36632  0.76365  1.0000
  C   C97       1.0  0.18008  0.22765  0.00111  1.0000
  H   H152      1.0  0.18149  0.50365  0.55929  1.0000
  Fe  Fe17      1.0  0.23884  0.38107  0.50299  1.0000
  H   H153      1.0  0.15981  0.45025  0.69482  1.0000
  C   C98       1.0  0.09750  0.47169  0.67274  1.0000
  H   H154      1.0  0.32055  0.26395  0.66097  1.0000
  C   C99       1.0  0.08139  0.49707  0.75244  1.0000
  C   C100      1.0  0.16784  0.18856  0.93408  1.0000
  H   H155      1.0  0.16836  0.34131  0.87879  1.0000
  H   H156      1.0  0.17233  0.47601  0.69935  1.0000
  H   H157      1.0  0.33416  0.30003  0.59705  1.0000
  H   H158      1.0  0.19557  0.36702  0.80849  1.0000
  H   H159      1.0  0.15467  0.43222  0.81504  1.0000
  C   C101      1.0  0.20439  0.19448  0.00231  1.0000
  C   C102      1.0  0.30849  0.27221  0.64619  1.0000
  N   N8        1.0  0.13780  0.47826  0.68731  1.0000
  C   C103      1.0  0.10984  0.21582  0.94092  1.0000
  H   H160      1.0  0.13233  0.49175  0.64263  1.0000
  H   H161      1.0  0.12182  0.44636  0.68393  1.0000
  H   H162      1.0  0.30300  0.24686  0.61410  1.0000
  S   S35       1.0  0.25278  0.46342  0.52349  1.0000
  C   C104      1.0  0.31375  0.24559  0.55319  1.0000
  H   H163      1.0  0.19299  0.48697  0.58934  1.0000
  H   H164      1.0  0.12233  0.22674  0.85320  1.0000
  H   H165      1.0  0.12923  0.19121  0.88966  1.0000
  C   C105      1.0  0.31402  0.13762  0.85926  1.0000
  C   C106      1.0  0.00829  0.28252  0.98684  1.0000
  H   H166      1.0  0.13965  0.38304  0.86587  1.0000
  H   H167      1.0  0.17889  0.20099  0.94360  1.0000
  H   H168      1.0  0.04216  0.37214  0.81731  1.0000
  C   C107      1.0  0.00771  0.38107  0.81005  1.0000
  H   H169      1.0  0.13036  0.40421  0.52524  1.0000
  H   H170      1.0  0.29639  0.14279  0.90135  1.0000
  H   H171      1.0  0.18429  0.34580  0.83159  1.0000
  H   H172      1.0  0.02881  0.35389  0.79286  1.0000
  Fe  Fe18      1.0  0.25267  0.09740  0.99314  1.0000
  C   C108      1.0  0.14618  0.23315  0.93374  1.0000
  H   H173      1.0  0.15268  0.39315  0.77403  1.0000
  H   H174      1.0  0.16786  0.46999  0.74966  1.0000
  C   C109      1.0  0.15039  0.36868  0.81125  1.0000
  H   H175      1.0  0.18261  0.40740  0.84551  1.0000
  H   H176      1.0  0.09153  0.48826  0.68000  1.0000
  C   C110      1.0  0.15546  0.37516  0.77826  1.0000
  C   C111      1.0  0.15610  0.37459  0.86470  1.0000
  C   C112      1.0  0.18755  0.36394  0.83079  1.0000
  H   H177      1.0  0.31923  0.01665  0.80431  1.0000
  H   H178      1.0  0.19927  0.36557  0.87745  1.0000
  H   H179      1.0  0.12205  0.49922  0.72084  1.0000
  H   H180      1.0  0.16027  0.49110  0.65308  1.0000
  C   C113      1.0  0.15125  0.41740  0.82944  1.0000
  H   H181      1.0  0.14191  0.34124  0.86074  1.0000
  C   C114      1.0  0.14473  0.48152  0.65490  1.0000
  C   C115      1.0  0.32636  0.31199  0.50327  1.0000
  H   H182      1.0  0.15964  0.36392  0.52101  1.0000
  H   H183      1.0  0.11221  0.46228  0.71426  1.0000
  H   H184      1.0  0.32114  0.22893  0.55724  1.0000
  H   H185      1.0  0.02366  0.35213  0.83292  1.0000
  C   C116      1.0  0.32697  0.12499  0.90798  1.0000
  H   H186      1.0  0.29776  0.27448  0.60121  1.0000
  H   H187      1.0  0.07738  0.20089  0.94473  1.0000
  H   H188      1.0  0.16597  0.38314  0.88164  1.0000
  H   H189      1.0  0.21184  0.38554  0.85172  1.0000
  S   S36       1.0  0.12976  0.29320  0.99559  1.0000
  H   H190      1.0  0.10076  0.23027  0.93151  1.0000
  H   H191      1.0  0.16300  0.45028  0.64546  1.0000
  H   H192      1.0  0.16339  0.23130  0.92490  1.0000
  C   C117      1.0  0.02634  0.36355  0.81365  1.0000
  H   H193      1.0  0.18067  0.40412  0.80684  1.0000
  S   S37       1.0  0.23468  0.06510  0.98453  1.0000
  C   C118      1.0  0.15258  0.35051  0.87580  1.0000
  C   C119      1.0  0.15653  0.46714  0.70366  1.0000
  H   H194      1.0  0.14406  0.35077  0.89809  1.0000
  H   H195      1.0  0.17287  0.17234  0.94420  1.0000
  H   H196      1.0  0.10068  0.21153  0.87063  1.0000
  N   N9        1.0  0.16631  0.37717  0.83378  1.0000
  H   H197      1.0  0.21948  0.35698  0.85034  1.0000
  H   H198      1.0  0.12093  0.25973  0.92849  1.0000
  C   C120      1.0  0.20527  0.36853  0.85413  1.0000
  C   C121      1.0  0.13803  0.25562  0.92115  1.0000
  H   H199      1.0  0.13312  0.37410  0.81648  1.0000
  H   H200      1.0  0.13977  0.25653  0.89641  1.0000
  H   H201      1.0  0.32071  0.28031  0.55724  1.0000
  H   H202      1.0  0.15499  0.39958  0.50425  1.0000
  H   H203      1.0  0.14739  0.23501  0.95834  1.0000
  C   C122      1.0  0.14333  0.19325  0.94233  1.0000
  H   H204      1.0  0.11885  0.36856  0.52750  1.0000
  H   H205      1.0  0.14891  0.21244  0.88336  1.0000
  H   H206      1.0  0.29671  0.24633  0.56274  1.0000
  C   C123      1.0  0.31092  0.13560  0.89059  1.0000
  C   C124      1.0  0.09455  0.19572  0.93850  1.0000
  H   H207      1.0  0.02325  0.28859  0.97603  1.0000
  C   C125      1.0  0.09850  0.49487  0.77288  1.0000
  H   H208      1.0  0.29178  0.26865  0.65576  1.0000
  H   H209      1.0  0.21403  0.22657  0.98494  1.0000
  H   H210      1.0  0.10883  0.23782  0.88534  1.0000
  H   H211      1.0  0.17081  0.18750  0.90958  1.0000
  H   H212      1.0  0.09434  0.18913  0.91553  1.0000
  C   C126      1.0  0.11495  0.22219  0.87543  1.0000
  C   C127      1.0  0.14802  0.35286  0.50996  1.0000
  H   H213      1.0  0.14852  0.26893  0.92986  1.0000
  C   C128      1.0  0.19683  0.49645  0.56838  1.0000
  H   H214      1.0  0.10067  0.47176  0.64823  1.0000
  H   H215      1.0  0.20274  0.48383  0.55206  1.0000
  H   H216      1.0  0.31227  0.24757  0.52857  1.0000
  N   N10       1.0  0.13265  0.21308  0.92701  1.0000
  Fe  Fe19      1.0  0.23515  0.43138  0.51264  1.0000
  C   C129      1.0  0.33300  0.12884  0.84483  1.0000
  H   H217      1.0  0.00954  0.39325  0.82825  1.0000
  H   H218      1.0  0.01202  0.39016  0.78876  1.0000
  H   H219      1.0  0.14550  0.33838  0.52531  1.0000
  C   C130      1.0  0.26773  0.03491  0.00066  1.0000
  N   N11       1.0  0.33221  0.26422  0.59797  1.0000
  S   S38       1.0  0.23071  0.18202  0.99305  1.0000
  H   H220      1.0  0.31044  0.29048  0.64689  1.0000
  C   C131      1.0  0.24608  0.03808  0.99099  1.0000
  C   C132      1.0  0.20074  0.21713  0.99526  1.0000
  H   H221      1.0  0.08415  0.38217  0.51787  1.0000
  C   C133      1.0  0.32840  0.26429  0.56465  1.0000
  S   S39       1.0  0.19855  0.43214  0.50783  1.0000
  Fe  Fe20      1.0  0.24955  0.14845  0.99875  1.0000
  C   C134      1.0  0.23264  0.01940  0.98821  1.0000
  H   H222      1.0  0.21588  0.02161  0.98068  1.0000
  C   C135      1.0  0.13212  0.50074  0.69996  1.0000
  C   C136      1.0  0.24756  0.48927  0.50510  1.0000
  H   H223      1.0  0.30256  0.36411  0.50615  1.0000
  C   C137      1.0  0.30360  0.34626  0.50443  1.0000
  C   C138      1.0  0.12561  0.36452  0.50480  1.0000
  S   S40       1.0  0.07905  0.31453  0.00217  1.0000
  H   H224      1.0  0.33564  0.22855  0.60243  1.0000
  C   C139      1.0  0.08725  0.39694  0.50331  1.0000
  H   H225      1.0  0.27836  0.04899  0.00268  1.0000
  Fe  Fe21      1.0  0.09989  0.58941  0.26827  1.0000
  S   S41       1.0  0.09522  0.61474  0.30434  1.0000
  S   S42       1.0  0.09426  0.55433  0.28570  1.0000
  Fe  Fe22      1.0  0.10949  0.62527  0.21966  1.0000
  S   S43       1.0  0.10637  0.65284  0.25257  1.0000
  S   S44       1.0  0.11486  0.62987  0.16912  1.0000
  Fe  Fe23      1.0  0.12553  0.63051  0.28419  1.0000
  S   S45       1.0  0.15619  0.63939  0.31008  1.0000
  Fe  Fe24      1.0  0.07647  0.63434  0.26983  1.0000
  S   S46       1.0  0.04380  0.65238  0.27594  1.0000
  S   S47       1.0  0.13120  0.60409  0.24957  1.0000
  S   S48       1.0  0.07858  0.60783  0.23547  1.0000
  Fe  Fe25      1.0  0.20102  0.63327  0.47526  1.0000
  S   S49       1.0  0.23410  0.62368  0.45562  1.0000
  S   S50       1.0  0.16909  0.64269  0.45158  1.0000
  C   C140      1.0  0.16294  0.55113  0.36915  1.0000
  H   H226      1.0  0.29902  0.89182  0.16007  1.0000
  H   H227      1.0  0.15220  0.59633  0.36441  1.0000
  C   C141      1.0  0.25549  0.52894  0.49993  1.0000
  S   S51       1.0  0.27040  0.96977  0.02481  1.0000
  H   H228      1.0  0.30310  0.95887  0.17305  1.0000
  H   H229      1.0  0.11167  0.56986  0.34509  1.0000
  H   H230      1.0  0.12226  0.56953  0.38282  1.0000
  H   H231      1.0  0.31555  0.93828  0.12035  1.0000
  C   C142      1.0  0.19965  0.84287  0.01473  1.0000
  C   C143      1.0  0.23839  0.53175  0.47959  1.0000
  C   C144      1.0  0.31668  0.94671  0.21434  1.0000
  Fe  Fe26      1.0  0.29455  0.89242  0.02944  1.0000
  H   H232      1.0  0.24165  0.00050  0.07336  1.0000
  S   S52       1.0  0.26269  0.90689  0.04724  1.0000
  Fe  Fe27      1.0  0.10690  0.72586  0.04124  1.0000
  S   S53       1.0  0.10606  0.71973  0.09197  1.0000
  S   S54       1.0  0.10192  0.76207  0.02882  1.0000
  C   C145      1.0  0.16847  0.81741  0.02320  1.0000
  H   H233      1.0  0.02193  0.69678  0.19847  1.0000
  H   H234      1.0  0.06871  0.65278  0.18707  1.0000
  H   H235      1.0  0.15517  0.52452  0.28752  1.0000
  H   H236      1.0  0.00446  0.67594  0.16046  1.0000
  H   H237      1.0  0.17389  0.68916  0.08690  1.0000
  C   C146      1.0  0.10058  0.50968  0.28338  1.0000
  H   H238      1.0  0.16369  0.75702  0.04780  1.0000
  C   C147      1.0  0.10237  0.82181  0.03574  1.0000
  H   H239      1.0  0.04685  0.64328  0.21088  1.0000
  C   C148      1.0  0.14451  0.58494  0.34853  1.0000
  C   C149      1.0  0.32563  0.71084  0.49179  1.0000
  H   H240      1.0  0.30698  0.73070  0.43871  1.0000
  H   H241      1.0  0.16998  0.52133  0.32143  1.0000
  N   N12       1.0  0.15975  0.56565  0.34170  1.0000
  C   C150      1.0  0.31090  0.79728  0.44664  1.0000
  H   H242      1.0  0.20021  0.71632  0.08200  1.0000
  C   C151      1.0  0.18191  0.57467  0.33179  1.0000
  H   H243      1.0  0.29344  0.74849  0.46555  1.0000
  S   S55       1.0  0.21392  0.86728  0.02576  1.0000
  S   S56       1.0  0.08299  0.71381  0.00737  1.0000
  C   C152      1.0  0.31023  0.88859  0.11411  1.0000
  Fe  Fe28      1.0  0.24579  0.88645  0.01225  1.0000
  H   H244      1.0  0.06531  0.65569  0.12616  1.0000
  H   H245      1.0  0.00472  0.58202  0.28932  1.0000
  H   H246      1.0  0.14376  0.74211  0.06868  1.0000
  H   H247      1.0  0.15119  0.70653  0.07457  1.0000
  C   C153      1.0  0.02037  0.63538  0.27633  1.0000
  C   C154      1.0  0.02226  0.61261  0.28230  1.0000
  H   H248      1.0  0.08830  0.85123  0.01706  1.0000
  H   H249      1.0  0.03830  0.60522  0.28652  1.0000
  C   C155      1.0  0.15920  0.63973  0.34955  1.0000
  C   C156      1.0  0.18051  0.63788  0.36131  1.0000
  C   C157      1.0  0.18374  0.63811  0.39247  1.0000
  C   C158      1.0  0.16569  0.64070  0.41226  1.0000
  C   C159      1.0  0.14433  0.64237  0.40053  1.0000
  C   C160      1.0  0.14106  0.64168  0.36937  1.0000
  H   H250      1.0  0.19466  0.63639  0.34622  1.0000
  H   H251      1.0  0.20027  0.63691  0.40111  1.0000
  H   H252      1.0  0.13025  0.64444  0.41559  1.0000
  H   H253      1.0  0.12457  0.64317  0.36065  1.0000
  C   C161      1.0  0.11290  0.65511  0.14810  1.0000
  C   C162      1.0  0.11410  0.65448  0.11662  1.0000
  C   C163      1.0  0.11216  0.67405  0.09904  1.0000
  C   C164      1.0  0.10910  0.69454  0.11282  1.0000
  C   C165      1.0  0.10823  0.69522  0.14429  1.0000
  C   C166      1.0  0.11002  0.67564  0.16186  1.0000
  H   H254      1.0  0.11641  0.63870  0.10575  1.0000
  H   H255      1.0  0.11293  0.67324  0.07486  1.0000
  H   H256      1.0  0.10596  0.71099  0.15520  1.0000
  H   H257      1.0  0.10922  0.67643  0.18604  1.0000
  C   C167      1.0  0.11840  0.53051  0.24316  1.0000
  C   C168      1.0  0.10538  0.53009  0.26943  1.0000
  C   C169      1.0  0.04359  0.52206  0.25909  1.0000
  H   H258      1.0  0.12227  0.54619  0.23227  1.0000
  C   C170      1.0  0.20404  0.76949  0.06517  1.0000
  H   H259      1.0  0.30029  0.75652  0.39737  1.0000
  H   H260      1.0  0.03857  0.50713  0.31719  1.0000
  H   H261      1.0  0.32082  0.97720  0.13167  1.0000
  H   H262      1.0  0.03787  0.69613  0.14759  1.0000
  C   C171      1.0  0.04922  0.62658  0.16907  1.0000
  H   H263      1.0  0.19192  0.78100  0.05473  1.0000
  H   H264      1.0  0.03766  0.66257  0.11305  1.0000
  H   H265      1.0  0.19631  0.73159  0.14621  1.0000
  C   C172      1.0  0.00326  0.59949  0.28380  1.0000
  H   H266      1.0  0.17268  0.71733  0.16076  1.0000
  H   H267      1.0  0.31701  0.80763  0.35774  1.0000
  H   H268      1.0  0.33193  0.93927  0.22346  1.0000
  H   H269      1.0  0.18744  0.70611  0.12953  1.0000
  H   H270      1.0  0.03433  0.73796  0.02882  1.0000
  H   H271      1.0  0.15083  0.72586  0.11714  1.0000
  C   C173      1.0  0.01970  0.74323  0.01704  1.0000
  H   H272      1.0  0.29373  0.79679  0.37834  1.0000
  H   H273      1.0  0.11599  0.80965  0.03241  1.0000
  C   C174      1.0  0.32642  0.78867  0.39743  1.0000
  H   H274      1.0  0.29978  0.80618  0.49138  1.0000
  C   C175      1.0  0.14968  0.55197  0.31769  1.0000
  H   H275      1.0  0.13845  0.77174  0.10528  1.0000
  H   H276      1.0  0.29752  0.80749  0.43648  1.0000
  H   H277      1.0  0.18972  0.77116  0.10985  1.0000
  H   H278      1.0  0.28292  0.77379  0.41939  1.0000
  H   H279      1.0  0.01922  0.53637  0.29149  1.0000
  H   H280      1.0  0.01587  0.54588  0.25310  1.0000
  H   H281      1.0  0.30313  0.93495  0.21974  1.0000
  H   H282      1.0  0.13459  0.54350  0.32650  1.0000
  C   C176      1.0  0.16886  0.70247  0.07087  1.0000
  C   C177      1.0  0.12628  0.51045  0.23080  1.0000
  H   H283      1.0  0.14368  0.56257  0.29883  1.0000
  C   C178      1.0  0.02798  0.54075  0.27022  1.0000
  C   C179      1.0  0.32838  0.88526  0.09472  1.0000
  H   H284      1.0  0.17491  0.84615  0.04985  1.0000
  C   C180      1.0  0.19457  0.75798  0.09374  1.0000
  H   H285      1.0  0.18879  0.72736  0.04855  1.0000
  H   H286      1.0  0.21013  0.75744  0.04835  1.0000
  H   H287      1.0  0.32498  0.80874  0.44954  1.0000
  H   H288      1.0  0.00784  0.68814  0.00959  1.0000
  H   H289      1.0  0.19302  0.57772  0.28467  1.0000
  C   C181      1.0  0.31023  0.80422  0.38067  1.0000
  C   C182      1.0  0.15785  0.75338  0.07116  1.0000
  H   H290      1.0  0.06590  0.61874  0.16707  1.0000
  H   H291      1.0  0.29378  0.88973  0.10519  1.0000
  H   H292      1.0  0.19458  0.56111  0.33097  1.0000
  H   H293      1.0  0.13629  0.51079  0.21042  1.0000
  H   H294      1.0  0.11222  0.59464  0.36615  1.0000
  S   S57       1.0  0.27987  0.66132  0.48708  1.0000
  H   H295      1.0  0.32182  0.82146  0.02746  1.0000
  H   H296      1.0  0.08653  0.81304  0.03938  1.0000
  C   C183      1.0  0.18451  0.72252  0.07213  1.0000
  C   C184      1.0  0.31851  0.95011  0.18010  1.0000
  C   C185      1.0  0.12146  0.57900  0.36141  1.0000
  H   H297      1.0  0.10577  0.83051  0.05683  1.0000
  H   H298      1.0  0.16641  0.59060  0.29141  1.0000
  H   H299      1.0  0.01479  0.65030  0.14818  1.0000
  N   N13       1.0  0.03672  0.66763  0.17774  1.0000
  C   C186      1.0  0.03341  0.68279  0.20411  1.0000
  H   H300      1.0  0.09073  0.50922  0.30390  1.0000
  C   C187      1.0  0.04784  0.68095  0.15294  1.0000
  C   C188      1.0  0.05097  0.64810  0.18723  1.0000
  C   C189      1.0  0.05450  0.69297  0.21664  1.0000
  Fe  Fe29      1.0  0.23159  0.59246  0.48407  1.0000
  C   C190      1.0  0.01406  0.66102  0.16800  1.0000
  C   C191      1.0  0.16468  0.53363  0.30426  1.0000
  C   C192      1.0  0.33551  0.96620  0.13522  1.0000
  C   C193      1.0  0.33446  0.88803  0.15740  1.0000
  C   C194      1.0  0.22629  0.51310  0.47155  1.0000
  H   H301      1.0  0.21326  0.51501  0.45552  1.0000
  C   C195      1.0  0.05269  0.66901  0.12331  1.0000
  H   H302      1.0  0.06413  0.68689  0.16000  1.0000
  H   H303      1.0  0.33364  0.94963  0.09230  1.0000
  H   H304      1.0  0.33139  0.77562  0.38122  1.0000
  H   H305      1.0  0.06128  0.70617  0.20162  1.0000
  H   H306      1.0  0.05025  0.70090  0.23833  1.0000
  H   H307      1.0  0.06744  0.68029  0.22136  1.0000
  H   H308      1.0  0.16113  0.75027  0.13245  1.0000
  H   H309      1.0  0.27821  0.73642  0.43651  1.0000
  H   H310      1.0  0.15404  0.81276  0.03626  1.0000
  H   H311      1.0  0.18648  0.57134  0.39410  1.0000
  H   H312      1.0  0.18799  0.58650  0.34850  1.0000
  H   H313      1.0  0.11055  0.67821  0.48483  1.0000
  H   H314      1.0  0.00320  0.51437  0.23457  1.0000
  C   C196      1.0  0.14793  0.77497  0.08415  1.0000
  C   C197      1.0  0.18183  0.72186  0.13973  1.0000
  N   N14       1.0  0.31786  0.77847  0.42652  1.0000
  C   C198      1.0  0.16625  0.73546  0.11938  1.0000
  H   H315      1.0  0.03804  0.55558  0.27466  1.0000
  H   H316      1.0  0.21835  0.77971  0.07122  1.0000
  H   H317      1.0  0.11703  0.84832  0.00940  1.0000
  H   H318      1.0  0.05998  0.68111  0.10695  1.0000
  N   N15       1.0  0.17578  0.74231  0.08916  1.0000
  H   H319      1.0  0.12493  0.65246  0.48004  1.0000
  H   H320      1.0  0.14160  0.59521  0.32808  1.0000
  H   H321      1.0  0.00897  0.63574  0.20419  1.0000
  H   H322      1.0  0.13602  0.78210  0.06800  1.0000
  C   C199      1.0  0.29430  0.74394  0.44169  1.0000
  H   H323      1.0  0.03647  0.69639  0.00786  1.0000
  H   H324      1.0  0.28532  0.78339  0.47697  1.0000
  H   H325      1.0  0.17567  0.53806  0.36469  1.0000
  C   C200      1.0  0.18047  0.83639  0.03098  1.0000
  C   C201      1.0  0.29853  0.76381  0.42007  1.0000
  C   C202      1.0  0.31325  0.88974  0.14526  1.0000
  H   H326      1.0  0.33160  0.75717  0.46158  1.0000
  H   H327      1.0  0.02545  0.67382  0.22335  1.0000
  C   C203      1.0  0.18270  0.58705  0.30113  1.0000
  H   H328      1.0  0.31911  0.68274  0.46395  1.0000
  S   S58       1.0  0.23183  0.55802  0.46314  1.0000
  C   C204      1.0  0.17037  0.56304  0.39753  1.0000
  H   H329      1.0  0.19080  0.60333  0.30357  1.0000
  C   C205      1.0  0.33227  0.94525  0.11653  1.0000
  H   H330      1.0  0.16050  0.78779  0.08754  1.0000
  H   H331      1.0  0.14761  0.54192  0.37513  1.0000
  H   H332      1.0  0.20873  0.74911  0.10424  1.0000
  H   H333      1.0  0.31253  0.96239  0.22593  1.0000
  H   H334      1.0  0.30861  0.82055  0.39163  1.0000
  H   H335      1.0  0.32361  0.99315  0.18199  1.0000
  H   H336      1.0  0.17039  0.69493  0.04839  1.0000
  H   H337      1.0  0.04332  0.62871  0.14602  1.0000
  H   H338      1.0  0.02923  0.66918  0.02013  1.0000
  H   H339      1.0  0.03887  0.61426  0.18147  1.0000
  H   H340      1.0  0.17267  0.55054  0.41581  1.0000
  S   S59       1.0  0.32527  0.88216  0.05551  1.0000
  H   H341      1.0  0.15787  0.57520  0.40583  1.0000
  C   C206      1.0  0.30189  0.79087  0.47806  1.0000
  H   H342      1.0  0.05563  0.83463  0.01280  1.0000
  H   H343      1.0  0.17930  0.54052  0.29221  1.0000
  H   H344      1.0  0.05186  0.52877  0.23844  1.0000
  H   H345      1.0  0.05697  0.52006  0.27552  1.0000
  S   S60       1.0  0.13658  0.72202  0.01033  1.0000
  H   H346      1.0  0.02537  0.51170  0.20837  1.0000
  C   C207      1.0  0.31350  0.69216  0.48312  1.0000
  H   H347      1.0  0.31771  0.93322  0.17062  1.0000
  Fe  Fe30      1.0  0.26715  0.93343  0.01130  1.0000
  C   C208      1.0  0.29423  0.68544  0.49901  1.0000
  H   H348      1.0  0.31324  0.77989  0.49071  1.0000
  H   H349      1.0  0.13938  0.67674  0.49194  1.0000
  C   C209      1.0  0.26169  0.99501  0.00735  1.0000
  S   S61       1.0  0.19781  0.60154  0.50135  1.0000
  C   C210      1.0  0.10118  0.83906  0.00991  1.0000
  C   C211      1.0  0.12377  0.66738  0.49417  1.0000
  Fe  Fe31      1.0  0.24856  0.64000  0.49621  1.0000
  C   C212      1.0  0.32898  0.82068  0.00435  1.0000
  C   C213      1.0  0.02499  0.68268  0.00394  1.0000
  H   H350      1.0  0.21286  0.00387  0.08134  1.0000
  Fe  Fe32      1.0  0.21424  0.61835  0.53898  1.0000
  S   S62       1.0  0.24843  0.60758  0.52315  1.0000
  S   S63       1.0  0.20018  0.60577  0.58408  1.0000
  C   C214      1.0  0.31671  0.89160  0.86512  1.0000
  Fe  Fe33      1.0  0.10846  0.59067  0.76053  1.0000
  S   S64       1.0  0.10033  0.59651  0.71230  1.0000
  S   S65       1.0  0.12243  0.55744  0.77578  1.0000
  Fe  Fe34      1.0  0.09335  0.63718  0.77960  1.0000
  S   S66       1.0  0.08337  0.64588  0.73234  1.0000
  S   S67       1.0  0.08729  0.66580  0.81221  1.0000
  Fe  Fe35      1.0  0.06906  0.61186  0.73132  1.0000
  S   S68       1.0  0.03718  0.60070  0.71124  1.0000
  Fe  Fe36      1.0  0.11555  0.62990  0.71750  1.0000
  S   S69       1.0  0.13729  0.64934  0.68408  1.0000
  S   S70       1.0  0.07635  0.60412  0.77945  1.0000
  S   S71       1.0  0.12637  0.62301  0.76470  1.0000
  Fe  Fe37      1.0  0.28057  0.89909  0.96403  1.0000
  S   S72       1.0  0.28880  0.89396  0.91434  1.0000
  S   S73       1.0  0.24771  0.91450  0.97775  1.0000
  C   C215      1.0  0.22762  0.54851  0.59299  1.0000
  H   H351      1.0  0.29397  0.72572  0.55192  1.0000
  H   H352      1.0  0.05799  0.69851  0.94704  1.0000
  H   H353      1.0  0.27340  0.50577  0.52807  1.0000
  H   H354      1.0  0.02146  0.51582  0.72802  1.0000
  N   N16       1.0  0.33204  0.91604  0.66526  1.0000
  Fe  Fe38      1.0  0.11222  0.71285  0.97514  1.0000
  S   S74       1.0  0.11883  0.68294  0.94541  1.0000
  S   S75       1.0  0.10826  0.74800  0.95886  1.0000
  H   H355      1.0  0.31860  0.86836  0.95377  1.0000
  H   H356      1.0  0.16879  0.64237  0.55086  1.0000
  H   H357      1.0  0.31153  0.87457  0.64279  1.0000
  C   C216      1.0  0.29951  0.71647  0.53256  1.0000
  C   C217      1.0  0.01217  0.63529  0.73456  1.0000
  H   H358      1.0  0.19388  0.52277  0.51825  1.0000
  H   H359      1.0  0.30263  0.88502  0.85392  1.0000
  H   H360      1.0  0.32313  0.89849  0.60695  1.0000
  C   C218      1.0  0.25061  0.54894  0.57731  1.0000
  H   H361      1.0  0.25102  0.56078  0.55802  1.0000
  C   C219      1.0  0.01242  0.61546  0.71878  1.0000
  C   C220      1.0  0.10516  0.63745  0.58483  1.0000
  H   H362      1.0  0.02403  0.52148  0.77440  1.0000
  H   H363      1.0  0.13858  0.62322  0.50602  1.0000
  H   H364      1.0  0.02748  0.64201  0.74222  1.0000
  C   C221      1.0  0.09613  0.67003  0.84934  1.0000
  C   C222      1.0  0.09109  0.69039  0.86306  1.0000
  C   C223      1.0  0.09807  0.69472  0.89230  1.0000
  C   C224      1.0  0.10997  0.67859  0.90831  1.0000
  C   C225      1.0  0.11507  0.65828  0.89453  1.0000
  C   C226      1.0  0.10823  0.65401  0.86522  1.0000
  H   H365      1.0  0.08180  0.70294  0.85093  1.0000
  H   H366      1.0  0.09424  0.71048  0.90246  1.0000
  H   H367      1.0  0.12430  0.64570  0.90669  1.0000
  H   H368      1.0  0.11219  0.63827  0.85502  1.0000
  H   H369      1.0  0.11423  0.61850  0.52770  1.0000
  C   C227      1.0  0.10644  0.53432  0.76692  1.0000
  C   C228      1.0  0.08934  0.53643  0.74653  1.0000
  H   H370      1.0  0.13200  0.82339  0.97411  1.0000
  H   H371      1.0  0.08564  0.55239  0.73634  1.0000
  H   H372      1.0  0.03553  0.57033  0.78487  1.0000
  H   H373      1.0  0.03122  0.73851  0.92552  1.0000
  C   C229      1.0  0.31532  0.92324  0.64231  1.0000
  C   C230      1.0  0.31448  0.89787  0.89522  1.0000
  H   H374      1.0  0.30732  0.98552  0.89766  1.0000
  H   H375      1.0  0.14059  0.63534  0.58819  1.0000
  H   H376      1.0  0.29678  0.83688  0.95534  1.0000
  H   H377      1.0  0.17395  0.53354  0.58318  1.0000
  N   N17       1.0  0.33516  0.97011  0.84760  1.0000
  C   C231      1.0  0.18253  0.61846  0.61120  1.0000
  C   C232      1.0  0.18118  0.64145  0.61438  1.0000
  C   C233      1.0  0.16720  0.65069  0.63673  1.0000
  C   C234      1.0  0.15451  0.63703  0.65614  1.0000
  C   C235      1.0  0.15589  0.61405  0.65293  1.0000
  C   C236      1.0  0.16992  0.60483  0.63071  1.0000
  H   H378      1.0  0.19126  0.65207  0.60007  1.0000
  H   H379      1.0  0.16638  0.66849  0.63922  1.0000
  H   H380      1.0  0.14632  0.60337  0.66782  1.0000
  H   H381      1.0  0.17103  0.58703  0.62880  1.0000
  N   N18       1.0  0.09678  0.83013  0.97928  1.0000
  H   H382      1.0  0.03768  0.71723  0.89833  1.0000
  C   C237      1.0  0.18995  0.53991  0.52537  1.0000
  C   C238      1.0  0.12841  0.64566  0.57576  1.0000
  C   C239      1.0  0.20759  0.54859  0.54630  1.0000
  C   C240      1.0  0.17535  0.80452  0.99883  1.0000
  C   C241      1.0  0.07687  0.51788  0.73936  1.0000
  H   H383      1.0  0.08441  0.88256  0.94671  1.0000
  N   N19       1.0  0.13383  0.64597  0.54268  1.0000
  H   H384      1.0  0.31385  0.98882  0.79458  1.0000
  H   H385      1.0  0.30500  0.95563  0.89574  1.0000
  C   C242      1.0  0.02169  0.75687  0.99154  1.0000
  C   C243      1.0  0.16237  0.67717  0.54851  1.0000
  H   H386      1.0  0.30978  0.94830  0.72358  1.0000
  C   C244      1.0  0.31878  0.72316  0.51672  1.0000
  H   H387      1.0  0.11540  0.67716  0.53942  1.0000
  H   H388      1.0  0.14538  0.53229  0.71327  1.0000
  H   H389      1.0  0.05282  0.54631  0.78713  1.0000
  C   C245      1.0  0.09592  0.84885  0.95626  1.0000
  N   N20       1.0  0.02296  0.69017  0.94666  1.0000
  H   H390      1.0  0.13136  0.79576  0.93520  1.0000
  H   H391      1.0  0.18417  0.55896  0.59468  1.0000
  H   H392      1.0  0.10210  0.62047  0.57701  1.0000
  S   S76       1.0  0.16075  0.78036  0.98757  1.0000
  C   C246      1.0  0.08668  0.87153  0.96662  1.0000
  H   H393      1.0  0.04432  0.66654  0.96982  1.0000
  C   C247      1.0  0.11784  0.66143  0.52708  1.0000
  H   H394      1.0  0.25625  0.53228  0.57006  1.0000
  H   H395      1.0  0.32316  0.95447  0.78918  1.0000
  N   N21       1.0  0.20951  0.53719  0.57646  1.0000
  H   H396      1.0  0.07799  0.80136  0.99334  1.0000
  H   H397      1.0  0.16310  0.51790  0.68724  1.0000
  S   S77       1.0  0.21506  0.65142  0.51440  1.0000
  H   H398      1.0  0.08636  0.84389  0.93648  1.0000
  H   H399      1.0  0.10107  0.65409  0.52694  1.0000
  H   H400      1.0  0.16328  0.65166  0.51467  1.0000
  H   H401      1.0  0.05915  0.72993  0.91703  1.0000
  C   C248      1.0  0.18827  0.54089  0.59403  1.0000
  H   H402      1.0  0.32612  0.85821  0.66962  1.0000
  H   H403      1.0  0.11284  0.85267  0.94733  1.0000
  C   C249      1.0  0.11594  0.81499  0.97084  1.0000
  C   C250      1.0  0.18813  0.53218  0.62668  1.0000
  H   H404      1.0  0.32603  0.85620  0.00224  1.0000
  Fe  Fe39      1.0  0.13057  0.75769  0.99638  1.0000
  C   C251      1.0  0.32543  0.99929  0.80662  1.0000
  H   H405      1.0  0.19775  0.54312  0.64111  1.0000
  H   H406      1.0  0.31552  0.81582  0.98969  1.0000
  H   H407      1.0  0.04317  0.55531  0.75135  1.0000
  H   H408      1.0  0.10201  0.79582  0.93401  1.0000
  H   H409      1.0  0.04100  0.81607  0.99018  1.0000
  H   H410      1.0  0.13670  0.60101  0.56891  1.0000
  C   C252      1.0  0.14377  0.60409  0.54613  1.0000
  C   C253      1.0  0.15734  0.65345  0.53827  1.0000
  H   H411      1.0  0.31988  0.93799  0.85464  1.0000
  H   H412      1.0  0.12424  0.51176  0.79584  1.0000
  H   H413      1.0  0.30807  0.93116  0.80344  1.0000
  H   H414      1.0  0.06372  0.51969  0.72347  1.0000
  H   H415      1.0  0.01803  0.68805  0.89856  1.0000
  C   C254      1.0  0.05459  0.82831  0.98976  1.0000
  H   H416      1.0  0.22329  0.54741  0.53333  1.0000
  C   C255      1.0  0.04340  0.66444  0.90922  1.0000
  H   H417      1.0  0.23026  0.54036  0.61517  1.0000
  C   C256      1.0  0.28731  0.69787  0.52380  1.0000
  H   H418      1.0  0.29486  0.93455  0.69532  1.0000
  C   C257      1.0  0.04197  0.72397  0.92023  1.0000
  H   H419      1.0  0.33118  0.91165  0.93235  1.0000
  C   C258      1.0  0.02210  0.67729  0.91807  1.0000
  H   H420      1.0  0.07272  0.81054  0.95639  1.0000
  H   H421      1.0  0.04679  0.65038  0.92484  1.0000
  H   H422      1.0  0.32048  0.96780  0.92435  1.0000
  H   H423      1.0  0.14878  0.68920  0.54461  1.0000
  H   H424      1.0  0.16116  0.50910  0.72621  1.0000
  C   C259      1.0  0.11106  0.51347  0.77998  1.0000
  N   N22       1.0  0.15434  0.69160  0.78976  1.0000
  C   C260      1.0  0.14766  0.69303  0.75733  1.0000
  C   C261      1.0  0.17759  0.70017  0.79098  1.0000
  C   C262      1.0  0.13890  0.70658  0.80738  1.0000
  C   C263      1.0  0.15246  0.66781  0.80053  1.0000
  C   C264      1.0  0.12331  0.68806  0.75109  1.0000
  C   C265      1.0  0.19498  0.68752  0.77181  1.0000
  C   C266      1.0  0.14357  0.70925  0.84086  1.0000
  C   C267      1.0  0.16587  0.66065  0.82829  1.0000
  H   H425      1.0  0.15107  0.70980  0.74756  1.0000
  H   H426      1.0  0.15749  0.68112  0.74342  1.0000
  H   H427      1.0  0.18384  0.70018  0.81404  1.0000
  H   H428      1.0  0.17801  0.71792  0.78361  1.0000
  H   H429      1.0  0.13856  0.72353  0.79702  1.0000
  H   H430      1.0  0.12165  0.70051  0.80686  1.0000
  H   H431      1.0  0.13488  0.66370  0.80545  1.0000
  H   H432      1.0  0.15791  0.65643  0.78236  1.0000
  H   H433      1.0  0.11201  0.70156  0.75871  1.0000
  H   H434      1.0  0.12121  0.68669  0.72654  1.0000
  H   H435      1.0  0.11813  0.67213  0.76139  1.0000
  H   H436      1.0  0.19311  0.69129  0.74758  1.0000
  H   H437      1.0  0.21176  0.69298  0.77772  1.0000
  H   H438      1.0  0.19435  0.66935  0.77569  1.0000
  H   H439      1.0  0.14073  0.69360  0.85364  1.0000
  H   H440      1.0  0.13153  0.72147  0.85031  1.0000
  H   H441      1.0  0.16019  0.71578  0.84499  1.0000
  H   H442      1.0  0.15551  0.64967  0.84290  1.0000
  H   H443      1.0  0.17135  0.67414  0.84258  1.0000
  H   H444      1.0  0.18042  0.65035  0.82145  1.0000
  S   S78       1.0  0.29987  0.91961  0.99508  1.0000
  C   C268      1.0  0.32221  0.94213  0.80769  1.0000
  H   H445      1.0  0.20018  0.80122  0.96375  1.0000
  H   H446      1.0  0.10367  0.63692  0.60970  1.0000
  C   C269      1.0  0.32659  0.87403  0.65648  1.0000
  H   H447      1.0  0.11626  0.79993  0.98548  1.0000
  H   H448      1.0  0.20442  0.56665  0.54906  1.0000
  C   C270      1.0  0.32628  0.99298  0.84007  1.0000
  H   H449      1.0  0.00377  0.77423  0.95692  1.0000
  C   C271      1.0  0.31626  0.96947  0.90032  1.0000
  C   C272      1.0  0.11636  0.80637  0.93843  1.0000
  C   C273      1.0  0.26013  0.50779  0.51242  1.0000
  H   H450      1.0  0.31002  0.89337  0.68925  1.0000
  H   H451      1.0  0.12134  0.51047  0.68456  1.0000
  H   H452      1.0  0.30915  0.99520  0.84917  1.0000
  H   H453      1.0  0.29865  0.91694  0.64878  1.0000
  S   S79       1.0  0.04794  0.76562  0.97756  1.0000
  C   C274      1.0  0.20661  0.82989  0.99048  1.0000
  H   H454      1.0  0.22951  0.98392  0.99533  1.0000
  H   H455      1.0  0.01500  0.53733  0.80507  1.0000
  H   H456      1.0  0.09861  0.87981  0.98116  1.0000
  C   C275      1.0  0.03841  0.55365  0.77539  1.0000
  C   C276      1.0  0.15180  0.51563  0.70682  1.0000
  C   C277      1.0  0.01837  0.53840  0.78046  1.0000
  H   H457      1.0  0.11747  0.81989  0.92138  1.0000
  H   H458      1.0  0.27263  0.69305  0.53638  1.0000
  H   H459      1.0  0.22293  0.56601  0.59786  1.0000
  H   H460      1.0  0.22125  0.83453  0.97764  1.0000
  C   C278      1.0  0.04141  0.70674  0.94609  1.0000
  C   C279      1.0  0.32670  0.89345  0.67838  1.0000
  H   H461      1.0  0.31335  0.94164  0.64157  1.0000
  H   H462      1.0  0.05790  0.67537  0.90761  1.0000
  H   H463      1.0  0.26289  0.55493  0.59329  1.0000
  H   H464      1.0  0.30542  0.92084  0.59593  1.0000
  H   H465      1.0  0.09207  0.64896  0.57674  1.0000
  H   H466      1.0  0.19018  0.55024  0.50452  1.0000
  S   S80       1.0  0.27775  0.87028  0.99682  1.0000
  H   H467      1.0  0.16169  0.60692  0.54753  1.0000
  H   H468      1.0  0.12985  0.66255  0.58516  1.0000
  H   H469      1.0  0.01588  0.65937  0.97065  1.0000
  H   H470      1.0  0.04077  0.71667  0.96679  1.0000
  H   H471      1.0  0.17664  0.68369  0.53517  1.0000
  H   H472      1.0  0.30167  0.95868  0.84081  1.0000
  C   C280      1.0  0.07601  0.81660  0.97919  1.0000
  C   C281      1.0  0.13185  0.62325  0.52946  1.0000
  H   H473      1.0  0.22787  0.51090  0.55456  1.0000
  H   H474      1.0  0.33418  0.92557  0.59940  1.0000
  H   H475      1.0  0.30272  0.84048  0.91603  1.0000
  H   H476      1.0  0.17088  0.53249  0.63565  1.0000
  H   H477      1.0  0.16640  0.67726  0.57262  1.0000
  C   C282      1.0  0.31020  0.83653  0.93803  1.0000
  H   H478      1.0  0.01992  0.53151  0.69477  1.0000
  C   C283      1.0  0.31904  0.95246  0.83889  1.0000
  H   H479      1.0  0.17301  0.54121  0.53503  1.0000
  C   C284      1.0  0.32003  0.91645  0.60953  1.0000
  C   C285      1.0  0.32781  0.85399  0.94418  1.0000
  H   H480      1.0  0.14187  0.58859  0.53344  1.0000
  C   C286      1.0  0.19455  0.81095  0.98264  1.0000
  H   H481      1.0  0.01225  0.56102  0.72455  1.0000
  C   C287      1.0  0.30965  0.93332  0.70944  1.0000
  Fe  Fe40      1.0  0.08012  0.74951  0.99282  1.0000
  H   H482      1.0  0.04146  0.65726  0.88670  1.0000
  H   H483      1.0  0.31681  0.81948  0.93586  1.0000
  C   C288      1.0  0.24039  0.99796  0.99628  1.0000
  H   H484      1.0  0.30834  0.91887  0.72510  1.0000
  S   S81       1.0  0.33384  0.74646  0.52977  1.0000
  C   C289      1.0  0.02729  0.67368  0.97180  1.0000
  H   H485      1.0  0.04970  0.84175  0.97399  1.0000
  C   C290      1.0  0.33282  0.90633  0.90944  1.0000
  C   C291      1.0  0.01000  0.52625  0.71483  1.0000
  H   H486      1.0  0.33388  0.86051  0.92209  1.0000
  H   H487      1.0  0.33410  0.94954  0.68214  1.0000
  C   C292      1.0  0.21571  0.51298  0.57328  1.0000
  H   H488      1.0  0.22437  0.50681  0.59361  1.0000
  H   H489      1.0  0.19455  0.51493  0.62856  1.0000
  H   H490      1.0  0.07055  0.87049  0.97858  1.0000
  C   C293      1.0  0.33132  0.93230  0.69062  1.0000
  H   H491      1.0  0.26528  0.54303  0.50576  1.0000
  H   H492      1.0  0.00842  0.66509  0.91959  1.0000
  H   H493      1.0  0.00288  0.58108  0.76590  1.0000
  H   H494      1.0  0.00265  0.71458  0.96985  1.0000
  Fe  Fe41      1.0  0.37802  0.12756  0.21112  1.0000
  S   S82       1.0  0.36151  0.12074  0.25626  1.0000
  H   H495      1.0  0.45344  0.04740  0.31202  1.0000
  Fe  Fe42      1.0  0.42038  0.10292  0.22796  1.0000
  S   S83       1.0  0.40677  0.09400  0.27343  1.0000
  S   S84       1.0  0.45376  0.08718  0.21760  1.0000
  Fe  Fe43      1.0  0.37566  0.08624  0.25021  1.0000
  S   S85       1.0  0.35768  0.05449  0.26190  1.0000
  Fe  Fe44      1.0  0.39435  0.12927  0.27609  1.0000
  S   S86       1.0  0.40563  0.14426  0.32014  1.0000
  S   S87       1.0  0.38999  0.09259  0.20423  1.0000
  S   S88       1.0  0.41004  0.13865  0.23133  1.0000
  Fe  Fe45      1.0  0.56985  0.12651  0.23673  1.0000
  S   S89       1.0  0.56680  0.10596  0.27852  1.0000
  S   S90       1.0  0.54077  0.14443  0.21609  1.0000
  Fe  Fe46      1.0  0.61962  0.11941  0.23199  1.0000
  S   S91       1.0  0.62053  0.09818  0.27447  1.0000
  S   S92       1.0  0.64886  0.13145  0.20296  1.0000
  Fe  Fe47      1.0  0.59036  0.08216  0.25601  1.0000
  S   S93       1.0  0.57846  0.04673  0.25341  1.0000
  Fe  Fe48      1.0  0.59677  0.12376  0.29416  1.0000
  S   S94       1.0  0.59103  0.13513  0.34252  1.0000
  S   S95       1.0  0.59116  0.10163  0.21261  1.0000
  S   S96       1.0  0.59816  0.14603  0.25333  1.0000
  Fe  Fe49      1.0  0.38055  0.22556  0.45888  1.0000
  S   S97       1.0  0.39801  0.25782  0.46615  1.0000
  S   S98       1.0  0.36936  0.21775  0.41154  1.0000
  H   H496      1.0  0.62145  0.18892  0.13415  1.0000
  H   H497      1.0  0.63342  0.15446  0.46098  1.0000
  H   H498      1.0  0.37641  0.14865  0.09641  1.0000
  H   H499      1.0  0.64627  0.08219  0.11592  1.0000
  H   H500      1.0  0.44669  0.03688  0.23507  1.0000
  Fe  Fe50      1.0  0.62235  0.22805  0.45926  1.0000
  S   S99       1.0  0.60922  0.26195  0.44732  1.0000
  S   S100      1.0  0.63755  0.20753  0.42149  1.0000
  C   C294      1.0  0.65328  0.09697  0.12501  1.0000
  S   S101      1.0  0.59378  0.21881  0.48989  1.0000
  H   H501      1.0  0.41357  0.11640  0.03737  1.0000
  H   H502      1.0  0.57693  0.20057  0.14821  1.0000
  H   H503      1.0  0.54585  0.17560  0.33658  1.0000
  C   C295      1.0  0.48038  0.25344  0.47290  1.0000
  C   C296      1.0  0.58440  0.17405  0.11622  1.0000
  H   H504      1.0  0.61503  0.16565  0.19547  1.0000
  H   H505      1.0  0.34871  0.17286  0.00961  1.0000
  H   H506      1.0  0.55628  0.19643  0.12134  1.0000
  H   H507      1.0  0.65876  0.13089  0.48605  1.0000
  C   C297      1.0  0.54388  0.19348  0.41789  1.0000
  S   S102      1.0  0.36279  0.14720  0.17230  1.0000
  H   H508      1.0  0.48188  0.00510  0.30590  1.0000
  C   C298      1.0  0.59343  0.02262  0.26398  1.0000
  C   C299      1.0  0.61500  0.02336  0.27450  1.0000
  H   H509      1.0  0.40644  0.18584  0.41389  1.0000
  H   H510      1.0  0.62298  0.03918  0.27661  1.0000
  H   H511      1.0  0.56480  0.11914  0.16149  1.0000
  C   C300      1.0  0.62409  0.18776  0.39952  1.0000
  C   C301      1.0  0.63234  0.18335  0.37052  1.0000
  C   C302      1.0  0.62243  0.16738  0.35262  1.0000
  C   C303      1.0  0.60450  0.15522  0.36391  1.0000
  C   C304      1.0  0.59653  0.15934  0.39317  1.0000
  C   C305      1.0  0.60603  0.17572  0.41071  1.0000
  H   H512      1.0  0.64643  0.19241  0.36173  1.0000
  H   H513      1.0  0.62881  0.16431  0.33023  1.0000
  H   H514      1.0  0.58269  0.14998  0.40212  1.0000
  H   H515      1.0  0.59950  0.17887  0.43295  1.0000
  C   C306      1.0  0.65620  0.12240  0.16638  1.0000
  H   H516      1.0  0.35362  0.07557  0.03625  1.0000
  H   H517      1.0  0.63563  0.09359  0.16756  1.0000
  H   H518      1.0  0.34916  0.25999  0.43532  1.0000
  C   C307      1.0  0.47779  0.10330  0.21586  1.0000
  C   C308      1.0  0.47708  0.12580  0.20767  1.0000
  C   C309      1.0  0.49654  0.13829  0.20736  1.0000
  C   C310      1.0  0.51670  0.12840  0.21550  1.0000
  C   C311      1.0  0.51738  0.10590  0.22351  1.0000
  C   C312      1.0  0.49802  0.09337  0.22346  1.0000
  H   H519      1.0  0.46155  0.13351  0.20155  1.0000
  H   H520      1.0  0.49596  0.15567  0.20098  1.0000
  H   H521      1.0  0.53287  0.09807  0.22957  1.0000
  H   H522      1.0  0.49874  0.07597  0.22968  1.0000
  C   C313      1.0  0.37169  0.02973  0.25231  1.0000
  C   C314      1.0  0.39078  0.03019  0.23412  1.0000
  H   H523      1.0  0.47712  0.04352  0.19894  1.0000
  H   H524      1.0  0.39710  0.04586  0.22583  1.0000
  C   C315      1.0  0.56828  0.18764  0.13596  1.0000
  C   C316      1.0  0.39474  0.16444  0.34539  1.0000
  C   C317      1.0  0.37615  0.17759  0.33905  1.0000
  C   C318      1.0  0.36861  0.19374  0.35957  1.0000
  C   C319      1.0  0.37942  0.19687  0.38675  1.0000
  C   C320      1.0  0.39795  0.18366  0.39312  1.0000
  C   C321      1.0  0.40558  0.16764  0.37252  1.0000
  H   H525      1.0  0.36763  0.17537  0.31831  1.0000
  H   H526      1.0  0.35618  0.01547  0.18693  1.0000
  H   H527      1.0  0.34020  0.25829  0.37158  1.0000
  H   H528      1.0  0.63588  0.14555  0.07116  1.0000
  H   H529      1.0  0.51337  0.02641  0.26030  1.0000
  N   N23       1.0  0.55563  0.22260  0.37758  1.0000
  C   C322      1.0  0.57632  0.22971  0.39276  1.0000
  C   C323      1.0  0.53900  0.21568  0.40153  1.0000
  C   C324      1.0  0.54588  0.24133  0.35923  1.0000
  C   C325      1.0  0.56143  0.20382  0.35692  1.0000
  C   C326      1.0  0.59488  0.23895  0.37203  1.0000
  C   C327      1.0  0.54106  0.26301  0.37618  1.0000
  H   H530      1.0  0.57248  0.24232  0.41005  1.0000
  H   H531      1.0  0.58379  0.21564  0.40543  1.0000
  H   H532      1.0  0.52202  0.21493  0.39265  1.0000
  H   H533      1.0  0.53758  0.22836  0.41924  1.0000
  H   H534      1.0  0.55669  0.24542  0.33947  1.0000
  H   H535      1.0  0.52995  0.23626  0.34960  1.0000
  H   H536      1.0  0.57311  0.20938  0.33884  1.0000
  H   H537      1.0  0.57084  0.19047  0.36853  1.0000
  H   H538      1.0  0.46577  0.25747  0.46032  1.0000
  H   H539      1.0  0.58957  0.25391  0.35922  1.0000
  H   H540      1.0  0.60884  0.24398  0.38597  1.0000
  H   H541      1.0  0.54335  0.17918  0.40267  1.0000
  H   H542      1.0  0.55631  0.27060  0.38441  1.0000
  H   H543      1.0  0.52923  0.26049  0.39520  1.0000
  H   H544      1.0  0.53338  0.27531  0.36069  1.0000
  H   H545      1.0  0.64130  0.16690  0.09680  1.0000
  H   H546      1.0  0.59592  0.15433  0.48195  1.0000
  C   C328      1.0  0.37953  0.11366  0.02197  1.0000
  H   H547      1.0  0.36028  0.30455  0.35925  1.0000
  H   H548      1.0  0.50734  0.11961  0.33205  1.0000
  H   H549      1.0  0.53934  0.20195  0.31866  1.0000
  C   C329      1.0  0.35810  0.14659  0.04096  1.0000
  Fe  Fe51      1.0  0.37080  0.26475  0.50060  1.0000
  C   C330      1.0  0.50632  0.01112  0.27071  1.0000
  H   H550      1.0  0.53097  0.19078  0.43561  1.0000
  N   N24       1.0  0.46353  0.01474  0.26619  1.0000
  C   C331      1.0  0.47684  0.02809  0.21293  1.0000
  H   H551      1.0  0.55995  0.19361  0.42924  1.0000
  H   H552      1.0  0.38298  0.09571  0.02594  1.0000
  C   C332      1.0  0.34120  0.11031  0.03887  1.0000
  C   C333      1.0  0.62777  0.15792  0.08615  1.0000
  H   H553      1.0  0.37260  0.15662  0.04639  1.0000
  H   H554      1.0  0.34883  0.00881  0.27689  1.0000
  C   C334      1.0  0.61804  0.17348  0.14738  1.0000
  S   S103      1.0  0.54699  0.26072  0.46117  1.0000
  H   H555      1.0  0.50300  0.26643  0.43913  1.0000
  H   H556      1.0  0.57422  0.16388  0.10138  1.0000
  C   C335      1.0  0.61324  0.18019  0.18014  1.0000
  N   N25       1.0  0.60100  0.15959  0.13231  1.0000
  H   H557      1.0  0.38969  0.12547  0.11347  1.0000
  C   C336      1.0  0.57296  0.12812  0.14243  1.0000
  C   C337      1.0  0.59013  0.14405  0.15483  1.0000
  H   H558      1.0  0.59288  0.18620  0.10105  1.0000
  H   H559      1.0  0.63418  0.16442  0.14838  1.0000
  H   H560      1.0  0.51299  0.11267  0.29331  1.0000
  H   H561      1.0  0.35425  0.20382  0.35437  1.0000
  H   H562      1.0  0.37810  0.30034  0.40678  1.0000
  H   H563      1.0  0.62343  0.13279  0.12035  1.0000
  H   H564      1.0  0.41989  0.15754  0.37781  1.0000
  H   H565      1.0  0.52627  0.19368  0.35360  1.0000
  H   H566      1.0  0.62532  0.18082  0.47485  1.0000
  C   C338      1.0  0.61285  0.14549  0.10920  1.0000
  C   C339      1.0  0.66793  0.17752  0.48217  1.0000
  H   H567      1.0  0.62571  0.19238  0.18687  1.0000
  C   C340      1.0  0.47816  0.24370  0.50145  1.0000
  H   H568      1.0  0.59674  0.18770  0.18401  1.0000
  H   H569      1.0  0.55844  0.17711  0.15173  1.0000
  H   H570      1.0  0.42802  0.01416  0.27410  1.0000
  H   H571      1.0  0.40038  0.13581  0.07851  1.0000
  N   N26       1.0  0.47303  0.14453  0.30628  1.0000
  C   C341      1.0  0.46251  0.16621  0.29623  1.0000
  C   C342      1.0  0.46843  0.14199  0.33948  1.0000
  C   C343      1.0  0.46220  0.12609  0.28977  1.0000
  C   C344      1.0  0.49739  0.14552  0.29848  1.0000
  C   C345      1.0  0.46275  0.17091  0.26211  1.0000
  C   C346      1.0  0.47837  0.15982  0.35928  1.0000
  C   C347      1.0  0.46319  0.10259  0.30388  1.0000
  C   C348      1.0  0.51221  0.12630  0.30976  1.0000
  H   H572      1.0  0.44493  0.16722  0.30408  1.0000
  H   H573      1.0  0.47076  0.18056  0.30625  1.0000
  H   H574      1.0  0.47434  0.12580  0.34846  1.0000
  H   H575      1.0  0.45026  0.14191  0.34407  1.0000
  H   H576      1.0  0.44430  0.12976  0.28674  1.0000
  H   H577      1.0  0.46936  0.12482  0.26688  1.0000
  H   H578      1.0  0.50005  0.14593  0.27375  1.0000
  H   H579      1.0  0.50471  0.16138  0.30552  1.0000
  H   H580      1.0  0.45385  0.15816  0.24974  1.0000
  H   H581      1.0  0.45399  0.18691  0.25775  1.0000
  H   H582      1.0  0.47975  0.17261  0.25272  1.0000
  H   H583      1.0  0.47512  0.15524  0.38317  1.0000
  H   H584      1.0  0.49653  0.16091  0.35606  1.0000
  H   H585      1.0  0.47041  0.17629  0.35565  1.0000
  H   H586      1.0  0.45180  0.10129  0.32367  1.0000
  H   H587      1.0  0.48001  0.09726  0.31002  1.0000
  H   H588      1.0  0.45739  0.09063  0.28726  1.0000
  H   H589      1.0  0.48489  0.03281  0.29491  1.0000
  H   H590      1.0  0.52924  0.13249  0.31252  1.0000
  C   C349      1.0  0.34053  0.08542  0.04776  1.0000
  C   C350      1.0  0.54199  0.19341  0.34056  1.0000
  S   S104      1.0  0.64566  0.30846  0.48726  1.0000
  C   C351      1.0  0.36647  0.30366  0.42573  1.0000
  H   H591      1.0  0.35467  0.11552  0.09134  1.0000
  H   H592      1.0  0.58152  0.15315  0.17315  1.0000
  C   C352      1.0  0.40166  0.01032  0.22646  1.0000
  C   C353      1.0  0.43967  0.04205  0.29806  1.0000
  N   N27       1.0  0.36260  0.12202  0.04448  1.0000
  C   C354      1.0  0.34175  0.13652  0.14976  1.0000
  H   H593      1.0  0.60097  0.13605  0.09589  1.0000
  H   H594      1.0  0.37089  0.31992  0.43509  1.0000
  C   C355      1.0  0.46384  0.03281  0.24229  1.0000
  H   H595      1.0  0.41622  0.01086  0.21200  1.0000
  C   C356      1.0  0.44328  0.01837  0.28606  1.0000
  H   H596      1.0  0.33690  0.11139  0.01477  1.0000
  H   H597      1.0  0.55962  0.13699  0.13041  1.0000
  H   H598      1.0  0.60301  0.13372  0.16609  1.0000
  H   H599      1.0  0.47037  0.04845  0.25132  1.0000
  H   H600      1.0  0.61274  0.13505  0.50204  1.0000
  H   H601      1.0  0.37739  0.09973  0.07738  1.0000
  H   H602      1.0  0.61820  0.16944  0.07167  1.0000
  C   C357      1.0  0.61004  0.15298  0.49738  1.0000
  C   C358      1.0  0.64721  0.10338  0.15430  1.0000
  H   H603      1.0  0.42445  0.04233  0.31244  1.0000
  C   C359      1.0  0.38495  0.13269  0.09141  1.0000
  C   C360      1.0  0.36944  0.11647  0.07613  1.0000
  H   H604      1.0  0.35703  0.00495  0.14996  1.0000
  H   H605      1.0  0.36893  0.29112  0.44369  1.0000
  H   H606      1.0  0.40164  0.14272  0.02565  1.0000
  H   H607      1.0  0.58080  0.11531  0.12803  1.0000
  H   H608      1.0  0.36403  0.28020  0.33759  1.0000
  H   H609      1.0  0.60177  0.22622  0.35672  1.0000
  S   S105      1.0  0.35294  0.23333  0.49208  1.0000
  C   C361      1.0  0.50155  0.25846  0.46093  1.0000
  H   H610      1.0  0.66124  0.19435  0.47653  1.0000
  H   H611      1.0  0.43689  0.05435  0.27975  1.0000
  H   H612      1.0  0.34061  0.10444  0.17150  1.0000
  N   N28       1.0  0.65104  0.16454  0.50036  1.0000
  H   H613      1.0  0.36385  0.26783  0.38921  1.0000
  C   C362      1.0  0.40232  0.12477  0.02130  1.0000
  C   C363      1.0  0.36359  0.00923  0.26279  1.0000
  H   H614      1.0  0.34132  0.08275  0.07235  1.0000
  H   H615      1.0  0.46853  0.01540  0.19962  1.0000
  C   C364      1.0  0.35233  0.28889  0.35308  1.0000
  C   C365      1.0  0.48355  0.01593  0.28556  1.0000
  C   C366      1.0  0.34762  0.27355  0.38042  1.0000
  H   H616      1.0  0.66277  0.16562  0.43616  1.0000
  S   S106      1.0  0.40028  0.20630  0.49309  1.0000
  H   H617      1.0  0.49420  0.02313  0.21647  1.0000
  C   C367      1.0  0.35082  0.15453  0.00967  1.0000
  Fe  Fe52      1.0  0.62816  0.27455  0.48626  1.0000
  Fe  Fe53      1.0  0.58130  0.25346  0.47964  1.0000
  C   C368      1.0  0.52076  0.25365  0.47717  1.0000
  C   C369      1.0  0.63043  0.16376  0.48200  1.0000
  C   C370      1.0  0.34223  0.30463  0.41609  1.0000
  H   H618      1.0  0.34060  0.31819  0.39904  1.0000
  H   H619      1.0  0.33720  0.29255  0.34029  1.0000
  H   H620      1.0  0.34504  0.15192  0.05738  1.0000
  S   S107      1.0  0.64325  0.24107  0.49623  1.0000
  H   H621      1.0  0.33866  0.16673  0.12358  1.0000
  H   H622      1.0  0.65974  0.35372  0.49167  1.0000
  C   C371      1.0  0.66818  0.10957  0.10730  1.0000
  H   H623      1.0  0.44355  0.00716  0.30612  1.0000
  H   H624      1.0  0.51786  0.00495  0.28807  1.0000
  Fe  Fe54      1.0  0.41623  0.23907  0.50243  1.0000
  Fe  Fe55      1.0  0.37442  0.21716  0.52698  1.0000
  S   S108      1.0  0.39081  0.24901  0.53768  1.0000
  S   S109      1.0  0.35823  0.19531  0.56332  1.0000
  Fe  Fe56      1.0  0.61326  0.23497  0.52596  1.0000
  S   S110      1.0  0.59881  0.26911  0.51767  1.0000
  S   S111      1.0  0.61960  0.22581  0.57481  1.0000
  Fe  Fe57      1.0  0.39321  0.09416  0.73690  1.0000
  S   S112      1.0  0.39206  0.09868  0.78673  1.0000
  S   S113      1.0  0.40144  0.06221  0.71304  1.0000
  Fe  Fe58      1.0  0.39477  0.14418  0.72271  1.0000
  S   S114      1.0  0.39385  0.15267  0.77162  1.0000
  S   S115      1.0  0.40389  0.17009  0.68685  1.0000
  Fe  Fe59      1.0  0.41787  0.12447  0.77797  1.0000
  S   S116      1.0  0.44711  0.12437  0.80835  1.0000
  Fe  Fe60      1.0  0.36792  0.12638  0.77713  1.0000
  C   C372      1.0  0.36920  0.10845  0.63085  1.0000
  S   S117      1.0  0.42098  0.11796  0.72916  1.0000
  S   S118      1.0  0.36689  0.11995  0.72714  1.0000
  Fe  Fe61      1.0  0.57944  0.09773  0.74734  1.0000
  S   S119      1.0  0.57921  0.12179  0.78526  1.0000
  S   S120      1.0  0.56450  0.06398  0.75637  1.0000
  Fe  Fe62      1.0  0.59623  0.13262  0.70082  1.0000
  S   S121      1.0  0.59788  0.15888  0.73567  1.0000
  S   S122      1.0  0.60007  0.13701  0.64994  1.0000
  Fe  Fe63      1.0  0.61224  0.13209  0.76598  1.0000
  S   S123      1.0  0.64402  0.13583  0.79209  1.0000
  Fe  Fe64      1.0  0.56487  0.14603  0.75198  1.0000
  S   S124      1.0  0.53453  0.16814  0.75570  1.0000
  S   S125      1.0  0.61316  0.10655  0.72948  1.0000
  S   S126      1.0  0.56252  0.12124  0.71577  1.0000
  C   C373      1.0  0.58104  0.03975  0.75394  1.0000
  H   H625      1.0  0.40958  0.14060  0.92666  1.0000
  C   C374      1.0  0.60290  0.04056  0.74336  1.0000
  H   H626      1.0  0.37027  0.08916  0.67363  1.0000
  H   H627      1.0  0.60977  0.05612  0.73556  1.0000
  C   C375      1.0  0.64781  0.13308  0.83140  1.0000
  C   C376      1.0  0.63015  0.12953  0.85157  1.0000
  H   H628      1.0  0.66236  0.05748  0.89429  1.0000
  H   H629      1.0  0.61348  0.12906  0.84343  1.0000
  C   C377      1.0  0.47125  0.13669  0.79352  1.0000
  C   C378      1.0  0.49116  0.13394  0.80868  1.0000
  C   C379      1.0  0.51082  0.14287  0.79665  1.0000
  C   C380      1.0  0.51047  0.15533  0.76996  1.0000
  C   C381      1.0  0.49047  0.15849  0.75514  1.0000
  C   C382      1.0  0.47095  0.14891  0.76663  1.0000
  H   H630      1.0  0.49145  0.12465  0.82962  1.0000
  H   H631      1.0  0.52615  0.14062  0.80838  1.0000
  H   H632      1.0  0.49006  0.16831  0.73470  1.0000
  H   H633      1.0  0.45562  0.15129  0.75493  1.0000
  C   C383      1.0  0.38851  0.03700  0.72304  1.0000
  C   C384      1.0  0.40047  0.01705  0.71984  1.0000
  C   C385      1.0  0.65847  0.14101  0.50670  1.0000
  H   H634      1.0  0.41768  0.01742  0.71282  1.0000
  H   H635      1.0  0.53313  0.23980  0.51828  1.0000
  H   H636      1.0  0.36715  0.28903  0.56592  1.0000
  C   C386      1.0  0.61282  0.20141  0.59559  1.0000
  C   C387      1.0  0.61915  0.19960  0.62563  1.0000
  C   C388      1.0  0.61502  0.18016  0.64270  1.0000
  C   C389      1.0  0.60472  0.16220  0.62977  1.0000
  C   C390      1.0  0.59816  0.16409  0.59980  1.0000
  C   C391      1.0  0.60192  0.18371  0.58289  1.0000
  H   H637      1.0  0.62755  0.21320  0.63571  1.0000
  H   H638      1.0  0.62028  0.17887  0.66566  1.0000
  H   H639      1.0  0.59005  0.15032  0.58967  1.0000
  H   H640      1.0  0.59655  0.18510  0.56004  1.0000
  C   C392      1.0  0.37084  0.18899  0.59794  1.0000
  C   C393      1.0  0.35904  0.17689  0.62013  1.0000
  C   C394      1.0  0.36870  0.17128  0.64775  1.0000
  C   C395      1.0  0.39033  0.17766  0.65334  1.0000
  C   C396      1.0  0.40194  0.19008  0.63135  1.0000
  C   C397      1.0  0.39230  0.19567  0.60377  1.0000
  H   H641      1.0  0.40975  0.12347  0.99842  1.0000
  H   H642      1.0  0.48349  0.05931  0.80369  1.0000
  H   H643      1.0  0.41864  0.19518  0.63549  1.0000
  H   H644      1.0  0.40157  0.20501  0.58694  1.0000
  C   C398      1.0  0.37830  0.17415  0.91652  1.0000
  C   C399      1.0  0.37910  0.16388  0.85162  1.0000
  H   H645      1.0  0.39536  0.19709  0.88671  1.0000
  C   C400      1.0  0.41955  0.13710  0.90610  1.0000
  H   H646      1.0  0.40506  0.09688  0.66578  1.0000
  N   N29       1.0  0.53834  0.19017  0.66549  1.0000
  C   C401      1.0  0.56013  0.18598  0.68054  1.0000
  C   C402      1.0  0.52622  0.16846  0.66598  1.0000
  C   C403      1.0  0.52558  0.20717  0.68365  1.0000
  C   C404      1.0  0.54332  0.19874  0.63415  1.0000
  C   C405      1.0  0.57420  0.20661  0.68617  1.0000
  C   C406      1.0  0.53707  0.14972  0.64750  1.0000
  C   C407      1.0  0.50032  0.20840  0.67996  1.0000
  C   C408      1.0  0.52382  0.20117  0.61266  1.0000
  H   H647      1.0  0.55757  0.17743  0.70255  1.0000
  H   H648      1.0  0.57079  0.17456  0.66730  1.0000
  H   H649      1.0  0.50917  0.17033  0.65778  1.0000
  H   H650      1.0  0.52410  0.16216  0.68951  1.0000
  H   H651      1.0  0.52798  0.20408  0.70810  1.0000
  H   H652      1.0  0.53195  0.22413  0.67883  1.0000
  H   H653      1.0  0.55075  0.21548  0.63478  1.0000
  H   H654      1.0  0.55651  0.18861  0.62286  1.0000
  H   H655      1.0  0.58974  0.20115  0.69698  1.0000
  H   H656      1.0  0.57912  0.21535  0.66510  1.0000
  H   H657      1.0  0.56583  0.21826  0.70180  1.0000
  H   H658      1.0  0.52611  0.13510  0.64833  1.0000
  H   H659      1.0  0.53953  0.15453  0.62361  1.0000
  H   H660      1.0  0.55297  0.14408  0.65689  1.0000
  H   H661      1.0  0.49215  0.19373  0.69040  1.0000
  H   H662      1.0  0.49536  0.21031  0.65643  1.0000
  H   H663      1.0  0.49367  0.22308  0.69206  1.0000
  H   H664      1.0  0.51631  0.21806  0.61380  1.0000
  H   H665      1.0  0.51082  0.18869  0.61626  1.0000
  H   H666      1.0  0.52999  0.19861  0.58933  1.0000
  H   H667      1.0  0.62444  0.09282  0.80726  1.0000
  C   C409      1.0  0.43194  0.11378  0.64389  1.0000
  H   H668      1.0  0.38998  0.14351  0.55885  1.0000
  H   H669      1.0  0.35816  0.10737  0.90671  1.0000
  H   H670      1.0  0.62026  0.12423  0.89789  1.0000
  C   C410      1.0  0.62137  0.29906  0.58621  1.0000
  H   H671      1.0  0.48698  0.02894  0.78032  1.0000
  C   C411      1.0  0.64358  0.06576  0.85473  1.0000
  C   C412      1.0  0.34409  0.28535  0.60467  1.0000
  H   H672      1.0  0.49697  0.05252  0.72021  1.0000
  H   H673      1.0  0.49586  0.23124  0.53967  1.0000
  H   H674      1.0  0.35678  0.05162  0.73400  1.0000
  H   H675      1.0  0.35982  0.24135  0.58991  1.0000
  H   H676      1.0  0.45189  0.04720  0.77288  1.0000
  H   H677      1.0  0.37306  0.11415  0.99879  1.0000
  H   H678      1.0  0.48435  0.10250  0.70775  1.0000
  H   H679      1.0  0.66002  0.03162  0.81572  1.0000
  H   H680      1.0  0.34235  0.17179  0.61589  1.0000
  C   C413      1.0  0.41806  0.17319  0.84712  1.0000
  H   H681      1.0  0.60614  0.28897  0.58748  1.0000
  H   H682      1.0  0.50756  0.08418  0.69857  1.0000
  H   H683      1.0  0.63283  0.18993  0.52503  1.0000
  H   H684      1.0  0.66243  0.06131  0.76131  1.0000
  H   H685      1.0  0.34596  0.28768  0.62900  1.0000
  C   C414      1.0  0.39942  0.08716  0.60518  1.0000
  N   N30       1.0  0.39340  0.10798  0.62201  1.0000
  H   H686      1.0  0.66614  0.03769  0.86521  1.0000
  H   H687      1.0  0.36471  0.12462  0.64121  1.0000
  C   C415      1.0  0.60044  0.07240  0.82893  1.0000
  C   C416      1.0  0.36621  0.03634  0.73186  1.0000
  H   H688      1.0  0.34221  0.23246  0.65268  1.0000
  H   H689      1.0  0.50303  0.01640  0.75207  1.0000
  H   H690      1.0  0.51832  0.05086  0.74567  1.0000
  C   C417      1.0  0.35420  0.24143  0.63786  1.0000
  H   H691      1.0  0.36324  0.15048  0.99192  1.0000
  H   H692      1.0  0.35947  0.16201  0.66466  1.0000
  C   C418      1.0  0.63406  0.12678  0.88245  1.0000
  H   H693      1.0  0.44065  0.11159  0.66538  1.0000
  H   H694      1.0  0.43891  0.10147  0.62806  1.0000
  H   H695      1.0  0.52238  0.08914  0.74961  1.0000
  H   H696      1.0  0.35489  0.18288  0.82662  1.0000
  H   H697      1.0  0.46297  0.09500  0.75282  1.0000
  H   H698      1.0  0.40087  0.12558  0.66226  1.0000
  H   H699      1.0  0.38298  0.17779  0.93981  1.0000
  H   H700      1.0  0.63990  0.26857  0.59073  1.0000
  N   N31       1.0  0.40043  0.16452  0.86851  1.0000
  C   C419      1.0  0.50437  0.09207  0.74666  1.0000
  H   H701      1.0  0.41414  0.09017  0.59032  1.0000
  H   H702      1.0  0.39044  0.13116  0.88215  1.0000
  H   H703      1.0  0.64832  0.29337  0.64380  1.0000
  C   C420      1.0  0.49739  0.23873  0.51756  1.0000
  C   C421      1.0  0.37117  0.18578  0.83682  1.0000
  H   H704      1.0  0.35852  0.25729  0.64799  1.0000
  H   H705      1.0  0.36862  0.19918  0.85322  1.0000
  N   N32       1.0  0.64241  0.06318  0.82127  1.0000
  C   C422      1.0  0.39781  0.17970  0.89479  1.0000
  C   C423      1.0  0.40692  0.11085  0.64961  1.0000
  H   H706      1.0  0.39601  0.14347  0.61421  1.0000
  H   H707      1.0  0.38254  0.11487  0.56091  1.0000
  H   H708      1.0  0.65752  0.31979  0.62860  1.0000
  N   N33       1.0  0.49105  0.07283  0.75904  1.0000
  H   H709      1.0  0.61811  0.06891  0.78688  1.0000
  C   C424      1.0  0.44940  0.06533  0.77107  1.0000
  H   H710      1.0  0.62340  0.30647  0.60839  1.0000
  H   H711      1.0  0.50023  0.10741  0.75909  1.0000
  H   H712      1.0  0.62910  0.05858  0.86675  1.0000
  C   C425      1.0  0.40535  0.06625  0.62413  1.0000
  H   H713      1.0  0.63293  0.02188  0.73471  1.0000
  C   C426      1.0  0.57215  0.01929  0.76322  1.0000
  H   H714      1.0  0.59667  0.05517  0.83567  1.0000
  H   H715      1.0  0.43474  0.14703  0.90626  1.0000
  H   H716      1.0  0.41414  0.13185  0.85889  1.0000
  H   H717      1.0  0.43553  0.13083  0.63551  1.0000
  H   H718      1.0  0.36524  0.15820  0.86638  1.0000
  H   H719      1.0  0.62202  0.02642  0.84943  1.0000
  H   H720      1.0  0.33614  0.00588  0.85098  1.0000
  C   C427      1.0  0.40575  0.14078  0.87772  1.0000
  C   C428      1.0  0.64344  0.03925  0.81202  1.0000
  H   H721      1.0  0.55519  0.01853  0.77128  1.0000
  H   H722      1.0  0.46409  0.07238  0.72773  1.0000
  C   C429      1.0  0.61596  0.02113  0.74275  1.0000
  H   H723      1.0  0.45293  0.18003  0.84072  1.0000
  S   S127      1.0  0.65937  0.12346  0.93275  1.0000
  H   H724      1.0  0.36309  0.11018  0.85122  1.0000
  C   C430      1.0  0.51717  0.06919  0.80394  1.0000
  C   C431      1.0  0.35583  0.01578  0.73660  1.0000
  H   H725      1.0  0.38032  0.15127  0.83370  1.0000
  H   H726      1.0  0.48676  0.08814  0.80214  1.0000
  H   H727      1.0  0.44802  0.15447  0.85965  1.0000
  H   H728      1.0  0.37330  0.15653  0.91625  1.0000
  H   H729      1.0  0.37488  0.30315  0.59847  1.0000
  C   C432      1.0  0.50160  0.09781  0.71311  1.0000
  H   H730      1.0  0.64887  0.08814  0.76510  1.0000
  H   H731      1.0  0.44416  0.18063  0.87915  1.0000
  H   H732      1.0  0.65785  0.19278  0.56799  1.0000
  C   C433      1.0  0.66419  0.05563  0.86963  1.0000
  H   H733      1.0  0.36991  0.23166  0.63736  1.0000
  C   C434      1.0  0.44201  0.17188  0.85785  1.0000
  H   H734      1.0  0.40015  0.05131  0.61208  1.0000
  H   H735      1.0  0.36128  0.07366  0.64161  1.0000
  H   H736      1.0  0.58625  0.07855  0.81570  1.0000
  H   H737      1.0  0.36380  0.18503  0.91168  1.0000
  C   C435      1.0  0.65562  0.12734  0.89358  1.0000
  H   H738      1.0  0.35869  0.10712  0.61090  1.0000
  H   H739      1.0  0.60109  0.08285  0.84912  1.0000
  C   C436      1.0  0.49348  0.07244  0.79258  1.0000
  H   H740      1.0  0.41492  0.19096  0.84132  1.0000
  H   H741      1.0  0.42471  0.11937  0.90751  1.0000
  C   C437      1.0  0.38310  0.13031  0.57392  1.0000
  H   H742      1.0  0.52498  0.05368  0.79559  1.0000
  H   H743      1.0  0.66338  0.24806  0.55949  1.0000
  C   C438      1.0  0.36747  0.28759  0.59065  1.0000
  S   S128      1.0  0.35332  0.29911  0.50475  1.0000
  C   C439      1.0  0.62587  0.02355  0.82553  1.0000
  H   H744      1.0  0.41511  0.12761  0.59285  1.0000
  C   C440      1.0  0.39775  0.12781  0.60163  1.0000
  H   H745      1.0  0.41784  0.16412  0.82561  1.0000
  C   C441      1.0  0.49997  0.05201  0.74467  1.0000
  C   C442      1.0  0.34861  0.11738  0.86207  1.0000
  H   H746      1.0  0.34427  0.26295  0.55181  1.0000
  H   H747      1.0  0.41313  0.18009  0.90793  1.0000
  H   H748      1.0  0.43300  0.06821  0.76100  1.0000
  H   H749      1.0  0.42353  0.06446  0.62623  1.0000
  C   C443      1.0  0.62184  0.07462  0.80972  1.0000
  C   C444      1.0  0.64516  0.17635  0.52914  1.0000
  C   C445      1.0  0.66260  0.07738  0.77291  1.0000
  H   H750      1.0  0.37861  0.27376  0.59749  1.0000
  H   H751      1.0  0.39740  0.06519  0.64658  1.0000
  H   H752      1.0  0.51657  0.06785  0.82877  1.0000
  C   C446      1.0  0.66339  0.31781  0.56819  1.0000
  H   H753      1.0  0.38239  0.19125  0.81826  1.0000
  C   C447      1.0  0.49047  0.02972  0.75597  1.0000
  C   C448      1.0  0.66408  0.18748  0.54560  1.0000
  H   H754      1.0  0.64167  0.03810  0.78743  1.0000
  H   H755      1.0  0.64297  0.08368  0.86037  1.0000
  C   C449      1.0  0.46714  0.07697  0.75131  1.0000
  H   H756      1.0  0.38586  0.08271  0.59005  1.0000
  C   C450      1.0  0.34554  0.24367  0.60573  1.0000
  C   C451      1.0  0.64100  0.28399  0.57671  1.0000
  H   H757      1.0  0.52776  0.08357  0.79814  1.0000
  H   H758      1.0  0.63703  0.16482  0.54559  1.0000
  H   H759      1.0  0.61845  0.31234  0.56913  1.0000
  H   H760      1.0  0.63722  0.27887  0.55355  1.0000
  H   H761      1.0  0.64618  0.13240  0.52152  1.0000
  H   H762      1.0  0.44830  0.07257  0.79375  1.0000
  H   H763      1.0  0.36611  0.13596  0.58019  1.0000
  H   H764      1.0  0.51187  0.11247  0.70733  1.0000
  S   S129      1.0  0.45195  0.23784  0.51850  1.0000
  H   H765      1.0  0.47535  0.02556  0.74372  1.0000
  S   S130      1.0  0.33701  0.13373  0.80567  1.0000
  H   H766      1.0  0.65624  0.31969  0.54560  1.0000
  C   C452      1.0  0.34576  0.11580  0.89351  1.0000
  H   H767      1.0  0.61049  0.02445  0.81243  1.0000
  H   H768      1.0  0.60481  0.16146  0.51820  1.0000
  C   C453      1.0  0.66228  0.07463  0.80735  1.0000
  H   H769      1.0  0.34356  0.09359  0.65900  1.0000
  H   H770      1.0  0.33841  0.01536  0.74243  1.0000
  H   H771      1.0  0.63234  0.00623  0.82471  1.0000
  C   C454      1.0  0.36106  0.09003  0.65253  1.0000
  H   H772      1.0  0.66394  0.09153  0.81657  1.0000
  H   H773      1.0  0.65219  0.32784  0.58263  1.0000
  N   N34       1.0  0.66390  0.29365  0.57765  1.0000
  H   H774      1.0  0.33916  0.34490  0.50805  1.0000
  C   C455      1.0  0.51856  0.24356  0.50548  1.0000
  C   C456      1.0  0.66268  0.30265  0.63437  1.0000
  Fe  Fe65      1.0  0.41671  0.88458  0.23991  1.0000
  S   S131      1.0  0.41599  0.91016  0.27551  1.0000
  S   S132      1.0  0.44889  0.86543  0.23301  1.0000
  Fe  Fe66      1.0  0.36839  0.89364  0.22392  1.0000
  S   S133      1.0  0.36469  0.91957  0.25962  1.0000
  H   H775      1.0  0.35252  0.84568  0.01175  1.0000
  Fe  Fe67      1.0  0.39761  0.93133  0.24252  1.0000
  S   S134      1.0  0.40904  0.96565  0.22871  1.0000
  Fe  Fe68      1.0  0.38335  0.89554  0.28937  1.0000
  S   S135      1.0  0.37683  0.89144  0.33975  1.0000
  S   S136      1.0  0.40057  0.90667  0.20553  1.0000
  S   S137      1.0  0.38471  0.86868  0.25517  1.0000
  Fe  Fe69      1.0  0.61413  0.92591  0.27725  1.0000
  S   S138      1.0  0.59167  0.92605  0.23841  1.0000
  S   S139      1.0  0.63055  0.95814  0.28870  1.0000
  Fe  Fe70      1.0  0.60757  0.87659  0.28965  1.0000
  S   S140      1.0  0.58441  0.87354  0.25090  1.0000
  S   S141      1.0  0.61232  0.84447  0.31672  1.0000
  Fe  Fe71      1.0  0.60889  0.89463  0.22474  1.0000
  S   S142      1.0  0.61388  0.89320  0.17391  1.0000
  Fe  Fe72      1.0  0.56939  0.90525  0.26762  1.0000
  S   S143      1.0  0.53393  0.91735  0.27077  1.0000
  S   S144      1.0  0.63321  0.89551  0.26203  1.0000
  S   S145      1.0  0.59077  0.90714  0.30787  1.0000
  H   H776      1.0  0.50001  0.79622  0.46442  1.0000
  S   S146      1.0  0.60515  0.77563  0.46989  1.0000
  S   S147      1.0  0.63253  0.83434  0.45583  1.0000
  Fe  Fe73      1.0  0.38661  0.79787  0.46911  1.0000
  S   S148      1.0  0.39086  0.76202  0.48388  1.0000
  S   S149      1.0  0.38583  0.80242  0.41823  1.0000
  H   H777      1.0  0.36386  0.94991  0.19859  1.0000
  C   C457      1.0  0.52880  0.83813  0.43897  1.0000
  H   H778      1.0  0.36378  0.88099  0.09207  1.0000
  N   N35       1.0  0.33876  0.96211  0.16828  1.0000
  H   H779      1.0  0.54262  0.91387  0.09792  1.0000
  H   H780      1.0  0.56793  0.82579  0.46075  1.0000
  C   C458      1.0  0.61804  0.84214  0.35539  1.0000
  C   C459      1.0  0.62550  0.86007  0.37164  1.0000
  C   C460      1.0  0.63016  0.85733  0.40228  1.0000
  C   C461      1.0  0.62686  0.83687  0.41714  1.0000
  C   C462      1.0  0.61909  0.81904  0.40100  1.0000
  C   C463      1.0  0.61512  0.82156  0.37016  1.0000
  H   H781      1.0  0.62793  0.87596  0.36052  1.0000
  H   H782      1.0  0.63616  0.87124  0.41458  1.0000
  H   H783      1.0  0.61616  0.80333  0.41221  1.0000
  H   H784      1.0  0.60934  0.80761  0.35776  1.0000
  C   C464      1.0  0.63928  0.89223  0.15329  1.0000
  S   S150      1.0  0.54328  0.78446  0.48454  1.0000
  C   C465      1.0  0.35899  0.94804  0.17486  1.0000
  C   C466      1.0  0.39395  0.98990  0.23763  1.0000
  C   C467      1.0  0.61801  0.96720  0.18684  1.0000
  C   C468      1.0  0.61593  0.98292  0.27983  1.0000
  C   C469      1.0  0.59432  0.98230  0.26956  1.0000
  H   H785      1.0  0.34936  0.97533  0.12450  1.0000
  H   H786      1.0  0.58595  0.96669  0.26831  1.0000
  C   C470      1.0  0.51080  0.90210  0.26060  1.0000
  C   C471      1.0  0.49064  0.91347  0.25767  1.0000
  C   C472      1.0  0.47179  0.90238  0.24867  1.0000
  C   C473      1.0  0.47278  0.87967  0.24313  1.0000
  C   C474      1.0  0.49303  0.86823  0.24587  1.0000
  C   C475      1.0  0.51202  0.87941  0.25476  1.0000
  H   H787      1.0  0.48973  0.93106  0.26182  1.0000
  H   H788      1.0  0.45662  0.91159  0.24537  1.0000
  H   H789      1.0  0.49396  0.85067  0.24139  1.0000
  H   H790      1.0  0.52750  0.87051  0.25734  1.0000
  C   C476      1.0  0.38235  0.82736  0.39709  1.0000
  C   C477      1.0  0.38161  0.82624  0.36570  1.0000
  C   C478      1.0  0.37956  0.84563  0.34785  1.0000
  C   C479      1.0  0.37813  0.86641  0.36124  1.0000
  C   C480      1.0  0.37837  0.86748  0.39267  1.0000
  C   C481      1.0  0.38059  0.84809  0.41053  1.0000
  H   H791      1.0  0.54167  0.89863  0.20820  1.0000
  H   H792      1.0  0.55264  0.85719  0.17165  1.0000
  H   H793      1.0  0.37716  0.88347  0.40326  1.0000
  H   H794      1.0  0.38106  0.84921  0.43466  1.0000
  S   S151      1.0  0.33714  0.88946  0.19689  1.0000
  H   H795      1.0  0.54971  0.87809  0.12966  1.0000
  H   H796      1.0  0.63309  0.93593  0.19969  1.0000
  H   H797      1.0  0.44360  0.97306  0.28730  1.0000
  H   H798      1.0  0.57504  0.88959  0.14046  1.0000
  H   H799      1.0  0.36872  0.97366  0.26435  1.0000
  N   N36       1.0  0.44836  0.85632  0.34452  1.0000
  C   C482      1.0  0.44029  0.87371  0.36626  1.0000
  C   C483      1.0  0.44570  0.83402  0.35998  1.0000
  C   C484      1.0  0.43426  0.85787  0.31691  1.0000
  C   C485      1.0  0.47218  0.86107  0.33642  1.0000
  C   C486      1.0  0.43916  0.89776  0.35394  1.0000
  C   C487      1.0  0.45803  0.83055  0.38958  1.0000
  C   C488      1.0  0.42980  0.83613  0.30038  1.0000
  C   C489      1.0  0.48456  0.84348  0.31778  1.0000
  H   H800      1.0  0.42347  0.86960  0.37514  1.0000
  H   H801      1.0  0.45102  0.87425  0.38610  1.0000
  H   H802      1.0  0.45111  0.82026  0.34525  1.0000
  H   H803      1.0  0.42789  0.83100  0.36516  1.0000
  H   H804      1.0  0.41751  0.86463  0.32246  1.0000
  H   H805      1.0  0.44129  0.86986  0.30013  1.0000
  H   H806      1.0  0.47355  0.87683  0.32318  1.0000
  H   H807      1.0  0.48187  0.86366  0.35689  1.0000
  H   H808      1.0  0.42734  0.89964  0.33555  1.0000
  H   H809      1.0  0.43292  0.90875  0.37205  1.0000
  H   H810      1.0  0.45556  0.90401  0.34655  1.0000
  H   H811      1.0  0.47595  0.83375  0.38702  1.0000
  H   H812      1.0  0.45063  0.84069  0.40782  1.0000
  H   H813      1.0  0.45627  0.81297  0.39706  1.0000
  H   H814      1.0  0.44496  0.82673  0.29427  1.0000
  H   H815      1.0  0.42130  0.84017  0.27918  1.0000
  H   H816      1.0  0.41855  0.82526  0.31376  1.0000
  H   H817      1.0  0.48569  0.82723  0.32964  1.0000
  H   H818      1.0  0.50176  0.84908  0.31337  1.0000
  H   H819      1.0  0.47708  0.84162  0.29564  1.0000
  H   H820      1.0  0.65980  0.88558  0.19114  1.0000
  C   C490      1.0  0.55784  0.80468  0.40922  1.0000
  H   H821      1.0  0.37457  0.99313  0.17902  1.0000
  C   C491      1.0  0.50525  0.91107  0.17950  1.0000
  H   H822      1.0  0.65968  0.99239  0.17275  1.0000
  H   H823      1.0  0.64279  0.73976  0.40267  1.0000
  H   H824      1.0  0.34211  0.98135  0.20849  1.0000
  H   H825      1.0  0.56916  0.89511  0.39330  1.0000
  C   C492      1.0  0.55891  0.90701  0.10447  1.0000
  H   H826      1.0  0.34963  0.77769  0.44766  1.0000
  H   H827      1.0  0.55820  0.95717  0.19114  1.0000
  H   H828      1.0  0.58525  0.87695  0.41628  1.0000
  C   C493      1.0  0.56847  0.84264  0.45025  1.0000
  H   H829      1.0  0.51205  0.91826  0.19978  1.0000
  C   C494      1.0  0.63707  0.95386  0.20124  1.0000
  H   H830      1.0  0.51947  0.92290  0.13744  1.0000
  H   H831      1.0  0.47363  0.97064  0.28861  1.0000
  C   C495      1.0  0.34963  0.88364  0.10683  1.0000
  C   C496      1.0  0.54993  0.86826  0.41341  1.0000
  H   H832      1.0  0.52379  0.86355  0.47388  1.0000
  H   H833      1.0  0.61338  0.95986  0.16529  1.0000
  C   C497      1.0  0.55774  0.89407  0.13457  1.0000
  C   C498      1.0  0.63916  0.89580  0.12208  1.0000
  H   H834      1.0  0.53073  0.94895  0.18399  1.0000
  H   H835      1.0  0.53746  0.86908  0.39543  1.0000
  C   C499      1.0  0.49787  0.78589  0.48424  1.0000
  H   H836      1.0  0.36911  0.88385  0.14695  1.0000
  H   H837      1.0  0.62362  0.89849  0.11104  1.0000
  H   H838      1.0  0.54614  0.83220  0.38225  1.0000
  H   H839      1.0  0.49732  0.89502  0.18539  1.0000
  H   H840      1.0  0.46215  0.78670  0.48234  1.0000
  C   C500      1.0  0.51657  0.77783  0.49936  1.0000
  H   H841      1.0  0.50628  0.99779  0.25410  1.0000
  H   H842      1.0  0.64746  0.75837  0.44976  1.0000
  C   C501      1.0  0.51479  0.85570  0.45574  1.0000
  C   C502      1.0  0.65905  0.89614  0.10499  1.0000
  H   H843      1.0  0.38282  0.81027  0.35508  1.0000
  H   H844      1.0  0.56158  0.87571  0.47050  1.0000
  H   H845      1.0  0.37908  0.84453  0.32373  1.0000
  C   C503      1.0  0.54746  0.94249  0.18925  1.0000
  C   C504      1.0  0.57173  0.87744  0.39994  1.0000
  N   N37       1.0  0.54595  0.90556  0.16030  1.0000
  H   H846      1.0  0.66776  0.80250  0.46540  1.0000
  H   H847      1.0  0.55663  0.85203  0.49516  1.0000
  H   H848      1.0  0.56217  0.79532  0.38866  1.0000
  H   H849      1.0  0.54732  0.93414  0.21148  1.0000
  C   C505      1.0  0.55747  0.82974  0.40138  1.0000
  C   C506      1.0  0.35271  0.88525  0.13796  1.0000
  H   H850      1.0  0.52431  0.86624  0.17893  1.0000
  C   C507      1.0  0.54953  0.89141  0.18798  1.0000
  H   H851      1.0  0.34485  0.93222  0.12117  1.0000
  H   H852      1.0  0.38175  0.93853  0.13808  1.0000
  H   H853      1.0  0.63607  0.95717  0.22546  1.0000
  H   H854      1.0  0.44670  0.99243  0.23756  1.0000
  H   H855      1.0  0.35513  0.93017  0.17266  1.0000
  H   H856      1.0  0.60317  0.96654  0.20191  1.0000
  H   H857      1.0  0.57127  0.92042  0.10496  1.0000
  H   H858      1.0  0.58414  0.86097  0.48516  1.0000
  H   H859      1.0  0.54156  0.79864  0.41749  1.0000
  H   H860      1.0  0.57703  0.86875  0.37926  1.0000
  H   H861      1.0  0.49149  0.92225  0.17257  1.0000
  C   C508      1.0  0.65895  0.95288  0.15507  1.0000
  C   C509      1.0  0.37983  0.95189  0.15479  1.0000
  H   H862      1.0  0.36040  0.75709  0.40459  1.0000
  H   H863      1.0  0.54236  0.85940  0.20898  1.0000
  H   H864      1.0  0.34041  0.71549  0.47934  1.0000
  H   H865      1.0  0.47542  0.98849  0.23662  1.0000
  N   N38       1.0  0.65978  0.95817  0.18799  1.0000
  H   H866      1.0  0.57423  0.83349  0.39227  1.0000
  H   H867      1.0  0.33703  0.73874  0.40785  1.0000
  H   H868      1.0  0.57065  0.80033  0.42575  1.0000
  H   H869      1.0  0.45840  0.95703  0.26056  1.0000
  C   C510      1.0  0.45922  0.97239  0.27385  1.0000
  H   H870      1.0  0.65873  0.89904  0.08103  1.0000
  H   H871      1.0  0.55554  0.93813  0.14350  1.0000
  H   H872      1.0  0.58541  0.84332  0.44030  1.0000
  H   H873      1.0  0.51616  0.89366  0.14061  1.0000
  S   S152      1.0  0.64330  0.72509  0.49761  1.0000
  H   H874      1.0  0.56463  0.89556  0.08659  1.0000
  H   H875      1.0  0.54400  0.88053  0.43000  1.0000
  H   H876      1.0  0.65168  0.93626  0.15194  1.0000
  C   C511      1.0  0.64314  0.75816  0.40218  1.0000
  H   H877      1.0  0.57483  0.92524  0.16801  1.0000
  H   H878      1.0  0.53052  0.82370  0.45459  1.0000
  H   H879      1.0  0.38085  0.96821  0.14338  1.0000
  C   C512      1.0  0.55681  0.92769  0.16413  1.0000
  H   H880      1.0  0.65772  0.98272  0.24024  1.0000
  H   H881      1.0  0.56743  0.89061  0.19314  1.0000
  N   N39       1.0  0.55117  0.84508  0.42663  1.0000
  C   C513      1.0  0.54159  0.86726  0.18637  1.0000
  H   H882      1.0  0.51817  0.83233  0.42070  1.0000
  C   C514      1.0  0.52184  0.90840  0.15287  1.0000
  Fe  Fe74      1.0  0.61958  0.80681  0.48668  1.0000
  H   H883      1.0  0.35870  0.73730  0.43466  1.0000
  H   H884      1.0  0.62564  0.76392  0.40263  1.0000
  C   C515      1.0  0.46139  0.99238  0.25204  1.0000
  H   H885      1.0  0.50018  0.84749  0.46636  1.0000
  H   H886      1.0  0.64790  0.96477  0.14308  1.0000
  H   H887      1.0  0.43050  0.71412  0.50019  1.0000
  S   S153      1.0  0.41222  0.81034  0.50019  1.0000
  C   C516      1.0  0.65478  0.76707  0.42981  1.0000
  C   C517      1.0  0.37479  0.98934  0.25566  1.0000
  H   H888      1.0  0.39468  0.95042  0.16886  1.0000
  C   C518      1.0  0.56721  0.85879  0.47661  1.0000
  C   C519      1.0  0.47633  0.78049  0.49432  1.0000
  C   C520      1.0  0.65949  0.88865  0.16721  1.0000
  C   C521      1.0  0.34870  0.74876  0.42053  1.0000
  H   H889      1.0  0.50837  0.86863  0.44010  1.0000
  H   H890      1.0  0.64939  0.78454  0.43238  1.0000
  H   H891      1.0  0.34158  0.79838  0.40120  1.0000
  H   H892      1.0  0.40235  0.70859  0.49282  1.0000
  S   S154      1.0  0.35813  0.80428  0.50126  1.0000
  H   H893      1.0  0.35803  0.88401  0.00570  1.0000
  H   H894      1.0  0.62197  0.98494  0.18331  1.0000
  H   H895      1.0  0.66302  0.93985  0.24851  1.0000
  C   C522      1.0  0.66682  0.98195  0.19104  1.0000
  C   C523      1.0  0.35801  0.99999  0.17387  1.0000
  H   H896      1.0  0.56643  0.00134  0.25377  1.0000
  H   H897      1.0  0.66030  0.68099  0.48708  1.0000
  H   H898      1.0  0.65078  0.76410  0.38081  1.0000
  C   C524      1.0  0.65999  0.99370  0.22044  1.0000
  C   C525      1.0  0.58319  0.00202  0.26157  1.0000
  C   C526      1.0  0.33963  0.98399  0.18406  1.0000
  C   C527      1.0  0.33680  0.76594  0.44063  1.0000
  C   C528      1.0  0.62618  0.00354  0.28249  1.0000
  H   H899      1.0  0.34201  0.80756  0.00470  1.0000
  H   H900      1.0  0.64282  0.00419  0.29071  1.0000
  H   H901      1.0  0.64480  0.00397  0.21739  1.0000
  Fe  Fe75      1.0  0.61105  0.79313  0.55244  1.0000
  S   S155      1.0  0.59535  0.76106  0.53914  1.0000
  S   S156      1.0  0.61593  0.79769  0.60258  1.0000
  H   H902      1.0  0.60264  0.84574  0.81216  1.0000
  C   C529      1.0  0.47321  0.76652  0.51936  1.0000
  C   C530      1.0  0.58519  0.99980  0.76243  1.0000
  H   H903      1.0  0.34310  0.69650  0.56666  1.0000
  C   C531      1.0  0.35557  0.90146  0.86391  1.0000
  H   H904      1.0  0.35326  0.94862  0.63054  1.0000
  Fe  Fe76      1.0  0.38411  0.81404  0.53404  1.0000
  S   S157      1.0  0.38755  0.77946  0.55274  1.0000
  S   S158      1.0  0.38329  0.84610  0.56087  1.0000
  H   H905      1.0  0.40878  0.64936  0.57450  1.0000
  C   C532      1.0  0.60404  0.84673  0.83682  1.0000
  H   H906      1.0  0.63808  0.75730  0.57597  1.0000
  H   H907      1.0  0.62207  0.84578  0.84088  1.0000
  H   H908      1.0  0.36766  0.82484  0.66658  1.0000
  Fe  Fe77      1.0  0.38797  0.89210  0.72970  1.0000
  S   S159      1.0  0.41310  0.88898  0.76630  1.0000
  S   S160      1.0  0.37843  0.86231  0.70189  1.0000
  Fe  Fe78      1.0  0.37693  0.94035  0.74533  1.0000
  S   S161      1.0  0.40143  0.94086  0.78182  1.0000
  S   S162      1.0  0.35440  0.97021  0.73892  1.0000
  Fe  Fe79      1.0  0.42404  0.92266  0.74992  1.0000
  S   S163      1.0  0.45849  0.93537  0.73950  1.0000
  Fe  Fe80      1.0  0.38808  0.90746  0.79532  1.0000
  S   S164      1.0  0.38186  0.90309  0.84575  1.0000
  S   S165      1.0  0.40029  0.92480  0.71177  1.0000
  S   S166      1.0  0.36217  0.90787  0.76028  1.0000
  Fe  Fe81      1.0  0.60803  0.89912  0.72172  1.0000
  S   S167      1.0  0.60091  0.87904  0.76352  1.0000
  S   S168      1.0  0.60515  0.88889  0.67284  1.0000
  Fe  Fe82      1.0  0.61224  0.94213  0.75741  1.0000
  S   S169      1.0  0.60465  0.92536  0.80171  1.0000
  S   S170      1.0  0.62491  0.97729  0.75371  1.0000
  Fe  Fe83      1.0  0.62753  0.89849  0.78552  1.0000
  S   S171      1.0  0.65328  0.88244  0.81587  1.0000
  Fe  Fe84      1.0  0.57856  0.90740  0.77682  1.0000
  S   S172      1.0  0.54587  0.89685  0.79782  1.0000
  S   S173      1.0  0.63682  0.91611  0.74227  1.0000
  S   S174      1.0  0.58403  0.92664  0.73391  1.0000
  H   H909      1.0  0.42482  0.71559  0.55297  1.0000
  C   C533      1.0  0.64430  0.90554  0.86820  1.0000
  H   H910      1.0  0.63164  0.91441  0.85601  1.0000
  H   H911      1.0  0.36358  0.94884  0.83913  1.0000
  H   H912      1.0  0.35715  0.90469  0.63308  1.0000
  Fe  Fe85      1.0  0.57785  0.78167  0.50408  1.0000
  H   H913      1.0  0.62685  0.86158  0.88839  1.0000
  H   H914      1.0  0.57835  0.98414  0.76998  1.0000
  H   H915      1.0  0.36656  0.87193  0.94009  1.0000
  C   C534      1.0  0.48221  0.92514  0.75761  1.0000
  C   C535      1.0  0.48156  0.90635  0.77640  1.0000
  C   C536      1.0  0.50115  0.89798  0.78901  1.0000
  C   C537      1.0  0.52145  0.90826  0.78276  1.0000
  C   C538      1.0  0.52202  0.92720  0.76431  1.0000
  C   C539      1.0  0.50247  0.93562  0.75182  1.0000
  H   H916      1.0  0.46602  0.89818  0.78095  1.0000
  H   H917      1.0  0.50058  0.88336  0.80335  1.0000
  H   H918      1.0  0.53751  0.93543  0.75970  1.0000
  H   H919      1.0  0.50306  0.95018  0.73734  1.0000
  H   H920      1.0  0.41467  0.69033  0.58984  1.0000
  H   H921      1.0  0.35841  0.67030  0.56747  1.0000
  C   C540      1.0  0.40932  0.71492  0.54005  1.0000
  H   H922      1.0  0.53527  0.83797  0.86066  1.0000
  H   H923      1.0  0.65883  0.77880  0.60926  1.0000
  H   H924      1.0  0.52244  0.84582  0.68343  1.0000
  C   C541      1.0  0.38434  0.84906  0.60043  1.0000
  C   C542      1.0  0.39239  0.86887  0.61203  1.0000
  C   C543      1.0  0.39194  0.87267  0.64314  1.0000
  C   C544      1.0  0.38257  0.85706  0.66301  1.0000
  C   C545      1.0  0.37486  0.83709  0.65146  1.0000
  C   C546      1.0  0.37592  0.83300  0.62043  1.0000
  H   H925      1.0  0.39904  0.88136  0.59680  1.0000
  H   H926      1.0  0.39847  0.88786  0.65162  1.0000
  H   H927      1.0  0.36844  0.71233  0.59442  1.0000
  H   H928      1.0  0.36954  0.81775  0.61189  1.0000
  C   C547      1.0  0.61303  0.82320  0.62182  1.0000
  C   C548      1.0  0.60816  0.84314  0.60679  1.0000
  C   C549      1.0  0.60615  0.86305  0.62280  1.0000
  C   C550      1.0  0.60888  0.86332  0.65399  1.0000
  C   C551      1.0  0.61371  0.84337  0.66908  1.0000
  C   C552      1.0  0.61579  0.82344  0.65304  1.0000
  H   H929      1.0  0.60602  0.84327  0.58282  1.0000
  H   H930      1.0  0.60240  0.87837  0.61090  1.0000
  H   H931      1.0  0.61580  0.84330  0.69306  1.0000
  H   H932      1.0  0.61955  0.80812  0.66490  1.0000
  H   H933      1.0  0.48970  0.74760  0.55384  1.0000
  S   S175      1.0  0.44641  0.75786  0.53146  1.0000
  H   H934      1.0  0.55932  0.83905  0.83725  1.0000
  C   C553      1.0  0.38111  0.72013  0.57937  1.0000
  H   H935      1.0  0.53086  0.89884  0.64589  1.0000
  H   H936      1.0  0.63424  0.75531  0.63596  1.0000
  C   C554      1.0  0.53823  0.89947  0.66844  1.0000
  C   C555      1.0  0.55251  0.85162  0.65758  1.0000
  H   H937      1.0  0.38038  0.84180  0.91705  1.0000
  H   H938      1.0  0.56021  0.86420  0.64242  1.0000
  H   H939      1.0  0.62289  0.84523  0.92174  1.0000
  C   C556      1.0  0.39029  0.99655  0.72557  1.0000
  C   C557      1.0  0.54275  0.85810  0.73535  1.0000
  C   C558      1.0  0.64636  0.74108  0.58092  1.0000
  H   H940      1.0  0.35683  0.96621  0.80832  1.0000
  C   C559      1.0  0.41563  0.70539  0.50914  1.0000
  S   S176      1.0  0.66530  0.90286  0.95399  1.0000
  H   H941      1.0  0.36672  0.90088  0.97453  1.0000
  H   H942      1.0  0.62081  0.72186  0.56031  1.0000
  H   H943      1.0  0.54077  0.92500  0.70303  1.0000
  C   C560      1.0  0.65965  0.74345  0.66563  1.0000
  H   H944      1.0  0.59593  0.83182  0.84622  1.0000
  C   C561      1.0  0.40062  0.68453  0.57653  1.0000
  H   H945      1.0  0.55010  0.83657  0.64412  1.0000
  H   H946      1.0  0.38017  0.93565  0.62942  1.0000
  H   H947      1.0  0.56413  0.84692  0.67550  1.0000
  H   H948      1.0  0.37216  0.73343  0.56671  1.0000
  N   N40       1.0  0.34668  0.84721  0.96396  1.0000
  C   C562      1.0  0.52999  0.85973  0.67027  1.0000
  Fe  Fe86      1.0  0.62432  0.75801  0.50641  1.0000
  H   H949      1.0  0.52683  0.85943  0.74800  1.0000
  H   H950      1.0  0.36755  0.91380  0.90542  1.0000
  N   N41       1.0  0.58185  0.86941  0.87700  1.0000
  C   C563      1.0  0.58230  0.89256  0.88944  1.0000
  C   C564      1.0  0.59195  0.85409  0.90017  1.0000
  C   C565      1.0  0.55796  0.86348  0.87318  1.0000
  C   C566      1.0  0.59426  0.86927  0.84726  1.0000
  C   C567      1.0  0.56995  0.91077  0.87150  1.0000
  H   H951      1.0  0.37309  0.82290  0.96728  1.0000
  C   C568      1.0  0.55344  0.84035  0.86087  1.0000
  C   C569      1.0  0.39728  0.73171  0.60014  1.0000
  H   H952      1.0  0.57531  0.89279  0.91274  1.0000
  H   H953      1.0  0.59958  0.89837  0.89102  1.0000
  H   H954      1.0  0.59183  0.83654  0.89349  1.0000
  C   C570      1.0  0.35887  0.82695  0.95264  1.0000
  H   H955      1.0  0.54862  0.86502  0.89486  1.0000
  H   H956      1.0  0.54980  0.87515  0.85722  1.0000
  H   H957      1.0  0.58361  0.87594  0.82914  1.0000
  H   H958      1.0  0.55178  0.90967  0.87498  1.0000
  H   H959      1.0  0.57483  0.92733  0.87939  1.0000
  H   H960      1.0  0.57398  0.91020  0.84728  1.0000
  H   H961      1.0  0.37915  0.86047  0.97250  1.0000
  H   H962      1.0  0.34851  0.81196  0.95390  1.0000
  H   H963      1.0  0.61374  0.73015  0.59751  1.0000
  C   C571      1.0  0.37321  0.69622  0.53781  1.0000
  C   C572      1.0  0.62757  0.72403  0.58296  1.0000
  C   C573      1.0  0.51346  0.76424  0.52477  1.0000
  H   H964      1.0  0.56381  0.87719  0.70543  1.0000
  N   N42       1.0  0.53053  0.88051  0.68842  1.0000
  C   C574      1.0  0.54639  0.87810  0.71388  1.0000
  H   H965      1.0  0.55638  0.89819  0.66389  1.0000
  C   C575      1.0  0.50768  0.88476  0.70127  1.0000
  C   C576      1.0  0.53382  0.92294  0.68059  1.0000
  C   C577      1.0  0.48924  0.88884  0.67837  1.0000
  H   H966      1.0  0.54567  0.89307  0.72804  1.0000
  H   H967      1.0  0.51906  0.86218  0.65073  1.0000
  H   H968      1.0  0.50208  0.87046  0.71537  1.0000
  H   H969      1.0  0.50750  0.89865  0.71720  1.0000
  H   H970      1.0  0.55586  0.85797  0.75232  1.0000
  H   H971      1.0  0.49517  0.89630  0.65694  1.0000
  H   H972      1.0  0.54194  0.93527  0.66538  1.0000
  H   H973      1.0  0.51593  0.92718  0.68144  1.0000
  H   H974      1.0  0.48077  0.87312  0.67350  1.0000
  C   C578      1.0  0.36785  0.99583  0.73356  1.0000
  H   H975      1.0  0.47687  0.90080  0.68775  1.0000
  C   C579      1.0  0.61595  0.85927  0.90839  1.0000
  H   H976      1.0  0.65633  0.73712  0.56052  1.0000
  H   H977      1.0  0.39098  0.97808  0.82739  1.0000
  H   H978      1.0  0.37613  0.81275  0.91410  1.0000
  C   C580      1.0  0.35757  0.96586  0.83314  1.0000
  H   H979      1.0  0.56033  0.82673  0.87486  1.0000
  C   C581      1.0  0.37595  0.98206  0.84110  1.0000
  H   H980      1.0  0.61672  0.87415  0.92259  1.0000
  C   C582      1.0  0.36784  0.82867  0.92006  1.0000
  H   H981      1.0  0.35440  0.83147  0.90390  1.0000
  C   C583      1.0  0.40977  0.66424  0.55952  1.0000
  N   N43       1.0  0.66095  0.74287  0.60774  1.0000
  C   C584      1.0  0.36295  0.86605  0.96346  1.0000
  C   C585      1.0  0.35595  0.88681  0.98130  1.0000
  H   H982      1.0  0.38794  0.74433  0.61334  1.0000
  C   C586      1.0  0.35335  0.90767  0.89404  1.0000
  H   H983      1.0  0.63744  0.72630  0.63809  1.0000
  H   H984      1.0  0.38859  0.67862  0.59403  1.0000
  C   C587      1.0  0.49190  0.75845  0.53451  1.0000
  C   C588      1.0  0.65760  0.88975  0.85359  1.0000
  H   H985      1.0  0.34497  0.92873  0.70634  1.0000
  H   H986      1.0  0.39972  0.98129  0.72309  1.0000
  C   C589      1.0  0.66345  0.89818  0.91510  1.0000
  H   H987      1.0  0.38073  0.98021  0.86483  1.0000
  H   H988      1.0  0.54404  0.84204  0.72377  1.0000
  H   H989      1.0  0.37007  0.94756  0.66345  1.0000
  C   C590      1.0  0.35539  0.91553  0.65280  1.0000
  C   C591      1.0  0.64704  0.74178  0.63618  1.0000
  N   N44       1.0  0.39126  0.70344  0.55809  1.0000
  H   H990      1.0  0.40010  0.65989  0.53986  1.0000
  H   H991      1.0  0.36669  0.90806  0.66964  1.0000
  S   S177      1.0  0.64050  0.78911  0.52103  1.0000
  H   H992      1.0  0.40463  0.73254  0.53539  1.0000
  H   H993      1.0  0.37940  0.68479  0.52031  1.0000
  H   H994      1.0  0.60850  0.88069  0.84775  1.0000
  H   H995      1.0  0.64791  0.74055  0.68474  1.0000
  S   S178      1.0  0.59179  0.81382  0.51957  1.0000
  H   H996      1.0  0.58187  0.85439  0.92137  1.0000
  H   H997      1.0  0.33731  0.93152  0.80695  1.0000
  H   H998      1.0  0.52765  0.75781  0.53654  1.0000
  H   H999      1.0  0.34240  0.67822  0.53598  1.0000
  H   H1000     1.0  0.40476  0.71995  0.61647  1.0000
  Fe  Fe87      1.0  0.41446  0.77527  0.51737  1.0000
  C   C592      1.0  0.36503  0.93827  0.64351  1.0000
  H   H1001     1.0  0.36671  0.71081  0.52500  1.0000
  H   H1002     1.0  0.33870  0.89205  0.97739  1.0000
  H   H1003     1.0  0.63630  0.92134  0.91015  1.0000
  Fe  Fe88      1.0  0.36360  0.76894  0.51753  1.0000
  H   H1004     1.0  0.41049  0.74073  0.58757  1.0000
  H   H1005     1.0  0.42732  0.66667  0.55260  1.0000
  C   C593      1.0  0.35335  0.68469  0.55336  1.0000
  C   C594      1.0  0.64702  0.90949  0.89888  1.0000
  H   H1006     1.0  0.63295  0.70743  0.59078  1.0000
  C   C595      1.0  0.33873  0.84350  0.99596  1.0000
  C   C596      1.0  0.33709  0.89355  0.84944  1.0000
  H   H1007     1.0  0.34153  0.87305  0.64185  1.0000
  H   H1008     1.0  0.41977  0.68751  0.51003  1.0000
  C   C597      1.0  0.60723  0.00074  0.75247  1.0000
  H   H1009     1.0  0.65899  0.69867  0.62802  1.0000
  H   H1010     1.0  0.37146  0.99954  0.83581  1.0000
  H   H1011     1.0  0.34199  0.99880  0.79559  1.0000
  H   H1012     1.0  0.33862  0.88846  0.82637  1.0000
  H   H1013     1.0  0.66639  0.76025  0.66859  1.0000
  H   H1014     1.0  0.34672  0.95295  0.88741  1.0000
  H   H1015     1.0  0.34818  0.98228  0.88914  1.0000
  H   H1016     1.0  0.33846  0.88898  0.69645  1.0000
  C   C598      1.0  0.33784  0.96859  0.88113  1.0000
  H   H1017     1.0  0.66849  0.69360  0.58990  1.0000
  Fe  Fe89      1.0  0.92544  0.38969  0.25331  1.0000
  S   S179      1.0  0.92931  0.41067  0.21185  1.0000
  S   S180      1.0  0.95527  0.37045  0.26948  1.0000
  Fe  Fe90      1.0  0.87726  0.40314  0.26347  1.0000
  S   S181      1.0  0.87754  0.42534  0.22210  1.0000
  S   S182      1.0  0.84510  0.40198  0.29144  1.0000
  Fe  Fe91      1.0  0.89631  0.39742  0.19923  1.0000
  S   S183      1.0  0.89233  0.39078  0.14928  1.0000
  Fe  Fe92      1.0  0.91043  0.43655  0.23768  1.0000
  S   S184      1.0  0.92471  0.47101  0.23992  1.0000
  S   S185      1.0  0.89358  0.37432  0.23931  1.0000
  S   S186      1.0  0.90897  0.41639  0.28046  1.0000
  Fe  Fe93      1.0  0.80368  0.40552  0.46384  1.0000
  S   S187      1.0  0.76845  0.40832  0.44971  1.0000
  S   S188      1.0  0.83459  0.40030  0.43416  1.0000
  Fe  Fe94      1.0  0.87562  0.29361  0.03177  1.0000
  S   S189      1.0  0.89099  0.26027  0.02123  1.0000
  S   S190      1.0  0.87519  0.30027  0.08186  1.0000
  H   H1018     1.0  0.82507  0.24683  0.04076  1.0000
  H   H1019     1.0  0.79451  0.27431  0.05345  1.0000
  C   C599      1.0  0.82152  0.19488  0.06791  1.0000
  C   C600      1.0  0.88752  0.49431  0.22172  1.0000
  C   C601      1.0  0.84934  0.24943  0.09028  1.0000
  C   C602      1.0  0.69546  0.35400  0.48927  1.0000
  Fe  Fe95      1.0  0.69602  0.11339  0.03070  1.0000
  S   S191      1.0  0.73322  0.11293  0.02572  1.0000
  H   H1020     1.0  0.74098  0.02858  0.12060  1.0000
  H   H1021     1.0  0.76306  0.04610  0.11022  1.0000
  H   H1022     1.0  0.91977  0.46220  0.33815  1.0000
  C   C603      1.0  0.90862  0.49515  0.23370  1.0000
  H   H1023     1.0  0.95759  0.35941  0.03600  1.0000
  H   H1024     1.0  0.78960  0.21325  0.13405  1.0000
  H   H1025     1.0  0.83193  0.48907  0.32491  1.0000
  H   H1026     1.0  0.82663  0.21880  0.12973  1.0000
  H   H1027     1.0  0.83009  0.18080  0.05662  1.0000
  H   H1028     1.0  0.69645  0.37176  0.49178  1.0000
  H   H1029     1.0  0.84858  0.21558  0.05323  1.0000
  H   H1030     1.0  0.94059  0.30049  0.03291  1.0000
  C   C604      1.0  0.79323  0.22477  0.11493  1.0000
  C   C605      1.0  0.96924  0.26685  0.01444  1.0000
  C   C606      1.0  0.71263  0.06324  0.12388  1.0000
  H   H1031     1.0  0.68657  0.03087  0.04669  1.0000
  H   H1032     1.0  0.84794  0.47815  0.25105  1.0000
  H   H1033     1.0  0.68737  0.05308  0.07245  1.0000
  H   H1034     1.0  0.67849  0.14951  0.15803  1.0000
  H   H1035     1.0  0.77960  0.35723  0.44493  1.0000
  H   H1036     1.0  0.79968  0.27023  0.09251  1.0000
  Fe  Fe96      1.0  0.76596  0.43751  0.48074  1.0000
  H   H1037     1.0  0.84395  0.26541  0.10040  1.0000
  C   C607      1.0  0.69217  0.30792  0.48262  1.0000
  H   H1038     1.0  0.78819  0.21622  0.09460  1.0000
  H   H1039     1.0  0.71721  0.07858  0.07961  1.0000
  C   C608      1.0  0.88457  0.46989  0.33633  1.0000
  H   H1040     1.0  0.88098  0.47857  0.21513  1.0000
  C   C609      1.0  0.83712  0.40133  0.39444  1.0000
  C   C610      1.0  0.85819  0.39896  0.38086  1.0000
  C   C611      1.0  0.86097  0.39921  0.34941  1.0000
  C   C612      1.0  0.84259  0.40141  0.33116  1.0000
  C   C613      1.0  0.82148  0.40365  0.34474  1.0000
  C   C614      1.0  0.81877  0.40396  0.37619  1.0000
  H   H1041     1.0  0.87250  0.39691  0.39476  1.0000
  H   H1042     1.0  0.87730  0.39743  0.33932  1.0000
  H   H1043     1.0  0.80717  0.40558  0.33081  1.0000
  H   H1044     1.0  0.80252  0.40617  0.38628  1.0000
  C   C615      1.0  0.88752  0.36539  0.13109  1.0000
  C   C616      1.0  0.88713  0.34504  0.14657  1.0000
  C   C617      1.0  0.88337  0.32530  0.13111  1.0000
  C   C618      1.0  0.88006  0.32563  0.10003  1.0000
  C   C619      1.0  0.88057  0.34595  0.08447  1.0000
  C   C620      1.0  0.88430  0.36570  0.09996  1.0000
  H   H1045     1.0  0.88955  0.34454  0.17050  1.0000
  H   H1046     1.0  0.88293  0.30968  0.14338  1.0000
  H   H1047     1.0  0.87789  0.34650  0.06062  1.0000
  H   H1048     1.0  0.88451  0.38137  0.08781  1.0000
  H   H1049     1.0  0.83193  0.35036  0.39137  1.0000
  C   C621      1.0  0.97775  0.38749  0.27732  1.0000
  C   C622      1.0  0.97650  0.41037  0.27189  1.0000
  H   H1050     1.0  0.99470  0.32411  0.10001  1.0000
  H   H1051     1.0  0.96127  0.41790  0.26428  1.0000
  C   C623      1.0  0.67134  0.13484  0.14883  1.0000
  N   N45       1.0  0.78485  0.34095  0.40256  1.0000
  H   H1052     1.0  0.82654  0.32168  0.38160  1.0000
  C   C624      1.0  0.81785  0.23141  0.11571  1.0000
  N   N46       1.0  0.86639  0.47925  0.31695  1.0000
  H   H1053     1.0  0.90966  0.46227  0.30110  1.0000
  H   H1054     1.0  0.76237  0.37304  0.35951  1.0000
  H   H1055     1.0  0.80102  0.23580  0.05737  1.0000
  H   H1056     1.0  0.88592  0.50125  0.28842  1.0000
  C   C625      1.0  0.82337  0.33934  0.37586  1.0000
  H   H1057     1.0  0.74083  0.37751  0.38684  1.0000
  H   H1058     1.0  0.78179  0.05937  0.06918  1.0000
  C   C626      1.0  0.76138  0.34839  0.39645  1.0000
  H   H1059     1.0  0.82073  0.28151  0.06742  1.0000
  C   C627      1.0  0.83862  0.21277  0.07423  1.0000
  H   H1060     1.0  0.81809  0.24710  0.12854  1.0000
  H   H1061     1.0  0.85003  0.20470  0.09035  1.0000
  C   C628      1.0  0.75064  0.03488  0.10079  1.0000
  H   H1062     1.0  0.77492  0.01954  0.06931  1.0000
  C   C629      1.0  0.71304  0.31825  0.48281  1.0000
  H   H1063     1.0  0.75354  0.33715  0.38035  1.0000
  H   H1064     1.0  0.98498  0.39448  0.17600  1.0000
  H   H1065     1.0  0.95404  0.37084  0.17644  1.0000
  C   C630      1.0  0.80727  0.26923  0.06978  1.0000
  H   H1066     1.0  0.76522  0.08466  0.06652  1.0000
  H   H1067     1.0  0.97349  0.35885  0.09465  1.0000
  C   C631      1.0  0.90823  0.47084  0.32272  1.0000
  H   H1068     1.0  0.84863  0.49090  0.35636  1.0000
  S   S192      1.0  0.74198  0.35333  0.48601  1.0000
  H   H1069     1.0  0.72314  0.06273  0.14394  1.0000
  H   H1070     1.0  0.83220  0.44755  0.32880  1.0000
  C   C632      1.0  0.99505  0.42357  0.27602  1.0000
  C   C633      1.0  0.76308  0.01468  0.08749  1.0000
  H   H1071     1.0  0.70311  0.04776  0.12335  1.0000
  H   H1072     1.0  0.82903  0.47420  0.28233  1.0000
  H   H1073     1.0  0.77669  0.07225  0.03379  1.0000
  H   H1074     1.0  0.80847  0.20064  0.05259  1.0000
  C   C634      1.0  0.67720  0.12857  0.11937  1.0000
  H   H1075     1.0  0.80537  0.33533  0.46775  1.0000
  H   H1076     1.0  0.85725  0.25398  0.06831  1.0000
  H   H1077     1.0  0.75340  0.04013  0.03805  1.0000
  H   H1078     1.0  0.70011  0.07675  0.12646  1.0000
  C   C635      1.0  0.97022  0.36252  0.18054  1.0000
  N   N47       1.0  0.82982  0.23456  0.08595  1.0000
  N   N48       1.0  0.73575  0.04733  0.07961  1.0000
  H   H1079     1.0  0.81407  0.18810  0.08898  1.0000
  C   C636      1.0  0.98402  0.31185  0.08931  1.0000
  H   H1080     1.0  0.88495  0.47865  0.35808  1.0000
  H   H1081     1.0  0.75133  0.31052  0.42962  1.0000
  H   H1082     1.0  0.77167  0.31894  0.45588  1.0000
  H   H1083     1.0  0.95005  0.36638  0.11782  1.0000
  C   C637      1.0  0.83659  0.45815  0.34772  1.0000
  H   H1084     1.0  0.68298  0.18072  0.49492  1.0000
  H   H1085     1.0  0.72788  0.30820  0.48044  1.0000
  H   H1086     1.0  0.98998  0.25820  0.05172  1.0000
  C   C638      1.0  0.86779  0.24022  0.11047  1.0000
  H   H1087     1.0  0.86128  0.23366  0.13220  1.0000
  H   H1088     1.0  0.87795  0.22739  0.09889  1.0000
  H   H1089     1.0  0.87919  0.25392  0.11544  1.0000
  H   H1090     1.0  0.78229  0.23945  0.11862  1.0000
  C   C639      1.0  0.81570  0.24563  0.06248  1.0000
  H   H1091     1.0  0.95437  0.26038  0.02499  1.0000
  H   H1092     1.0  0.76859  0.38425  0.39553  1.0000
  N   N49       1.0  0.95083  0.32825  0.05932  1.0000
  C   C640      1.0  0.94738  0.34440  0.03352  1.0000
  C   C641      1.0  0.94314  0.33971  0.08754  1.0000
  C   C642      1.0  0.93619  0.30868  0.05431  1.0000
  C   C643      1.0  0.97491  0.32144  0.05959  1.0000
  C   C644      1.0  0.75300  0.49534  0.48525  1.0000
  C   C645      1.0  0.95531  0.36115  0.09499  1.0000
  C   C646      1.0  0.93640  0.28995  0.07812  1.0000
  H   H1093     1.0  0.96702  0.34963  0.19810  1.0000
  C   C647      1.0  0.74823  0.05462  0.05166  1.0000
  C   C648      1.0  0.78425  0.31632  0.40902  1.0000
  H   H1094     1.0  0.94402  0.32874  0.10758  1.0000
  H   H1095     1.0  0.92532  0.34415  0.08620  1.0000
  H   H1096     1.0  0.91867  0.31435  0.05231  1.0000
  H   H1097     1.0  0.97852  0.30908  0.04190  1.0000
  H   H1098     1.0  0.83873  0.45106  0.26244  1.0000
  C   C649      1.0  0.84573  0.48055  0.33642  1.0000
  C   C650      1.0  0.81209  0.34320  0.44686  1.0000
  H   H1099     1.0  0.87881  0.46518  0.27545  1.0000
  H   H1100     1.0  0.86440  0.44627  0.29818  1.0000
  H   H1101     1.0  0.82293  0.33137  0.43478  1.0000
  H   H1102     1.0  0.68390  0.15038  0.45648  1.0000
  H   H1103     1.0  0.77869  0.30738  0.38896  1.0000
  H   H1104     1.0  0.95262  0.28122  0.07854  1.0000
  H   H1105     1.0  0.75092  0.34747  0.41730  1.0000
  C   C651      1.0  0.98948  0.26549  0.02945  1.0000
  C   C652      1.0  0.84385  0.46744  0.27077  1.0000
  H   H1106     1.0  0.99613  0.47372  0.23424  1.0000
  H   H1107     1.0  0.72390  0.01974  0.05420  1.0000
  H   H1108     1.0  0.70232  0.05486  0.03705  1.0000
  C   C653      1.0  0.79326  0.35398  0.42844  1.0000
  H   H1109     1.0  0.74032  0.07837  0.10214  1.0000
  H   H1110     1.0  0.82118  0.46108  0.36112  1.0000
  C   C654      1.0  0.76901  0.30916  0.43555  1.0000
  H   H1111     1.0  0.79169  0.33622  0.35528  1.0000
  H   H1112     1.0  0.98017  0.38581  0.21328  1.0000
  H   H1113     1.0  0.84815  0.44910  0.36261  1.0000
  C   C655      1.0  0.71494  0.34138  0.48608  1.0000
  H   H1114     1.0  0.83109  0.34248  0.35339  1.0000
  H   H1115     1.0  0.73736  0.06469  0.03690  1.0000
  H   H1116     1.0  0.69117  0.29018  0.47994  1.0000
  H   H1117     1.0  0.92985  0.35037  0.03320  1.0000
  H   H1118     1.0  0.97154  0.30589  0.10581  1.0000
  C   C656      1.0  0.71752  0.03218  0.07049  1.0000
  C   C657      1.0  0.67607  0.16687  0.45267  1.0000
  C   C658      1.0  0.99754  0.37797  0.28750  1.0000
  H   H1119     1.0  0.71116  0.02205  0.08978  1.0000
  S   S193      1.0  0.75448  0.47132  0.46304  1.0000
  H   H1120     1.0  0.80084  0.30922  0.41331  1.0000
  C   C659      1.0  0.86412  0.46401  0.29077  1.0000
  C   C660      1.0  0.72669  0.06760  0.09512  1.0000
  H   H1121     1.0  0.98545  0.33592  0.05351  1.0000
  H   H1122     1.0  0.82304  0.35643  0.45459  1.0000
  H   H1123     1.0  0.97578  0.35473  0.15938  1.0000
  H   H1124     1.0  0.93124  0.29565  0.10067  1.0000
  C   C661      1.0  0.76910  0.06846  0.05618  1.0000
  H   H1125     1.0  0.68876  0.13836  0.10610  1.0000
  C   C662      1.0  0.69745  0.04365  0.05587  1.0000
  H   H1126     1.0  0.95061  0.37506  0.07974  1.0000
  H   H1127     1.0  0.92415  0.27736  0.07192  1.0000
  H   H1128     1.0  0.88166  0.45212  0.34217  1.0000
  H   H1129     1.0  0.77235  0.29147  0.44135  1.0000
  H   H1130     1.0  0.79818  0.36304  0.36796  1.0000
  Fe  Fe97      1.0  0.75992  0.38696  0.49044  1.0000
  C   C663      1.0  0.75839  0.37221  0.38389  1.0000
  C   C664      1.0  0.79859  0.34519  0.37448  1.0000
  H   H1131     1.0  0.79884  0.37062  0.42057  1.0000
  S   S194      1.0  0.67510  0.10042  0.07064  1.0000
  H   H1132     1.0  0.91411  0.48810  0.31976  1.0000
  S   S195      1.0  0.80164  0.43577  0.49218  1.0000
  H   H1133     1.0  0.99505  0.29742  0.08419  1.0000
  H   H1134     1.0  0.99389  0.44120  0.27162  1.0000
  H   H1135     1.0  0.77289  0.00643  0.10532  1.0000
  H   H1136     1.0  0.99852  0.36032  0.29208  1.0000
  C   C665      1.0  0.67458  0.34367  0.48915  1.0000
  C   C666      1.0  0.98661  0.37989  0.19121  1.0000
  H   H1137     1.0  0.82643  0.50351  0.49193  1.0000
  C   C667      1.0  0.87307  0.50222  0.30655  1.0000
  C   C668      1.0  0.67268  0.32055  0.48583  1.0000
  S   S196      1.0  0.84562  0.28791  0.00390  1.0000
  H   H1138     1.0  0.68880  0.17769  0.44196  1.0000
  H   H1139     1.0  0.99530  0.48641  0.19805  1.0000
  H   H1140     1.0  0.00214  0.41965  0.20787  1.0000
  H   H1141     1.0  0.00034  0.35593  0.23571  1.0000
  H   H1142     1.0  0.67300  0.00561  0.22616  1.0000
  H   H1143     1.0  0.00234  0.33785  0.20500  1.0000
  H   H1144     1.0  0.80300  0.48734  0.50218  1.0000
  Fe  Fe98      1.0  0.79094  0.41355  0.53055  1.0000
  S   S197      1.0  0.75454  0.41668  0.52053  1.0000
  S   S198      1.0  0.80477  0.42550  0.57463  1.0000
  C   C669      1.0  0.91310  0.39421  0.65328  1.0000
  S   S199      1.0  0.84432  0.22161  0.98905  1.0000
  C   C670      1.0  0.81909  0.50111  0.58612  1.0000
  H   H1145     1.0  0.72748  0.48290  0.51507  1.0000
  H   H1146     1.0  0.89061  0.40020  0.93368  1.0000
  H   H1147     1.0  0.94140  0.43050  0.64405  1.0000
  Fe  Fe99      1.0  0.87234  0.39332  0.71891  1.0000
  S   S200      1.0  0.86060  0.39689  0.76703  1.0000
  S   S201      1.0  0.85450  0.37596  0.68173  1.0000
  Fe  Fe100     1.0  0.91654  0.41438  0.73017  1.0000
  S   S202      1.0  0.90876  0.41988  0.77863  1.0000
  S   S203      1.0  0.94762  0.42813  0.70896  1.0000
  Fe  Fe101     1.0  0.89482  0.38551  0.77954  1.0000
  S   S204      1.0  0.90691  0.36328  0.81791  1.0000
  Fe  Fe102     1.0  0.87554  0.43095  0.76301  1.0000
  S   S205      1.0  0.86038  0.46199  0.78261  1.0000
  S   S206      1.0  0.90558  0.37910  0.73179  1.0000
  S   S207      1.0  0.88425  0.42824  0.71424  1.0000
  Fe  Fe103     1.0  0.86596  0.30306  0.96568  1.0000
  S   S208      1.0  0.88054  0.27042  0.95157  1.0000
  S   S209      1.0  0.85084  0.32587  0.93016  1.0000
  Fe  Fe104     1.0  0.68980  0.12198  0.96260  1.0000
  S   S210      1.0  0.72658  0.12209  0.95297  1.0000
  H   H1148     1.0  0.81910  0.26094  0.96073  1.0000
  H   H1149     1.0  0.97264  0.41181  0.61801  1.0000
  H   H1150     1.0  0.67785  0.06563  0.81292  1.0000
  H   H1151     1.0  0.89601  0.39389  0.66298  1.0000
  H   H1152     1.0  0.88584  0.46141  0.62027  1.0000
  H   H1153     1.0  0.93478  0.36694  0.63519  1.0000
  H   H1154     1.0  0.91867  0.38579  0.59318  1.0000
  H   H1155     1.0  0.91221  0.41234  0.57898  1.0000
  C   C671      1.0  0.90849  0.40079  0.59806  1.0000
  H   H1156     1.0  0.88252  0.42418  0.64025  1.0000
  H   H1157     1.0  0.67943  0.06460  0.86284  1.0000
  S   S211      1.0  0.89411  0.31183  0.99497  1.0000
  H   H1158     1.0  0.88712  0.44547  0.84147  1.0000
  H   H1159     1.0  0.84240  0.47555  0.60056  1.0000
  H   H1160     1.0  0.90595  0.40677  0.84311  1.0000
  H   H1161     1.0  0.87012  0.40035  0.83545  1.0000
  H   H1162     1.0  0.93961  0.43071  0.60440  1.0000
  H   H1163     1.0  0.95494  0.39107  0.60416  1.0000
  C   C672      1.0  0.87572  0.48611  0.77424  1.0000
  C   C673      1.0  0.89649  0.48461  0.76001  1.0000
  C   C674      1.0  0.91885  0.36960  0.64713  1.0000
  H   H1164     1.0  0.90323  0.46861  0.75379  1.0000
  C   C675      1.0  0.89086  0.35232  0.84834  1.0000
  C   C676      1.0  0.86779  0.35402  0.84938  1.0000
  C   C677      1.0  0.85577  0.34590  0.87458  1.0000
  C   C678      1.0  0.86662  0.33556  0.89870  1.0000
  C   C679      1.0  0.88964  0.33337  0.89732  1.0000
  C   C680      1.0  0.90168  0.34182  0.87235  1.0000
  H   H1165     1.0  0.85921  0.36143  0.83067  1.0000
  H   H1166     1.0  0.83794  0.34741  0.87527  1.0000
  H   H1167     1.0  0.89823  0.32533  0.91562  1.0000
  H   H1168     1.0  0.91950  0.34018  0.87167  1.0000
  C   C681      1.0  0.97184  0.41206  0.71256  1.0000
  C   C682      1.0  0.97158  0.38897  0.70997  1.0000
  H   H1169     1.0  0.82768  0.46744  0.56944  1.0000
  H   H1170     1.0  0.95628  0.38071  0.70559  1.0000
  H   H1171     1.0  0.78775  0.47058  0.60524  1.0000
  H   H1172     1.0  0.88101  0.39228  0.88548  1.0000
  H   H1173     1.0  0.69404  0.32885  0.58923  1.0000
  H   H1174     1.0  0.83563  0.45367  0.84171  1.0000
  H   H1175     1.0  0.67807  0.08586  0.76573  1.0000
  H   H1176     1.0  0.95205  0.33837  0.80929  1.0000
  H   H1177     1.0  0.68995  0.13128  0.88158  1.0000
  C   C683      1.0  0.81862  0.41117  0.60391  1.0000
  C   C684      1.0  0.82163  0.38813  0.60435  1.0000
  C   C685      1.0  0.83241  0.37758  0.62850  1.0000
  C   C686      1.0  0.84052  0.38992  0.65223  1.0000
  C   C687      1.0  0.83765  0.41297  0.65165  1.0000
  C   C688      1.0  0.82672  0.42349  0.62766  1.0000
  H   H1178     1.0  0.81543  0.37844  0.58628  1.0000
  H   H1179     1.0  0.83453  0.35974  0.62876  1.0000
  H   H1180     1.0  0.84358  0.42266  0.66987  1.0000
  H   H1181     1.0  0.82430  0.44128  0.62769  1.0000
  C   C689      1.0  0.93788  0.41981  0.62464  1.0000
  H   H1182     1.0  0.95225  0.34985  0.98552  1.0000
  H   H1183     1.0  0.68792  0.12128  0.51607  1.0000
  H   H1184     1.0  0.80492  0.28658  0.95457  1.0000
  C   C690      1.0  0.87998  0.41367  0.92430  1.0000
  H   H1185     1.0  0.91467  0.41325  0.88026  1.0000
  Fe  Fe105     1.0  0.72793  0.09238  0.98473  1.0000
  H   H1186     1.0  0.68935  0.24900  0.54003  1.0000
  N   N50       1.0  0.91482  0.41066  0.62734  1.0000
  Fe  Fe106     1.0  0.86180  0.25554  0.99126  1.0000
  H   H1187     1.0  0.90570  0.36153  0.63454  1.0000
  C   C691      1.0  0.83536  0.40410  0.84553  1.0000
  H   H1188     1.0  0.82253  0.41694  0.85011  1.0000
  H   H1189     1.0  0.83132  0.39679  0.82372  1.0000
  H   H1190     1.0  0.83409  0.39054  0.86247  1.0000
  C   C692      1.0  0.83545  0.48198  0.57925  1.0000
  H   H1191     1.0  0.91983  0.36048  0.66890  1.0000
  N   N51       1.0  0.82698  0.25472  0.89524  1.0000
  C   C693      1.0  0.84698  0.26006  0.87566  1.0000
  C   C694      1.0  0.83289  0.23459  0.91408  1.0000
  C   C695      1.0  0.82231  0.27442  0.91498  1.0000
  C   C696      1.0  0.80785  0.25069  0.87510  1.0000
  C   C697      1.0  0.84587  0.28210  0.85752  1.0000
  C   C698      1.0  0.83765  0.21304  0.89691  1.0000
  C   C699      1.0  0.80900  0.27033  0.94431  1.0000
  C   C700      1.0  0.78628  0.24212  0.88998  1.0000
  H   H1192     1.0  0.86211  0.26074  0.88939  1.0000
  H   H1193     1.0  0.85027  0.24685  0.85902  1.0000
  H   H1194     1.0  0.81983  0.23049  0.93093  1.0000
  H   H1195     1.0  0.84769  0.23799  0.92754  1.0000
  H   H1196     1.0  0.83809  0.28168  0.92217  1.0000
  H   H1197     1.0  0.81364  0.28793  0.90241  1.0000
  H   H1198     1.0  0.80310  0.26628  0.86307  1.0000
  H   H1199     1.0  0.81261  0.23930  0.85662  1.0000
  H   H1200     1.0  0.83232  0.28238  0.84126  1.0000
  H   H1201     1.0  0.84440  0.29674  0.87214  1.0000
  H   H1202     1.0  0.86155  0.28407  0.84438  1.0000
  H   H1203     1.0  0.85279  0.21418  0.88258  1.0000
  H   H1204     1.0  0.84064  0.19941  0.91348  1.0000
  H   H1205     1.0  0.82341  0.20810  0.88349  1.0000
  H   H1206     1.0  0.79329  0.26172  0.94114  1.0000
  H   H1207     1.0  0.99184  0.49847  0.75340  1.0000
  H   H1208     1.0  0.92301  0.43018  0.84885  1.0000
  H   H1209     1.0  0.77536  0.25613  0.89699  1.0000
  H   H1210     1.0  0.78878  0.23070  0.90925  1.0000
  H   H1211     1.0  0.77732  0.23213  0.87361  1.0000
  H   H1212     1.0  0.79352  0.15814  0.98681  1.0000
  H   H1213     1.0  0.91397  0.45766  0.60877  1.0000
  C   C701      1.0  0.88871  0.43570  0.86278  1.0000
  H   H1214     1.0  0.85873  0.42599  0.82405  1.0000
  H   H1215     1.0  0.89212  0.44331  0.59009  1.0000
  H   H1216     1.0  0.69343  0.14976  0.51513  1.0000
  H   H1217     1.0  0.96085  0.42511  0.79191  1.0000
  H   H1218     1.0  0.89290  0.44828  0.87960  1.0000
  H   H1219     1.0  0.98769  0.29073  0.94932  1.0000
  H   H1220     1.0  0.83294  0.47158  0.87292  1.0000
  C   C702      1.0  0.90911  0.42039  0.85861  1.0000
  H   H1221     1.0  0.83576  0.43301  0.89187  1.0000
  C   C703      1.0  0.85111  0.44110  0.88327  1.0000
  H   H1222     1.0  0.92339  0.39959  0.67205  1.0000
  C   C704      1.0  0.89807  0.44894  0.61192  1.0000
  H   H1223     1.0  0.69172  0.29347  0.60779  1.0000
  H   H1224     1.0  0.86636  0.41733  0.94066  1.0000
  H   H1225     1.0  0.81223  0.49855  0.60925  1.0000
  H   H1226     1.0  0.87895  0.38290  0.61472  1.0000
  H   H1227     1.0  0.89053  0.42845  0.92211  1.0000
  H   H1228     1.0  0.88144  0.38548  0.57480  1.0000
  C   C705      1.0  0.87061  0.40621  0.89426  1.0000
  H   H1229     1.0  0.85887  0.46968  0.85325  1.0000
  C   C706      1.0  0.97039  0.39030  0.79364  1.0000
  H   H1230     1.0  0.90492  0.43742  0.65658  1.0000
  H   H1231     1.0  0.68316  0.13643  0.82714  1.0000
  H   H1232     1.0  0.96868  0.49580  0.77823  1.0000
  H   H1233     1.0  0.67286  0.27228  0.61487  1.0000
  H   H1234     1.0  0.85470  0.39809  0.90023  1.0000
  C   C707      1.0  0.97462  0.36960  0.84051  1.0000
  C   C708      1.0  0.85880  0.41388  0.84306  1.0000
  C   C709      1.0  0.88402  0.39420  0.59610  1.0000
  H   H1235     1.0  0.95256  0.38595  0.79442  1.0000
  C   C710      1.0  0.81771  0.49546  0.51129  1.0000
  C   C711      1.0  0.72985  0.02055  0.98903  1.0000
  H   H1236     1.0  0.87272  0.40882  0.59637  1.0000
  C   C712      1.0  0.95699  0.40284  0.62263  1.0000
  H   H1237     1.0  0.85798  0.44929  0.90310  1.0000
  C   C713      1.0  0.81535  0.18641  0.98731  1.0000
  H   H1238     1.0  0.78217  0.02953  0.96292  1.0000
  C   C714      1.0  0.79454  0.17590  0.98923  1.0000
  C   C715      1.0  0.81728  0.20953  0.99052  1.0000
  H   H1239     1.0  0.96206  0.32622  0.77537  1.0000
  H   H1240     1.0  0.69703  0.32350  0.54938  1.0000
  C   C716      1.0  0.84444  0.45992  0.86127  1.0000
  C   C717      1.0  0.74838  0.03244  0.97833  1.0000
  N   N52       1.0  0.86732  0.42424  0.87094  1.0000
  H   H1241     1.0  0.79876  0.23973  0.99804  1.0000
  Fe  Fe107     1.0  0.90792  0.27828  0.98295  1.0000
  H   H1242     1.0  0.82899  0.48268  0.52057  1.0000
  C   C718      1.0  0.89965  0.42987  0.63531  1.0000
  C   C719      1.0  0.96844  0.27609  0.98554  1.0000
  H   H1243     1.0  0.69563  0.28734  0.55523  1.0000
  C   C720      1.0  0.99125  0.37656  0.71306  1.0000
  C   C721      1.0  0.90867  0.50387  0.75376  1.0000
  H   H1244     1.0  0.76635  0.46095  0.58235  1.0000
  H   H1245     1.0  0.68286  0.34759  0.56197  1.0000
  H   H1246     1.0  0.95634  0.36761  0.84028  1.0000
  S   S212      1.0  0.94354  0.27794  0.96533  1.0000
  H   H1247     1.0  0.94949  0.35301  0.77363  1.0000
  S   S213      1.0  0.74938  0.06187  0.97418  1.0000
  C   C722      1.0  0.98809  0.28377  0.97179  1.0000
  C   C723      1.0  0.77709  0.21149  0.99749  1.0000
  H   H1248     1.0  0.83011  0.17645  0.98348  1.0000
  C   C724      1.0  0.99178  0.42266  0.71786  1.0000
  N   N53       1.0  0.98424  0.37282  0.80933  1.0000
  H   H1249     1.0  0.97520  0.39140  0.76958  1.0000
  C   C725      1.0  0.66937  0.13370  0.84252  1.0000
  H   H1250     1.0  0.76326  0.48767  0.59829  1.0000
  C   C726      1.0  0.76777  0.02067  0.97114  1.0000
  H   H1251     1.0  0.79607  0.47157  0.54950  1.0000
  H   H1252     1.0  0.95919  0.39396  0.64436  1.0000
  C   C727      1.0  0.68578  0.32974  0.56736  1.0000
  C   C728      1.0  0.67979  0.25599  0.55927  1.0000
  C   C729      1.0  0.78683  0.48558  0.55979  1.0000
  H   H1253     1.0  0.84920  0.48771  0.56430  1.0000
  H   H1254     1.0  0.68873  0.25109  0.57978  1.0000
  C   C730      1.0  0.67831  0.28146  0.55512  1.0000
  H   H1255     1.0  0.67848  0.13797  0.54704  1.0000
  C   C731      1.0  0.77556  0.47599  0.58838  1.0000
  H   H1256     1.0  0.99209  0.44053  0.71957  1.0000
  C   C732      1.0  0.96030  0.34213  0.78741  1.0000
  H   H1257     1.0  0.77361  0.48965  0.54365  1.0000
  H   H1258     1.0  0.94163  0.32326  0.99439  1.0000
  S   S214      1.0  0.69143  0.09111  0.99146  1.0000
  H   H1259     1.0  0.98894  0.33561  0.84740  1.0000
  C   C733      1.0  0.77516  0.18834  0.99448  1.0000
  C   C734      1.0  0.67329  0.13074  0.87338  1.0000
  H   H1260     1.0  0.67494  0.30453  0.65224  1.0000
  H   H1261     1.0  0.92472  0.50253  0.74277  1.0000
  H   H1262     1.0  0.71467  0.02941  0.99435  1.0000
  C   C735      1.0  0.98435  0.35065  0.85995  1.0000
  H   H1263     1.0  0.67236  0.28477  0.53205  1.0000
  C   C736      1.0  0.79787  0.22201  0.99541  1.0000
  C   C737      1.0  0.67368  0.29010  0.60810  1.0000
  Fe  Fe108     1.0  0.72947  0.14278  0.99458  1.0000
  H   H1264     1.0  0.99106  0.35871  0.71104  1.0000
  H   H1265     1.0  0.99511  0.50071  0.79339  1.0000
  H   H1266     1.0  0.96543  0.41517  0.82913  1.0000
  S   S215      1.0  0.74825  0.17610  0.99807  1.0000
  C   C738      1.0  0.73737  0.49710  0.50867  1.0000
  C   C739      1.0  0.68076  0.13767  0.52229  1.0000
  S   S216      1.0  0.79589  0.38280  0.50324  1.0000
  H   H1267     1.0  0.99053  0.35526  0.76823  1.0000
  C   C740      1.0  0.98341  0.35205  0.79106  1.0000
  C   C741      1.0  0.97162  0.41409  0.80567  1.0000
  H   H1268     1.0  0.67837  0.17633  0.54941  1.0000
  H   H1269     1.0  0.99397  0.33855  0.80022  1.0000
  H   H1270     1.0  0.97153  0.34498  0.87645  1.0000
  H   H1271     1.0  0.97666  0.38486  0.85370  1.0000
  H   H1272     1.0  0.97045  0.32907  0.00012  1.0000
  H   H1273     1.0  0.98851  0.42092  0.80349  1.0000
  S   S217      1.0  0.69215  0.14437  0.00238  1.0000
  H   H1274     1.0  0.66956  0.20274  0.53346  1.0000
  C   C742      1.0  0.95336  0.33582  0.00189  1.0000
  H   H1275     1.0  0.99883  0.35637  0.87240  1.0000
  H   H1276     1.0  0.76231  0.22137  0.00154  1.0000
  Fe  Fe109     1.0  0.88319  0.58932  0.24049  1.0000
  S   S218      1.0  0.89531  0.59051  0.28741  1.0000
  S   S219      1.0  0.86699  0.55873  0.22311  1.0000
  Fe  Fe110     1.0  0.89992  0.63514  0.22317  1.0000
  S   S220      1.0  0.91357  0.63999  0.26903  1.0000
  S   S221      1.0  0.90932  0.66056  0.18680  1.0000
  Fe  Fe111     1.0  0.92596  0.60505  0.26626  1.0000
  S   S222      1.0  0.95893  0.59197  0.28206  1.0000
  Fe  Fe112     1.0  0.88181  0.62535  0.28736  1.0000
  S   S223      1.0  0.86839  0.64177  0.32992  1.0000
  S   S224      1.0  0.91493  0.60095  0.21924  1.0000
  S   S225      1.0  0.86701  0.62333  0.24147  1.0000
  Fe  Fe113     1.0  0.78540  0.61681  0.47055  1.0000
  S   S226      1.0  0.74889  0.61764  0.48225  1.0000
  S   S227      1.0  0.79462  0.60643  0.42280  1.0000
  Fe  Fe114     1.0  0.87501  0.71409  0.03354  1.0000
  S   S228      1.0  0.89042  0.74594  0.04702  1.0000
  S   S229      1.0  0.85953  0.69004  0.06777  1.0000
  Fe  Fe115     1.0  0.71032  0.89732  0.04809  1.0000
  S   S230      1.0  0.74633  0.89952  0.03427  1.0000
  S   S231      1.0  0.70491  0.89387  0.09882  1.0000
  C   C743      1.0  0.73361  0.59410  0.40790  1.0000
  C   C744      1.0  0.76171  0.53453  0.49106  1.0000
  H   H1277     1.0  0.84332  0.52331  0.31328  1.0000
  C   C745      1.0  0.69078  0.77622  0.40348  1.0000
  S   S232      1.0  0.69988  0.92485  0.01648  1.0000
  H   H1278     1.0  0.88083  0.51122  0.32511  1.0000
  H   H1279     1.0  0.79103  0.79159  0.11336  1.0000
  H   H1280     1.0  0.94883  0.63284  0.32354  1.0000
  S   S233      1.0  0.95346  0.73455  0.02799  1.0000
  C   C746      1.0  0.76521  0.51414  0.47661  1.0000
  H   H1281     1.0  0.90078  0.62040  0.37156  1.0000
  H   H1282     1.0  0.78413  0.78685  0.07464  1.0000
  H   H1283     1.0  0.68014  0.76264  0.47789  1.0000
  H   H1284     1.0  0.85854  0.51320  0.20899  1.0000
  H   H1285     1.0  0.67208  0.92497  0.19683  1.0000
  H   H1286     1.0  0.69316  0.94509  0.19257  1.0000
  H   H1287     1.0  0.71089  0.71494  0.42450  1.0000
  H   H1288     1.0  0.68508  0.98325  0.18823  1.0000
  C   C747      1.0  0.80895  0.79525  0.00392  1.0000
  C   C748      1.0  0.84857  0.63102  0.35609  1.0000
  C   C749      1.0  0.84453  0.64225  0.38306  1.0000
  C   C750      1.0  0.82845  0.63472  0.40408  1.0000
  C   C751      1.0  0.81608  0.61594  0.39817  1.0000
  C   C752      1.0  0.82031  0.60456  0.37135  1.0000
  C   C753      1.0  0.83656  0.61195  0.35049  1.0000
  H   H1289     1.0  0.85367  0.65706  0.38755  1.0000
  H   H1290     1.0  0.82532  0.64368  0.42454  1.0000
  H   H1291     1.0  0.81085  0.59004  0.36653  1.0000
  H   H1292     1.0  0.83945  0.60318  0.32983  1.0000
  C   C754      1.0  0.89458  0.66958  0.15478  1.0000
  C   C755      1.0  0.90584  0.68172  0.13218  1.0000
  C   C756      1.0  0.89523  0.68832  0.10567  1.0000
  C   C757      1.0  0.87320  0.68275  0.10136  1.0000
  C   C758      1.0  0.86186  0.67072  0.12403  1.0000
  C   C759      1.0  0.87240  0.66435  0.15075  1.0000
  H   H1293     1.0  0.92295  0.68597  0.13509  1.0000
  H   H1294     1.0  0.90416  0.69762  0.08845  1.0000
  H   H1295     1.0  0.84474  0.66654  0.12103  1.0000
  H   H1296     1.0  0.86337  0.65558  0.16827  1.0000
  C   C760      1.0  0.98238  0.60888  0.27845  1.0000
  C   C761      1.0  0.98054  0.63155  0.27165  1.0000
  H   H1297     1.0  0.91043  0.65528  0.38333  1.0000
  H   H1298     1.0  0.96451  0.63894  0.26747  1.0000
  N   N54       1.0  0.73006  0.56993  0.41611  1.0000
  C   C762      1.0  0.90447  0.53522  0.23835  1.0000
  C   C763      1.0  0.88330  0.53440  0.22663  1.0000
  H   H1299     1.0  0.98267  0.64833  0.33235  1.0000
  H   H1300     1.0  0.91113  0.55090  0.24495  1.0000
  C   C764      1.0  0.68454  0.73977  0.42760  1.0000
  H   H1301     1.0  0.68481  0.55002  0.37951  1.0000
  H   H1302     1.0  0.75136  0.54143  0.42583  1.0000
  H   H1303     1.0  0.73911  0.85716  0.12584  1.0000
  H   H1304     1.0  0.83916  0.84204  0.00738  1.0000
  H   H1305     1.0  0.69240  0.57806  0.36964  1.0000
  C   C765      1.0  0.68121  0.95311  0.13752  1.0000
  C   C766      1.0  0.71828  0.56757  0.44617  1.0000
  H   H1306     1.0  0.89391  0.60399  0.04959  1.0000
  N   N55       1.0  0.93501  0.63092  0.36899  1.0000
  H   H1307     1.0  0.77116  0.54889  0.48419  1.0000
  H   H1308     1.0  0.80243  0.86611  0.08722  1.0000
  H   H1309     1.0  0.69881  0.60593  0.40401  1.0000
  H   H1310     1.0  0.67801  0.95180  0.11321  1.0000
  C   C767      1.0  0.75262  0.55922  0.41934  1.0000
  H   H1311     1.0  0.73007  0.83024  0.13909  1.0000
  H   H1312     1.0  0.74742  0.84734  0.16100  1.0000
  C   C768      1.0  0.94271  0.62290  0.39916  1.0000
  S   S234      1.0  0.70342  0.87043  0.01552  1.0000
  C   C769      1.0  0.71446  0.61064  0.41416  1.0000
  H   H1313     1.0  0.72677  0.56134  0.36963  1.0000
  H   H1314     1.0  0.81186  0.79191  0.08445  1.0000
  C   C770      1.0  0.67938  0.88905  0.15015  1.0000
  H   H1315     1.0  0.78456  0.55347  0.39751  1.0000
  N   N56       1.0  0.67957  0.76436  0.42961  1.0000
  H   H1316     1.0  0.70862  0.77848  0.40795  1.0000
  H   H1317     1.0  0.77709  0.51303  0.45821  1.0000
  C   C771      1.0  0.91625  0.61717  0.35827  1.0000
  H   H1318     1.0  0.71187  0.61327  0.43852  1.0000
  H   H1319     1.0  0.68585  0.95909  0.24312  1.0000
  C   C772      1.0  0.92415  0.66762  0.34195  1.0000
  C   C773      1.0  0.76798  0.55991  0.39125  1.0000
  C   C774      1.0  0.68520  0.79689  0.46584  1.0000
  C   C775      1.0  0.87489  0.51392  0.21815  1.0000
  C   C776      1.0  0.91711  0.51568  0.24174  1.0000
  C   C777      1.0  0.92017  0.59181  0.35832  1.0000
  H   H1320     1.0  0.80432  0.82982  0.09782  1.0000
  C   C778      1.0  0.70889  0.73250  0.43133  1.0000
  H   H1321     1.0  0.73086  0.84203  0.05234  1.0000
  H   H1322     1.0  0.81068  0.77738  0.00478  1.0000
  H   H1323     1.0  0.77047  0.57696  0.38230  1.0000
  H   H1324     1.0  0.95578  0.63390  0.40745  1.0000
  H   H1325     1.0  0.78272  0.87203  0.11755  1.0000
  H   H1326     1.0  0.77169  0.85506  0.05457  1.0000
  H   H1327     1.0  0.78238  0.88775  0.08337  1.0000
  C   C779      1.0  0.99947  0.64483  0.27112  1.0000
  H   H1328     1.0  0.72100  0.83553  0.08985  1.0000
  H   H1329     1.0  0.69029  0.76582  0.38314  1.0000
  H   H1330     1.0  0.72041  0.74251  0.41721  1.0000
  C   C780      1.0  0.71831  0.55828  0.39166  1.0000
  C   C781      1.0  0.67929  0.89282  0.11897  1.0000
  H   H1331     1.0  0.91681  0.68421  0.34671  1.0000
  H   H1332     1.0  0.91268  0.65929  0.32706  1.0000
  H   H1333     1.0  0.91140  0.61001  0.41888  1.0000
  H   H1334     1.0  0.93317  0.58688  0.34177  1.0000
  C   C782      1.0  0.95404  0.62893  0.34682  1.0000
  H   H1335     1.0  0.99731  0.72638  0.04776  1.0000
  H   H1336     1.0  0.68506  0.57005  0.40767  1.0000
  H   H1337     1.0  0.70327  0.57818  0.44786  1.0000
  H   H1338     1.0  0.90470  0.58375  0.35163  1.0000
  C   C783      1.0  0.92689  0.65462  0.37164  1.0000
  H   H1339     1.0  0.71818  0.81619  0.06050  1.0000
  H   H1340     1.0  0.92405  0.58489  0.38072  1.0000
  H   H1341     1.0  0.91214  0.62203  0.33492  1.0000
  H   H1342     1.0  0.74789  0.60071  0.42004  1.0000
  H   H1343     1.0  0.93779  0.66447  0.38588  1.0000
  H   H1344     1.0  0.95087  0.60630  0.39761  1.0000
  H   H1345     1.0  0.79628  0.82516  0.06061  1.0000
  H   H1346     1.0  0.69090  0.79986  0.48887  1.0000
  C   C784      1.0  0.92463  0.62178  0.42406  1.0000
  H   H1347     1.0  0.91718  0.63833  0.42851  1.0000
  H   H1348     1.0  0.67068  0.79769  0.37388  1.0000
  H   H1349     1.0  0.69664  0.66231  0.49537  1.0000
  H   H1350     1.0  0.93218  0.61580  0.44519  1.0000
  N   N57       1.0  0.88635  0.59579  0.12726  1.0000
  C   C785      1.0  0.90065  0.61434  0.13741  1.0000
  C   C786      1.0  0.86249  0.60320  0.13004  1.0000
  C   C787      1.0  0.89144  0.59037  0.09500  1.0000
  C   C788      1.0  0.89078  0.57551  0.14652  1.0000
  C   C789      1.0  0.92583  0.61053  0.13431  1.0000
  C   C790      1.0  0.85304  0.60558  0.16225  1.0000
  C   C791      1.0  0.89107  0.61022  0.07263  1.0000
  C   C792      1.0  0.87620  0.55529  0.14083  1.0000
  H   H1351     1.0  0.89663  0.63005  0.12525  1.0000
  H   H1352     1.0  0.89733  0.61791  0.16138  1.0000
  H   H1353     1.0  0.85152  0.59173  0.11822  1.0000
  H   H1354     1.0  0.86003  0.61968  0.11890  1.0000
  H   H1355     1.0  0.90781  0.58188  0.09259  1.0000
  H   H1356     1.0  0.87933  0.57836  0.08668  1.0000
  H   H1357     1.0  0.90813  0.56958  0.14338  1.0000
  H   H1358     1.0  0.88903  0.57955  0.17067  1.0000
  H   H1359     1.0  0.93133  0.60725  0.11099  1.0000
  H   H1360     1.0  0.93417  0.62589  0.14117  1.0000
  H   H1361     1.0  0.93168  0.59707  0.14951  1.0000
  H   H1362     1.0  0.83611  0.61284  0.16127  1.0000
  H   H1363     1.0  0.85159  0.58940  0.17421  1.0000
  H   H1364     1.0  0.86286  0.61681  0.17578  1.0000
  H   H1365     1.0  0.87491  0.61910  0.07282  1.0000
  H   H1366     1.0  0.97107  0.65763  0.36660  1.0000
  H   H1367     1.0  0.90439  0.62218  0.07664  1.0000
  H   H1368     1.0  0.85844  0.55880  0.14528  1.0000
  H   H1369     1.0  0.88099  0.54161  0.15649  1.0000
  H   H1370     1.0  0.87851  0.54902  0.11780  1.0000
  H   H1371     1.0  0.76201  0.54910  0.37341  1.0000
  H   H1372     1.0  0.71943  0.53991  0.39472  1.0000
  H   H1373     1.0  0.72898  0.57337  0.46438  1.0000
  H   H1374     1.0  0.73813  0.59604  0.38371  1.0000
  H   H1375     1.0  0.70618  0.76890  0.46065  1.0000
  C   C793      1.0  0.85475  0.51795  0.29496  1.0000
  H   H1376     1.0  0.71901  0.62707  0.40435  1.0000
  H   H1377     1.0  0.77959  0.83670  0.13693  1.0000
  H   H1378     1.0  0.69555  0.80733  0.45058  1.0000
  H   H1379     1.0  0.95990  0.61141  0.34539  1.0000
  H   H1380     1.0  0.69493  0.88637  0.16118  1.0000
  C   C794      1.0  0.69387  0.56475  0.38703  1.0000
  H   H1381     1.0  0.74878  0.80204  0.08830  1.0000
  H   H1382     1.0  0.86253  0.53331  0.28587  1.0000
  H   H1383     1.0  0.69475  0.81023  0.38689  1.0000
  H   H1384     1.0  0.76417  0.81280  0.13276  1.0000
  H   H1385     1.0  0.67962  0.73333  0.40557  1.0000
  H   H1386     1.0  0.75849  0.81287  0.05322  1.0000
  C   C795      1.0  0.67868  0.94325  0.23615  1.0000
  H   H1387     1.0  0.93343  0.51645  0.25100  1.0000
  H   H1388     1.0  0.99254  0.66081  0.20839  1.0000
  H   H1389     1.0  0.69681  0.53865  0.44051  1.0000
  H   H1390     1.0  0.76175  0.56716  0.43766  1.0000
  H   H1391     1.0  0.98555  0.64105  0.18119  1.0000
  C   C796      1.0  0.99867  0.73670  0.02777  1.0000
  H   H1392     1.0  0.67464  0.73027  0.44469  1.0000
  H   H1393     1.0  0.75201  0.86307  0.08189  1.0000
  N   N58       1.0  0.76877  0.83151  0.09142  1.0000
  C   C797      1.0  0.79146  0.82184  0.08442  1.0000
  C   C798      1.0  0.76847  0.85500  0.07923  1.0000
  C   C799      1.0  0.75197  0.81781  0.07571  1.0000
  C   C800      1.0  0.76511  0.83037  0.12491  1.0000
  C   C801      1.0  0.79439  0.79660  0.08974  1.0000
  C   C802      1.0  0.78510  0.87083  0.09296  1.0000
  C   C803      1.0  0.72930  0.82876  0.06969  1.0000
  C   C804      1.0  0.74415  0.84185  0.13793  1.0000
  C   C805      1.0  0.68101  0.79915  0.39397  1.0000
  H   H1394     1.0  0.84542  0.51090  0.27654  1.0000
  Fe  Fe116     1.0  0.91741  0.73696  0.01332  1.0000
  H   H1395     1.0  0.98690  0.63217  0.36612  1.0000
  H   H1396     1.0  0.71372  0.73290  0.45515  1.0000
  C   C806      1.0  0.68813  0.77210  0.45905  1.0000
  H   H1397     1.0  0.94017  0.67041  0.33005  1.0000
  C   C807      1.0  0.71041  0.54399  0.45481  1.0000
  C   C808      1.0  0.97474  0.64252  0.35367  1.0000
  C   C809      1.0  0.82485  0.83164  0.00552  1.0000
  C   C810      1.0  0.82771  0.80838  0.00630  1.0000
  C   C811      1.0  0.97936  0.74349  0.01303  1.0000
  H   H1398     1.0  0.72377  0.53134  0.45404  1.0000
  H   H1399     1.0  0.70382  0.54408  0.47824  1.0000
  C   C812      1.0  0.67354  0.69017  0.49671  1.0000
  H   H1400     1.0  0.69040  0.96862  0.14073  1.0000
  Fe  Fe117     1.0  0.87170  0.76194  0.00876  1.0000
  H   H1401     1.0  0.69169  0.93849  0.14341  1.0000
  H   H1402     1.0  0.99789  0.66246  0.26671  1.0000
  S   S235      1.0  0.85504  0.79685  0.00961  1.0000
  H   H1403     1.0  0.75162  0.00215  0.07908  1.0000
  H   H1404     1.0  0.69045  0.92998  0.24322  1.0000
  C   C813      1.0  0.67625  0.94236  0.20201  1.0000
  S   S236      1.0  0.79286  0.64555  0.50018  1.0000
  C   C814      1.0  0.99972  0.64893  0.19203  1.0000
  H   H1405     1.0  0.67146  0.80810  0.41143  1.0000
  C   C815      1.0  0.69419  0.67948  0.50137  1.0000
  Fe  Fe118     1.0  0.79801  0.61996  0.53717  1.0000
  S   S237      1.0  0.76248  0.62076  0.55294  1.0000
  S   S238      1.0  0.82871  0.61562  0.56588  1.0000
  C   C816      1.0  0.70585  0.94713  0.92480  1.0000
  H   H1406     1.0  0.74359  0.90461  0.87617  1.0000
  H   H1407     1.0  0.82513  0.62109  0.87502  1.0000
  H   H1408     1.0  0.83692  0.66473  0.77289  1.0000
  C   C817      1.0  0.76897  0.99757  0.97456  1.0000
  C   C818      1.0  0.71703  0.97624  0.88736  1.0000
  Fe  Fe119     1.0  0.88492  0.62015  0.79939  1.0000
  S   S239      1.0  0.88522  0.64542  0.76206  1.0000
  S   S240      1.0  0.87440  0.62634  0.84787  1.0000
  Fe  Fe120     1.0  0.90185  0.58319  0.75804  1.0000
  S   S241      1.0  0.90361  0.60591  0.71748  1.0000
  S   S242      1.0  0.91613  0.54849  0.75308  1.0000
  Fe  Fe121     1.0  0.91800  0.63015  0.74888  1.0000
  S   S243      1.0  0.94698  0.65211  0.73788  1.0000
  Fe  Fe122     1.0  0.87065  0.61899  0.73370  1.0000
  S   S244      1.0  0.84112  0.62978  0.70579  1.0000
  S   S245      1.0  0.91877  0.60670  0.78820  1.0000
  S   S246      1.0  0.86775  0.59447  0.77232  1.0000
  Fe  Fe123     1.0  0.88365  0.72359  0.96656  1.0000
  S   S247      1.0  0.90040  0.75575  0.97637  1.0000
  S   S248      1.0  0.88077  0.71812  0.91624  1.0000
  H   H1409     1.0  0.68502  0.74121  0.52251  1.0000
  H   H1410     1.0  0.72047  0.94875  0.93928  1.0000
  H   H1411     1.0  0.69651  0.96812  0.83386  1.0000
  C   C819      1.0  0.00121  0.54707  0.73102  1.0000
  H   H1412     1.0  0.68650  0.92940  0.87820  1.0000
  H   H1413     1.0  0.99279  0.56927  0.80017  1.0000
  Fe  Fe124     1.0  0.69597  0.89802  0.98237  1.0000
  S   S249      1.0  0.73097  0.89923  0.96465  1.0000
  C   C820      1.0  0.69166  0.94680  0.87404  1.0000
  H   H1414     1.0  0.74474  0.94000  0.89969  1.0000
  C   C821      1.0  0.75080  0.98549  0.98525  1.0000
  H   H1415     1.0  0.77610  0.61195  0.80332  1.0000
  H   H1416     1.0  0.68916  0.96262  0.96296  1.0000
  H   H1417     1.0  0.72116  0.51882  0.54042  1.0000
  H   H1418     1.0  0.96505  0.53234  0.75689  1.0000
  C   C822      1.0  0.68633  0.96049  0.93870  1.0000
  C   C823      1.0  0.98434  0.50492  0.77428  1.0000
  H   H1419     1.0  0.82956  0.64693  0.85648  1.0000
  H   H1420     1.0  0.77207  0.63785  0.78442  1.0000
  H   H1421     1.0  0.89275  0.71321  0.64033  1.0000
  H   H1422     1.0  0.90873  0.69378  0.72571  1.0000
  H   H1423     1.0  0.83133  0.62678  0.77166  1.0000
  H   H1424     1.0  0.80630  0.63505  0.75463  1.0000
  H   H1425     1.0  0.89980  0.70801  0.69268  1.0000
  H   H1426     1.0  0.97187  0.53400  0.79526  1.0000
  S   S250      1.0  0.73921  0.56207  0.53093  1.0000
  H   H1427     1.0  0.84561  0.67602  0.62853  1.0000
  C   C824      1.0  0.87741  0.65184  0.86662  1.0000
  C   C825      1.0  0.87433  0.65233  0.89791  1.0000
  C   C826      1.0  0.87581  0.67236  0.91355  1.0000
  C   C827      1.0  0.87997  0.69223  0.89793  1.0000
  C   C828      1.0  0.88281  0.69177  0.86659  1.0000
  C   C829      1.0  0.88175  0.67168  0.85102  1.0000
  H   H1428     1.0  0.87088  0.63710  0.91018  1.0000
  H   H1429     1.0  0.87349  0.67246  0.93763  1.0000
  H   H1430     1.0  0.88604  0.70703  0.85430  1.0000
  H   H1431     1.0  0.88414  0.67158  0.82696  1.0000
  C   C830      1.0  0.97233  0.61787  0.71522  1.0000
  C   C831      1.0  0.97206  0.63776  0.73083  1.0000
  N   N59       1.0  0.80114  0.50555  0.56390  1.0000
  H   H1432     1.0  0.95703  0.61102  0.70776  1.0000
  H   H1433     1.0  0.88157  0.68906  0.71294  1.0000
  C   C832      1.0  0.90009  0.52482  0.76133  1.0000
  C   C833      1.0  0.87929  0.52638  0.77552  1.0000
  C   C834      1.0  0.67426  0.87871  0.86972  1.0000
  H   H1434     1.0  0.87261  0.54243  0.78158  1.0000
  H   H1435     1.0  0.82546  0.52397  0.53737  1.0000
  C   C835      1.0  0.73131  0.93824  0.88330  1.0000
  C   C836      1.0  0.89885  0.69209  0.70520  1.0000
  C   C837      1.0  0.90209  0.64439  0.64956  1.0000
  H   H1436     1.0  0.83564  0.68196  0.80509  1.0000
  H   H1437     1.0  0.68990  0.87406  0.91254  1.0000
  H   H1438     1.0  0.87070  0.69082  0.66367  1.0000
  C   C838      1.0  0.83076  0.61818  0.60528  1.0000
  C   C839      1.0  0.81525  0.63022  0.62232  1.0000
  C   C840      1.0  0.81851  0.63331  0.65314  1.0000
  C   C841      1.0  0.83712  0.62417  0.66736  1.0000
  C   C842      1.0  0.85229  0.61157  0.65052  1.0000
  C   C843      1.0  0.84924  0.60883  0.61961  1.0000
  H   H1439     1.0  0.80102  0.63758  0.61158  1.0000
  H   H1440     1.0  0.80663  0.64302  0.66593  1.0000
  H   H1441     1.0  0.86640  0.60399  0.66124  1.0000
  H   H1442     1.0  0.86128  0.59940  0.60665  1.0000
  C   C844      1.0  0.99137  0.56836  0.77538  1.0000
  S   S251      1.0  0.75780  0.83993  0.99499  1.0000
  H   H1443     1.0  0.81076  0.54763  0.59282  1.0000
  H   H1444     1.0  0.67951  0.94456  0.82881  1.0000
  C   C845      1.0  0.67265  0.70116  0.61156  1.0000
  C   C846      1.0  0.91185  0.68184  0.63306  1.0000
  H   H1445     1.0  0.96651  0.59463  0.77325  1.0000
  C   C847      1.0  0.79674  0.54718  0.57735  1.0000
  N   N60       1.0  0.84088  0.78404  0.91142  1.0000
  C   C848      1.0  0.85016  0.80533  0.92306  1.0000
  C   C849      1.0  0.81847  0.78989  0.89920  1.0000
  C   C850      1.0  0.85616  0.77606  0.88659  1.0000
  C   C851      1.0  0.83993  0.76725  0.93685  1.0000
  C   C852      1.0  0.87443  0.80439  0.93273  1.0000
  C   C853      1.0  0.80104  0.79788  0.92252  1.0000
  C   C854      1.0  0.84826  0.75664  0.86779  1.0000
  C   C855      1.0  0.82498  0.74684  0.93339  1.0000
  H   H1446     1.0  0.84890  0.81899  0.90602  1.0000
  H   H1447     1.0  0.84054  0.81110  0.94303  1.0000
  H   H1448     1.0  0.81100  0.77595  0.88751  1.0000
  H   H1449     1.0  0.82001  0.80310  0.88153  1.0000
  H   H1450     1.0  0.85999  0.78994  0.87058  1.0000
  H   H1451     1.0  0.87229  0.77036  0.89578  1.0000
  H   H1452     1.0  0.85680  0.76076  0.94166  1.0000
  H   H1453     1.0  0.83457  0.77530  0.95804  1.0000
  H   H1454     1.0  0.87849  0.82029  0.94339  1.0000
  H   H1455     1.0  0.67502  0.77027  0.55735  1.0000
  H   H1456     1.0  0.88610  0.80230  0.91346  1.0000
  H   H1457     1.0  0.78490  0.80022  0.91148  1.0000
  H   H1458     1.0  0.79852  0.78557  0.94094  1.0000
  H   H1459     1.0  0.80521  0.81413  0.93198  1.0000
  H   H1460     1.0  0.83352  0.76099  0.85457  1.0000
  H   H1461     1.0  0.84551  0.74144  0.88148  1.0000
  H   H1462     1.0  0.86161  0.75227  0.85135  1.0000
  H   H1463     1.0  0.83520  0.73140  0.93357  1.0000
  H   H1464     1.0  0.81510  0.74660  0.91302  1.0000
  H   H1465     1.0  0.67054  0.95162  0.93606  1.0000
  S   S252      1.0  0.79339  0.59146  0.50618  1.0000
  H   H1466     1.0  0.87721  0.79121  0.94971  1.0000
  C   C856      1.0  0.96784  0.57669  0.76815  1.0000
  H   H1467     1.0  0.80198  0.55367  0.55496  1.0000
  H   H1468     1.0  0.96664  0.76229  0.97572  1.0000
  H   H1469     1.0  0.74909  0.63685  0.82832  1.0000
  C   C857      1.0  0.83301  0.66482  0.79731  1.0000
  C   C858      1.0  0.68728  0.72404  0.51673  1.0000
  H   H1470     1.0  0.99258  0.59179  0.69630  1.0000
  C   C859      1.0  0.81577  0.62094  0.82828  1.0000
  H   H1471     1.0  0.69087  0.78841  0.57894  1.0000
  H   H1472     1.0  0.73792  0.00287  0.90235  1.0000
  C   C860      1.0  0.97894  0.52999  0.77269  1.0000
  C   C861      1.0  0.69460  0.95032  0.83991  1.0000
  H   H1473     1.0  0.70132  0.92946  0.92790  1.0000
  C   C862      1.0  0.70789  0.71336  0.52145  1.0000
  H   H1474     1.0  0.84491  0.65375  0.80895  1.0000
  H   H1475     1.0  0.78402  0.55906  0.58598  1.0000
  S   S253      1.0  0.75441  0.95614  0.98775  1.0000
  H   H1476     1.0  0.89150  0.63420  0.66498  1.0000
  N   N61       1.0  0.80447  0.63357  0.80328  1.0000
  C   C863      1.0  0.86340  0.67156  0.62576  1.0000
  H   H1477     1.0  0.89668  0.64072  0.62658  1.0000
  C   C864      1.0  0.98135  0.75693  0.98726  1.0000
  H   H1478     1.0  0.99880  0.72338  0.91278  1.0000
  C   C865      1.0  0.71157  0.69098  0.51389  1.0000
  H   H1479     1.0  0.87047  0.68299  0.60847  1.0000
  C   C866      1.0  0.72746  0.91310  0.88046  1.0000
  H   H1480     1.0  0.80377  0.66550  0.82537  1.0000
  H   H1481     1.0  0.92165  0.71424  0.64970  1.0000
  H   H1482     1.0  0.81328  0.74555  0.95286  1.0000
  H   H1483     1.0  0.72479  0.98780  0.93221  1.0000
  H   H1484     1.0  0.67297  0.73073  0.66741  1.0000
  S   S254      1.0  0.73812  0.67855  0.52065  1.0000
  C   C867      1.0  0.86719  0.50704  0.78211  1.0000
  H   H1485     1.0  0.77015  0.65568  0.83736  1.0000
  H   H1486     1.0  0.91279  0.71438  0.61138  1.0000
  C   C868      1.0  0.67920  0.72559  0.60685  1.0000
  Fe  Fe125     1.0  0.75778  0.59373  0.51942  1.0000
  H   H1487     1.0  0.71683  0.90932  0.86136  1.0000
  H   H1488     1.0  0.72028  0.90556  0.90114  1.0000
  H   H1489     1.0  0.85115  0.50831  0.79312  1.0000
  H   H1490     1.0  0.98551  0.55166  0.71995  1.0000
  H   H1491     1.0  0.92646  0.67413  0.68608  1.0000
  H   H1492     1.0  0.67705  0.95703  0.88102  1.0000
  C   C869      1.0  0.77986  0.62991  0.80438  1.0000
  C   C870      1.0  0.76707  0.63811  0.83231  1.0000
  C   C871      1.0  0.99247  0.60695  0.70886  1.0000
  H   H1493     1.0  0.96374  0.57485  0.74432  1.0000
  N   N62       1.0  0.99766  0.54546  0.76451  1.0000
  H   H1494     1.0  0.70192  0.98695  0.88726  1.0000
  C   C872      1.0  0.74558  0.53641  0.51384  1.0000
  H   H1495     1.0  0.86392  0.65436  0.61754  1.0000
  C   C873      1.0  0.80879  0.65814  0.80364  1.0000
  C   C874      1.0  0.87465  0.67379  0.65620  1.0000
  H   H1496     1.0  0.74828  0.97585  0.91229  1.0000
  C   C875      1.0  0.80860  0.60041  0.76727  1.0000
  H   H1497     1.0  0.95519  0.56816  0.78235  1.0000
  H   H1498     1.0  0.93303  0.63713  0.67402  1.0000
  H   H1499     1.0  0.81851  0.59539  0.74719  1.0000
  C   C876      1.0  0.81082  0.51336  0.53409  1.0000
  C   C877      1.0  0.90817  0.67231  0.68728  1.0000
  C   C878      1.0  0.80373  0.84164  0.00221  1.0000
  H   H1500     1.0  0.80211  0.63905  0.86792  1.0000
  H   H1501     1.0  0.81354  0.58925  0.78599  1.0000
  C   C879      1.0  0.81795  0.63290  0.85839  1.0000
  H   H1502     1.0  0.79108  0.59776  0.76176  1.0000
  H   H1503     1.0  0.93705  0.64199  0.63412  1.0000
  C   C880      1.0  0.73108  0.99704  0.99260  1.0000
  H   H1504     1.0  0.97413  0.72147  0.93511  1.0000
  H   H1505     1.0  0.99614  0.51599  0.70734  1.0000
  H   H1506     1.0  0.72473  0.97894  0.86473  1.0000
  H   H1507     1.0  0.68800  0.72610  0.58471  1.0000
  H   H1508     1.0  0.92549  0.61673  0.64801  1.0000
  C   C881      1.0  0.73297  0.98597  0.90995  1.0000
  H   H1509     1.0  0.92987  0.67833  0.63480  1.0000
  C   C882      1.0  0.92587  0.63489  0.65166  1.0000
  H   H1510     1.0  0.90812  0.67647  0.61001  1.0000
  H   H1511     1.0  0.78049  0.51993  0.59927  1.0000
  C   C883      1.0  0.81311  0.62502  0.77360  1.0000
  H   H1512     1.0  0.70870  0.94064  0.83046  1.0000
  H   H1513     1.0  0.73857  0.94409  0.86149  1.0000
  C   C884      1.0  0.90956  0.70730  0.63416  1.0000
  H   H1514     1.0  0.90519  0.65754  0.70209  1.0000
  N   N63       1.0  0.89912  0.66869  0.65648  1.0000
  C   C885      1.0  0.67155  0.76542  0.60644  1.0000
  H   H1515     1.0  0.86578  0.66289  0.67272  1.0000
  N   N64       1.0  0.71141  0.95214  0.89235  1.0000
  H   H1516     1.0  0.79857  0.66704  0.78669  1.0000
  H   H1517     1.0  0.83292  0.61602  0.82139  1.0000
  H   H1518     1.0  0.80731  0.60497  0.83322  1.0000
  H   H1519     1.0  0.77040  0.62724  0.85202  1.0000
  H   H1520     1.0  0.72118  0.72251  0.53099  1.0000
  C   C886      1.0  0.78640  0.52390  0.57606  1.0000
  C   C887      1.0  0.67729  0.88300  0.90027  1.0000
  H   H1521     1.0  0.99193  0.66202  0.75214  1.0000
  H   H1522     1.0  0.79875  0.52414  0.52205  1.0000
  H   H1523     1.0  0.77124  0.52577  0.56255  1.0000
  C   C888      1.0  0.99204  0.64658  0.74017  1.0000
  H   H1524     1.0  0.69997  0.76033  0.57514  1.0000
  H   H1525     1.0  0.68464  0.86647  0.85864  1.0000
  H   H1526     1.0  0.78424  0.98897  0.96875  1.0000
  H   H1527     1.0  0.68314  0.76737  0.62512  1.0000
  H   H1528     1.0  0.68450  0.97742  0.92917  1.0000
  C   C889      1.0  0.68505  0.77107  0.57765  1.0000
  C   C890      1.0  0.73370  0.51752  0.52286  1.0000
  Fe  Fe126     1.0  0.75650  0.64485  0.51426  1.0000
  H   H1529     1.0  0.98195  0.69886  0.91181  1.0000
  C   C891      1.0  0.98860  0.71181  0.92637  1.0000
  H   H1530     1.0  0.98901  0.68935  0.96348  1.0000
  H   H1531     1.0  0.69247  0.72931  0.62281  1.0000
  C   C892      1.0  0.00089  0.70136  0.95310  1.0000
  S   S255      1.0  0.85446  0.73054  0.99745  1.0000
  H   H1532     1.0  0.68686  0.69173  0.62098  1.0000
  H   H1533     1.0  0.82951  0.51601  0.58821  1.0000
  C   C893      1.0  0.66982  0.71249  0.50448  1.0000
  H   H1534     1.0  0.71684  0.98792  0.00069  1.0000
  H   H1535     1.0  0.77360  0.79482  0.99824  1.0000
  Fe  Fe127     1.0  0.73927  0.87356  0.00043  1.0000
  H   H1536     1.0  0.80197  0.85951  0.00159  1.0000
  Fe  Fe128     1.0  0.73503  0.92501  0.00009  1.0000
  C   C894      1.0  0.78503  0.82849  0.99941  1.0000
  C   C895      1.0  0.78787  0.80524  0.00028  1.0000
  S   S256      1.0  0.90250  0.70431  0.00143  1.0000
  C   C896      1.0  0.00242  0.76368  0.97669  1.0000
