data_image0
_chemical_formula_structural       FeS2FeS2FeSFeS3CHSFeSH2CFeSH3S2H2CSH2C3H2C6H4C3H2C6H4C6H8C4H3SHCHCH4CFeH3C2NH8NH2C2HCHCHCH2C2H4FeHCH2CH2SHCH2NCHNH4CH2FeNC8H7CHC2H3CH2CH6C2H2CH2CH2SHCH7CH3C3H5CH5NHFeS2FeS2FeSFeS3HCSFeS2CHFeSH2S2H2CHFeSHC2HCSC6H4C2H3C6H4C6H3CH4CHC2H3CH3SH2NHCH2NC5HC2H8CH4SH5CH2FeH3NC8H7CH3C2H7NC8H25SHC2HSH3CH3C2H3Fe2S2FeS2FeSFeS3Fe2SHC2H2FeC2SH2FeSH2CHC7H4C6H4C6H5C2H10NCH3SCHC4H3CNH4FeH2SC2HCSHCNCHSCH2CHNC8H21C2H2CHCSH2NC2HSH2C2H4CHCHC2H10CSC3SCH21CHFeS2FeS2FeSFeS3FeCSHCHCSFeSHSH2FeSCH4C6H4C6H4C6H10CHSHNC8H11CH5CH7NC2HC2H4CHCHSCH6SHFeCH3NC5HC2H3CH12CH3CH6C2HSNC4HCH8CH7NC5H2CHFeH2C2HCH7C2SFeS2FeSFeS4HCHFeS2C2SFeSCHS2H2SFeS3HFeSCH6CHCSH2C3H2CNH3FeSC6H4C6H4CHC2HC6H4C6H4NC6HFeH5CH8SH3CHNC8H20CHC2H2S2H5CHC3HC2H4FeHCH6FeCHC2NH3CHCH2NHCH2FeH4CHCH2CH2FeC2SH4C2H3C2HSHCSHSHFeSFeS2H2SC2FeSFeHCSFeSHCSCH2SFeSC3FeSHSHCH2C2HFeH2SCHCH2CH3C2HC6H4C6H4FeH2CHC6H4C6H4NHC3HCHCFeH8CFeH2NSH3S2H3NC4H7CH2CHCH4C2HNH3CH2CH4C3HCH2CH9CNC8H20C3HCH2NHSHCSHCS2H3CFeHCSHSH2FeHC3H3FeSFeSFeH2S2H2NHSH3FeS2NSCHS2FeC2FeS2FeSHS3C5H2CH2C6H4C6H3C6H4C6H5CFeCHCHSH4C3H2SNC7H10SH5CNC8H20CH2SH5CH2CHCHSHC2HC5H2CH5C2HCHCHC2H3SCH2SNH5NH6NC8H16SH4C2SH3CH2Fe2HCHSFeCHCH4CFeHCFeHCH2CHFeSFeSH3S2H4SH2CFeS4HCS2FeCHFeS2FeSCS2C5H4CHCHC4H4C6H3C6H4C6H4CSHCH4SH8CH3SC2SCH9NHCHCSHCHCNH4C2SH2CH5CHCHCH2FeCFeCNHC2HC2H2CHC2H9CH5CH5C2SC2H3NC2HCH6CHFeH3SHSHC3H2CN2C4H2C2H2CH4C2HC3H4CHCH3FeCHCFeHSH4FeH8CH2CH2FeS2FeS2FeSFeS3FeS2HS2FeSFeS3FeNSCHS2H2CH2SCH2SNC6H4CHCH2C6H4C6H5CH2CHC2HCH4CH6NC4H2CH12CH2C4H11NC6HCH8CH6CH7C3HCNH2FeCH3C3H2CHC2H4C2H9CHCHCH6FeS2FeS2FeSFeS3FeS2CH2FeSFeHSCFeHS3H3CH3CH2SHSC6H4C2H3C6H4C6H7SH3C2H4CH4C2SH3CHCH3FeHNC8H10CH3CFeH2NHNC7HNH8CH10CHCHC2HC3H2CH5FeHCH2CH3NH4C2H6C2H3CH2C2SHCH2C3H3FeS2FeS2FeSFeS3FeH2FeS2FeSHS3FeHSFeS2HCH3C2SC6H4C6H4C6H4C3HCHC2HCH2CH10CNC8H20NC8H20C2HCHCFeH4CHSCSHC2HCHC3NH4NCHC3H3CH3CHC2SH11CNH3C2HCHSH3CH6CH2CH4CH6C2HFeS2FeS2FeSFeS3FeCSFeCSFeHS4FeHSHS2H8C6H4C6H4C6H4CHCH3CH3NHC4HC4HCH9CHCNHCH3C2HCH2CH2CHC2HC2HCHCNCH3C2H4CHNC7H15NC5HC2H8CH5CH16CHFeH8CSFeH4CFeH
_chemical_formula_sum              "Fe128 S256 C896 H1536 N64"
_cell_length_a       72.7522
_cell_length_b       36.6059
_cell_length_c       44.7875
_cell_angle_alpha    91.3831
_cell_angle_beta     91.4239
_cell_angle_gamma    90.217

_space_group_name_H-M_alt    "P 1"
_space_group_IT_number       1

loop_
  _space_group_symop_operation_xyz
  'x, y, z'

loop_
  _atom_site_type_symbol
  _atom_site_label
  _atom_site_symmetry_multiplicity
  _atom_site_fract_x
  _atom_site_fract_y
  _atom_site_fract_z
  _atom_site_occupancy
  Fe  Fe1       1.0  0.17837  0.24344  0.27152  1.0000
  S   S1        1.0  0.19603  0.19658  0.25678  1.0000
  S   S2        1.0  0.16674  0.28942  0.24297  1.0000
  Fe  Fe2       1.0  0.18463  0.22705  0.33789  1.0000
  S   S3        1.0  0.20269  0.17835  0.32785  1.0000
  S   S4        1.0  0.18293  0.25101  0.38542  1.0000
  Fe  Fe3       1.0  0.21589  0.21370  0.29386  1.0000
  S   S5        1.0  0.24670  0.20769  0.28607  1.0000
  Fe  Fe4       1.0  0.18176  0.16396  0.29168  1.0000
  S   S6        1.0  0.17314  0.10644  0.27550  1.0000
  S   S7        1.0  0.19942  0.26312  0.30619  1.0000
  S   S8        1.0  0.16250  0.21013  0.30410  1.0000
  C   C1        1.0  0.25060  0.06978  0.26224  1.0000
  H   H1        1.0  0.19382  0.35195  0.33382  1.0000
  S   S9        1.0  0.11544  0.29569  0.46681  1.0000
  Fe  Fe5       1.0  0.07893  0.34389  0.04423  1.0000
  S   S10       1.0  0.08600  0.36160  0.09153  1.0000
  H   H2        1.0  0.12082  0.28030  0.30004  1.0000
  H   H3        1.0  0.16825  0.17052  0.43523  1.0000
  C   C2        1.0  0.12395  0.19531  0.48260  1.0000
  Fe  Fe6       1.0  0.11048  0.32413  0.08827  1.0000
  S   S11       1.0  0.11933  0.27978  0.12070  1.0000
  H   H4        1.0  0.17194  0.29157  0.13639  1.0000
  H   H5        1.0  0.14339  0.23535  0.37996  1.0000
  H   H6        1.0  0.33957  0.41505  0.33757  1.0000
  S   S12       1.0  0.30739  0.33348  0.29943  1.0000
  S   S13       1.0  0.10188  0.30268  0.04220  1.0000
  H   H7        1.0  0.16708  0.33415  0.05028  1.0000
  H   H8        1.0  0.32846  0.21066  0.06765  1.0000
  C   C3        1.0  0.15209  0.26797  0.03947  1.0000
  S   S14       1.0  0.12933  0.36712  0.07083  1.0000
  H   H9        1.0  0.15574  0.22362  0.46282  1.0000
  H   H10       1.0  0.14257  0.29172  0.03992  1.0000
  C   C4        1.0  0.18179  0.02481  0.33518  1.0000
  C   C5        1.0  0.02928  0.33724  0.03822  1.0000
  C   C6        1.0  0.02762  0.34388  0.06892  1.0000
  H   H11       1.0  0.13414  0.40956  0.29831  1.0000
  H   H12       1.0  0.18164  0.32296  0.11154  1.0000
  C   C7        1.0  0.26314  0.24359  0.28877  1.0000
  C   C8        1.0  0.28126  0.23665  0.28000  1.0000
  C   C9        1.0  0.29486  0.26417  0.28235  1.0000
  C   C10       1.0  0.29051  0.29879  0.29393  1.0000
  C   C11       1.0  0.27239  0.30580  0.30260  1.0000
  C   C12       1.0  0.25875  0.27837  0.29999  1.0000
  H   H13       1.0  0.28477  0.20988  0.27116  1.0000
  H   H14       1.0  0.30871  0.25858  0.27530  1.0000
  H   H15       1.0  0.26889  0.33249  0.31160  1.0000
  H   H16       1.0  0.24487  0.28405  0.30685  1.0000
  C   C13       1.0  0.17465  0.06323  0.29284  1.0000
  C   C14       1.0  0.17108  0.03132  0.27544  1.0000
  C   C15       1.0  0.17995  0.05977  0.32287  1.0000
  H   H17       1.0  0.16685  0.03363  0.25223  1.0000
  H   H18       1.0  0.18261  0.08400  0.33662  1.0000
  C   C16       1.0  0.15382  0.28602  0.20872  1.0000
  C   C17       1.0  0.14883  0.31827  0.19407  1.0000
  C   C18       1.0  0.13835  0.31697  0.16709  1.0000
  C   C19       1.0  0.13262  0.28331  0.15456  1.0000
  C   C20       1.0  0.13771  0.25109  0.16912  1.0000
  C   C21       1.0  0.14827  0.25238  0.19600  1.0000
  H   H19       1.0  0.15306  0.34445  0.20368  1.0000
  H   H20       1.0  0.13456  0.34197  0.15616  1.0000
  H   H21       1.0  0.13333  0.22490  0.15967  1.0000
  H   H22       1.0  0.15193  0.22735  0.20701  1.0000
  C   C22       1.0  0.16378  0.26455  0.40677  1.0000
  C   C23       1.0  0.16681  0.28679  0.43251  1.0000
  C   C24       1.0  0.15214  0.29721  0.45083  1.0000
  C   C25       1.0  0.13426  0.28532  0.44363  1.0000
  C   C26       1.0  0.13120  0.26332  0.41774  1.0000
  C   C27       1.0  0.14588  0.25288  0.39944  1.0000
  H   H23       1.0  0.18062  0.29589  0.43842  1.0000
  H   H24       1.0  0.15469  0.31422  0.47061  1.0000
  H   H25       1.0  0.11741  0.25392  0.41202  1.0000
  H   H26       1.0  0.31736  0.20950  0.31179  1.0000
  H   H27       1.0  0.14097  0.13636  0.50075  1.0000
  H   H28       1.0  0.17960  0.31819  0.34929  1.0000
  H   H29       1.0  0.21216  0.08777  0.30389  1.0000
  H   H30       1.0  0.22928  0.05427  0.31089  1.0000
  C   C28       1.0  0.18290  0.24567  0.05809  1.0000
  C   C29       1.0  0.32488  0.26298  0.04720  1.0000
  C   C30       1.0  0.28261  0.42647  0.28485  1.0000
  C   C31       1.0  0.01006  0.34658  0.08146  1.0000
  H   H31       1.0  0.18580  0.02242  0.35846  1.0000
  H   H32       1.0  0.21073  0.12188  0.25958  1.0000
  H   H33       1.0  0.11622  0.30038  0.33640  1.0000
  S   S15       1.0  0.05104  0.33188  0.02148  1.0000
  H   H34       1.0  0.12306  0.36776  0.34130  1.0000
  C   C32       1.0  0.32091  0.49631  0.31097  1.0000
  H   H35       1.0  0.13537  0.36823  0.39350  1.0000
  C   C33       1.0  0.10717  0.19780  0.50302  1.0000
  H   H36       1.0  0.05076  0.46451  0.50932  1.0000
  H   H37       1.0  0.28927  0.22769  0.40697  1.0000
  H   H38       1.0  0.14389  0.16915  0.43508  1.0000
  H   H39       1.0  0.12176  0.17011  0.46856  1.0000
  C   C34       1.0  0.17738  0.31168  0.04880  1.0000
  Fe  Fe7       1.0  0.11927  0.34774  0.02502  1.0000
  H   H40       1.0  0.26904  0.43290  0.27439  1.0000
  H   H41       1.0  0.22551  0.14658  0.21346  1.0000
  H   H42       1.0  0.23313  0.13883  0.26400  1.0000
  C   C35       1.0  0.31186  0.43836  0.33267  1.0000
  C   C36       1.0  0.26483  0.10146  0.26359  1.0000
  N   N1        1.0  0.31978  0.24764  0.37253  1.0000
  H   H43       1.0  0.15651  0.25681  0.09887  1.0000
  H   H44       1.0  0.17110  0.19715  0.48413  1.0000
  H   H45       1.0  0.28988  0.40864  0.26867  1.0000
  H   H46       1.0  0.15532  0.26426  0.01563  1.0000
  H   H47       1.0  0.32751  0.26853  0.32976  1.0000
  H   H48       1.0  0.09454  0.20052  0.48879  1.0000
  H   H49       1.0  0.32999  0.18543  0.34024  1.0000
  H   H50       1.0  0.13094  0.22684  0.02969  1.0000
  N   N2        1.0  0.16902  0.27626  0.05859  1.0000
  H   H51       1.0  0.03985  0.34642  0.08307  1.0000
  H   H52       1.0  0.22134  0.04722  0.22888  1.0000
  C   C37       1.0  0.32078  0.28598  0.38571  1.0000
  C   C38       1.0  0.32434  0.43750  0.28264  1.0000
  H   H53       1.0  0.31830  0.19310  0.39044  1.0000
  C   C39       1.0  0.22689  0.08115  0.30053  1.0000
  H   H54       1.0  0.28260  0.27222  0.39323  1.0000
  C   C40       1.0  0.23831  0.10840  0.32005  1.0000
  H   H55       1.0  0.34229  0.28581  0.42105  1.0000
  C   C41       1.0  0.14089  0.23412  0.04812  1.0000
  H   H56       1.0  0.31974  0.40849  0.28101  1.0000
  H   H57       1.0  0.23711  0.13684  0.31247  1.0000
  C   C42       1.0  0.16275  0.28218  0.09026  1.0000
  C   C43       1.0  0.18514  0.31199  0.01714  1.0000
  H   H58       1.0  0.30664  0.41001  0.32862  1.0000
  H   H59       1.0  0.12587  0.39287  0.26249  1.0000
  H   H60       1.0  0.12291  0.21840  0.46698  1.0000
  H   H61       1.0  0.26100  0.12581  0.27703  1.0000
  Fe  Fe8       1.0  0.33812  0.32637  0.29242  1.0000
  H   H62       1.0  0.11719  0.45423  0.51254  1.0000
  C   C44       1.0  0.15628  0.16695  0.44987  1.0000
  H   H63       1.0  0.15415  0.33995  0.38315  1.0000
  H   H64       1.0  0.17727  0.36617  0.36019  1.0000
  C   C45       1.0  0.33040  0.43399  0.34974  1.0000
  H   H65       1.0  0.12680  0.25627  0.33302  1.0000
  H   H66       1.0  0.13088  0.32344  0.37899  1.0000
  S   S16       1.0  0.10265  0.46188  0.08904  1.0000
  H   H67       1.0  0.29586  0.25982  0.34479  1.0000
  C   C46       1.0  0.30007  0.24056  0.36249  1.0000
  H   H68       1.0  0.17898  0.22443  0.07425  1.0000
  H   H69       1.0  0.32079  0.28722  0.06088  1.0000
  N   N3        1.0  0.31255  0.45898  0.30390  1.0000
  C   C47       1.0  0.29307  0.46260  0.29202  1.0000
  H   H70       1.0  0.23303  0.10834  0.34312  1.0000
  N   N4        1.0  0.23080  0.07965  0.26759  1.0000
  H   H71       1.0  0.33190  0.47877  0.25019  1.0000
  H   H72       1.0  0.25531  0.04882  0.27833  1.0000
  H   H73       1.0  0.15175  0.30323  0.09112  1.0000
  H   H74       1.0  0.15000  0.39453  0.26977  1.0000
  C   C48       1.0  0.32541  0.21968  0.39528  1.0000
  H   H75       1.0  0.18998  0.27619  0.11310  1.0000
  H   H76       1.0  0.21520  0.10254  0.20843  1.0000
  Fe  Fe9       1.0  0.10435  0.40343  0.07067  1.0000
  N   N5        1.0  0.14630  0.34175  0.31970  1.0000
  C   C49       1.0  0.13558  0.34955  0.29121  1.0000
  C   C50       1.0  0.14556  0.30106  0.32404  1.0000
  C   C51       1.0  0.16603  0.35281  0.31519  1.0000
  C   C52       1.0  0.13808  0.36354  0.34518  1.0000
  C   C53       1.0  0.13661  0.38911  0.28022  1.0000
  C   C54       1.0  0.12613  0.28393  0.32340  1.0000
  C   C55       1.0  0.17966  0.34661  0.34142  1.0000
  C   C56       1.0  0.13993  0.34754  0.37672  1.0000
  H   H77       1.0  0.14006  0.33129  0.27253  1.0000
  H   H78       1.0  0.12069  0.34354  0.29372  1.0000
  H   H79       1.0  0.15245  0.29317  0.34526  1.0000
  H   H80       1.0  0.15341  0.28668  0.30629  1.0000
  H   H81       1.0  0.17154  0.33824  0.29518  1.0000
  H   H82       1.0  0.16715  0.38242  0.31064  1.0000
  H   H83       1.0  0.14407  0.39160  0.34656  1.0000
  C   C57       1.0  0.18544  0.22494  0.02788  1.0000
  H   H84       1.0  0.31650  0.30613  0.36855  1.0000
  C   C58       1.0  0.32994  0.21000  0.32631  1.0000
  C   C59       1.0  0.12310  0.49720  0.04697  1.0000
  H   H85       1.0  0.15728  0.13922  0.45912  1.0000
  H   H86       1.0  0.34188  0.20811  0.31136  1.0000
  H   H87       1.0  0.18910  0.32014  0.06378  1.0000
  C   C60       1.0  0.17768  0.29387  0.11373  1.0000
  H   H88       1.0  0.24000  0.10713  0.21187  1.0000
  H   H89       1.0  0.13261  0.24000  0.06814  1.0000
  C   C61       1.0  0.10940  0.49993  0.06827  1.0000
  H   H90       1.0  0.33164  0.27295  0.02716  1.0000
  H   H91       1.0  0.33615  0.49525  0.31004  1.0000
  H   H92       1.0  0.19760  0.29477  0.01548  1.0000
  H   H93       1.0  0.31107  0.28957  0.40428  1.0000
  H   H94       1.0  0.25294  0.10014  0.32166  1.0000
  H   H95       1.0  0.27793  0.09137  0.27358  1.0000
  C   C62       1.0  0.32528  0.45157  0.25063  1.0000
  C   C63       1.0  0.15694  0.19724  0.47442  1.0000
  H   H96       1.0  0.12920  0.47092  0.04194  1.0000
  H   H97       1.0  0.31163  0.45188  0.23914  1.0000
  C   C64       1.0  0.33950  0.29859  0.39918  1.0000
  H   H98       1.0  0.32090  0.22845  0.41793  1.0000
  H   H99       1.0  0.31190  0.24927  0.03945  1.0000
  C   C65       1.0  0.22672  0.11755  0.21998  1.0000
  H   H100      1.0  0.27973  0.41104  0.30523  1.0000
  H   H101      1.0  0.19665  0.25602  0.06589  1.0000
  S   S17       1.0  0.09586  0.38780  0.02359  1.0000
  H   H102      1.0  0.29843  0.21269  0.35227  1.0000
  C   C66       1.0  0.28548  0.24335  0.38688  1.0000
  H   H103      1.0  0.16778  0.26083  0.50516  1.0000
  H   H104      1.0  0.27229  0.23184  0.37767  1.0000
  H   H105      1.0  0.14960  0.20994  0.05218  1.0000
  H   H106      1.0  0.30214  0.45175  0.34833  1.0000
  H   H107      1.0  0.26824  0.10997  0.24073  1.0000
  H   H108      1.0  0.31801  0.50542  0.33432  1.0000
  H   H109      1.0  0.17778  0.19862  0.02736  1.0000
  C   C67       1.0  0.33646  0.23656  0.06653  1.0000
  H   H110      1.0  0.20014  0.21735  0.02591  1.0000
  H   H111      1.0  0.28475  0.47856  0.30830  1.0000
  H   H112      1.0  0.33770  0.46025  0.35432  1.0000
  C   C68       1.0  0.21854  0.05049  0.25310  1.0000
  C   C69       1.0  0.22525  0.11549  0.25419  1.0000
  C   C70       1.0  0.01320  0.33389  0.02020  1.0000
  H   H113      1.0  0.29249  0.47832  0.27115  1.0000
  H   H114      1.0  0.33910  0.32857  0.40362  1.0000
  H   H115      1.0  0.33663  0.24816  0.08980  1.0000
  H   H116      1.0  0.13566  0.25153  0.50986  1.0000
  H   H117      1.0  0.06197  0.42153  0.50432  1.0000
  C   C71       1.0  0.33129  0.24598  0.34501  1.0000
  H   H118      1.0  0.25184  0.05676  0.23962  1.0000
  H   H119      1.0  0.33405  0.43283  0.23735  1.0000
  H   H120      1.0  0.20384  0.05864  0.25408  1.0000
  H   H121      1.0  0.32790  0.42152  0.37164  1.0000
  H   H122      1.0  0.33880  0.43652  0.29123  1.0000
  N   N6        1.0  0.14261  0.19525  0.49818  1.0000
  H   H123      1.0  0.10329  0.51094  0.49284  1.0000
  Fe  Fe10      1.0  0.16140  0.22421  0.77895  1.0000
  S   S18       1.0  0.18968  0.20503  0.76822  1.0000
  S   S19       1.0  0.13926  0.24235  0.74566  1.0000
  Fe  Fe11      1.0  0.16762  0.21422  0.84678  1.0000
  S   S20       1.0  0.19667  0.19373  0.84070  1.0000
  S   S21       1.0  0.15192  0.21418  0.89057  1.0000
  Fe  Fe12      1.0  0.19922  0.23942  0.80798  1.0000
  S   S22       1.0  0.22087  0.28431  0.80470  1.0000
  Fe  Fe13      1.0  0.18483  0.16059  0.80140  1.0000
  S   S23       1.0  0.19288  0.10344  0.78438  1.0000
  S   S24       1.0  0.17091  0.26175  0.81671  1.0000
  S   S25       1.0  0.15580  0.17791  0.80954  1.0000
  H   H124      1.0  0.32724  0.10941  0.58104  1.0000
  C   C72       1.0  0.08171  0.27014  0.96923  1.0000
  S   S26       1.0  0.13956  0.34313  0.98687  1.0000
  Fe  Fe14      1.0  0.09077  0.34642  0.56353  1.0000
  S   S27       1.0  0.11455  0.36079  0.59498  1.0000
  S   S28       1.0  0.06270  0.36285  0.58104  1.0000
  C   C73       1.0  0.16779  0.02161  0.82898  1.0000
  H   H125      1.0  0.12534  0.10498  0.79709  1.0000
  Fe  Fe15      1.0  0.12766  0.30882  0.57903  1.0000
  S   S29       1.0  0.14526  0.26907  0.60605  1.0000
  H   H126      1.0  0.01432  0.32864  0.99646  1.0000
  H   H127      1.0  0.16497  0.29028  0.89473  1.0000
  S   S30       1.0  0.14079  0.44168  0.56451  1.0000
  S   S31       1.0  0.30762  0.26461  0.79321  1.0000
  H   H128      1.0  0.14802  0.10396  0.78345  1.0000
  H   H129      1.0  0.34228  0.38911  0.90873  1.0000
  C   C74       1.0  0.13142  0.48180  0.54926  1.0000
  H   H130      1.0  0.13364  0.16013  0.53325  1.0000
  Fe  Fe16      1.0  0.33018  0.30807  0.79338  1.0000
  S   S32       1.0  0.14197  0.33584  0.54121  1.0000
  H   H131      1.0  0.17143  0.11064  0.69207  1.0000
  C   C75       1.0  0.03947  0.32056  0.54411  1.0000
  C   C76       1.0  0.04107  0.34878  0.56560  1.0000
  H   H132      1.0  0.18208  0.15009  0.70887  1.0000
  C   C77       1.0  0.13341  0.09999  0.77666  1.0000
  S   S33       1.0  0.10290  0.29185  0.55064  1.0000
  C   C78       1.0  0.24495  0.27821  0.80161  1.0000
  C   C79       1.0  0.25640  0.30922  0.80075  1.0000
  C   C80       1.0  0.27561  0.30564  0.79823  1.0000
  C   C81       1.0  0.28354  0.27092  0.79639  1.0000
  C   C82       1.0  0.27204  0.23995  0.79698  1.0000
  C   C83       1.0  0.25285  0.24352  0.79960  1.0000
  H   H133      1.0  0.25041  0.33617  0.80228  1.0000
  H   H134      1.0  0.28428  0.32968  0.79777  1.0000
  H   H135      1.0  0.27804  0.21299  0.79554  1.0000
  H   H136      1.0  0.24421  0.21945  0.80017  1.0000
  C   C84       1.0  0.18396  0.06051  0.79488  1.0000
  C   C85       1.0  0.17363  0.05659  0.82053  1.0000
  H   H137      1.0  0.17395  0.22537  0.53069  1.0000
  H   H138      1.0  0.17047  0.08041  0.83422  1.0000
  H   H139      1.0  0.33647  0.10069  0.53042  1.0000
  C   C86       1.0  0.14204  0.25195  0.70740  1.0000
  C   C87       1.0  0.12851  0.27243  0.69246  1.0000
  C   C88       1.0  0.12959  0.27881  0.66163  1.0000
  C   C89       1.0  0.14402  0.26404  0.64527  1.0000
  C   C90       1.0  0.15760  0.24361  0.66026  1.0000
  C   C91       1.0  0.15672  0.23789  0.69122  1.0000
  H   H140      1.0  0.11703  0.28325  0.70472  1.0000
  H   H141      1.0  0.11901  0.29445  0.65039  1.0000
  H   H142      1.0  0.16878  0.23197  0.64776  1.0000
  H   H143      1.0  0.16711  0.22180  0.70240  1.0000
  C   C92       1.0  0.14854  0.25067  0.91681  1.0000
  C   C93       1.0  0.13754  0.24462  0.94168  1.0000
  C   C94       1.0  0.13447  0.27268  0.96311  1.0000
  C   C95       1.0  0.14249  0.30711  0.96007  1.0000
  C   C96       1.0  0.15351  0.31317  0.93528  1.0000
  C   C97       1.0  0.15645  0.28521  0.91367  1.0000
  H   H144      1.0  0.13140  0.21798  0.94438  1.0000
  H   H145      1.0  0.12614  0.26749  0.98220  1.0000
  H   H146      1.0  0.15986  0.33966  0.93274  1.0000
  C   C98       1.0  0.08532  0.48918  0.58473  1.0000
  H   H147      1.0  0.04579  0.35116  0.93829  1.0000
  H   H148      1.0  0.07637  0.42620  0.55454  1.0000
  H   H149      1.0  0.07507  0.26935  0.99131  1.0000
  H   H150      1.0  0.03983  0.46365  0.57147  1.0000
  C   C99       1.0  0.02503  0.36590  0.57580  1.0000
  H   H151      1.0  0.16010  0.01885  0.84917  1.0000
  C   C100      1.0  0.04739  0.49197  0.61206  1.0000
  C   C101      1.0  0.16328  0.24548  0.52481  1.0000
  H   H152      1.0  0.07813  0.32785  0.97762  1.0000
  H   H153      1.0  0.17488  0.30397  0.99953  1.0000
  H   H154      1.0  0.05603  0.44020  0.59383  1.0000
  C   C102      1.0  0.05651  0.44091  0.52138  1.0000
  H   H155      1.0  0.08419  0.44181  0.61471  1.0000
  H   H156      1.0  0.09454  0.25395  0.97081  1.0000
  H   H157      1.0  0.05896  0.49593  0.62839  1.0000
  S   S34       1.0  0.33929  0.34227  0.83361  1.0000
  H   H158      1.0  0.13802  0.22292  0.54101  1.0000
  H   H159      1.0  0.13107  0.07106  0.76963  1.0000
  N   N7        1.0  0.06801  0.48146  0.56634  1.0000
  H   H160      1.0  0.19587  0.03193  0.75745  1.0000
  C   C103      1.0  0.07231  0.45185  0.54355  1.0000
  H   H161      1.0  0.32712  0.42609  0.90101  1.0000
  H   H162      1.0  0.03624  0.47814  0.62407  1.0000
  N   N8        1.0  0.13662  0.12390  0.72308  1.0000
  C   C104      1.0  0.15620  0.13644  0.72904  1.0000
  C   C105      1.0  0.12689  0.12673  0.75243  1.0000
  C   C106      1.0  0.12806  0.14935  0.70056  1.0000
  C   C107      1.0  0.13711  0.08526  0.71075  1.0000
  C   C108      1.0  0.16857  0.13823  0.70157  1.0000
  H   H163      1.0  0.08425  0.45989  0.53014  1.0000
  C   C109      1.0  0.10697  0.15355  0.70028  1.0000
  C   C110      1.0  0.11848  0.06553  0.70592  1.0000
  H   H164      1.0  0.15646  0.16411  0.74001  1.0000
  H   H165      1.0  0.16345  0.11815  0.74475  1.0000
  H   H166      1.0  0.11189  0.12203  0.74971  1.0000
  H   H167      1.0  0.12809  0.15512  0.76193  1.0000
  H   H168      1.0  0.13343  0.17764  0.70421  1.0000
  H   H169      1.0  0.13194  0.14132  0.67743  1.0000
  H   H170      1.0  0.14361  0.08444  0.68853  1.0000
  H   H171      1.0  0.14630  0.06768  0.72454  1.0000
  C   C111      1.0  0.23273  0.03694  0.81765  1.0000
  H   H172      1.0  0.16287  0.15601  0.68396  1.0000
  H   H173      1.0  0.05169  0.30715  0.53611  1.0000
  H   H174      1.0  0.24790  0.03809  0.81813  1.0000
  H   H175      1.0  0.32799  0.15288  0.59997  1.0000
  S   S35       1.0  0.10252  0.37549  0.52460  1.0000
  H   H176      1.0  0.09957  0.12716  0.69855  1.0000
  H   H177      1.0  0.10269  0.16971  0.68061  1.0000
  H   H178      1.0  0.10251  0.16936  0.72031  1.0000
  H   H179      1.0  0.11243  0.07123  0.68350  1.0000
  H   H180      1.0  0.10838  0.07224  0.72321  1.0000
  C   C112      1.0  0.11998  0.48024  0.52374  1.0000
  H   H181      1.0  0.30513  0.50458  0.74810  1.0000
  H   H182      1.0  0.03482  0.31012  0.92506  1.0000
  Fe  Fe17      1.0  0.12689  0.38682  0.55522  1.0000
  H   H183      1.0  0.02615  0.38765  0.59252  1.0000
  H   H184      1.0  0.04838  0.30931  0.95869  1.0000
  H   H185      1.0  0.16200  0.12659  0.54238  1.0000
  N   N9        1.0  0.08278  0.32203  0.93007  1.0000
  C   C113      1.0  0.08326  0.36336  0.92997  1.0000
  C   C114      1.0  0.06423  0.31037  0.91724  1.0000
  C   C115      1.0  0.09786  0.30828  0.91017  1.0000
  C   C116      1.0  0.08598  0.31032  0.96185  1.0000
  C   C117      1.0  0.10196  0.38155  0.93814  1.0000
  C   C118      1.0  0.04756  0.32116  0.93616  1.0000
  C   C119      1.0  0.09723  0.26766  0.90026  1.0000
  C   C120      1.0  0.02196  0.30913  0.53336  1.0000
  H   H186      1.0  0.07897  0.37360  0.90762  1.0000
  H   H187      1.0  0.07335  0.37520  0.94606  1.0000
  H   H188      1.0  0.06322  0.28046  0.91340  1.0000
  H   H189      1.0  0.06202  0.32179  0.89458  1.0000
  H   H190      1.0  0.09804  0.32406  0.88918  1.0000
  H   H191      1.0  0.11157  0.31284  0.92118  1.0000
  H   H192      1.0  0.10051  0.31538  0.96910  1.0000
  C   C121      1.0  0.09404  0.45640  0.60071  1.0000
  H   H193      1.0  0.10025  0.41170  0.93865  1.0000
  H   H194      1.0  0.10700  0.37407  0.96065  1.0000
  H   H195      1.0  0.11259  0.37517  0.92149  1.0000
  C   C122      1.0  0.18797  0.02918  0.77743  1.0000
  C   C123      1.0  0.05267  0.46768  0.58517  1.0000
  H   H196      1.0  0.12062  0.03559  0.70756  1.0000
  H   H197      1.0  0.08567  0.26168  0.88425  1.0000
  H   H198      1.0  0.09688  0.24901  0.91923  1.0000
  H   H199      1.0  0.11003  0.26114  0.88816  1.0000
  H   H200      1.0  0.16265  0.26543  0.54383  1.0000
  H   H201      1.0  0.07207  0.25585  0.95357  1.0000
  H   H202      1.0  0.10034  0.43702  0.58459  1.0000
  N   N10       1.0  0.19553  0.32713  0.72057  1.0000
  C   C124      1.0  0.17500  0.33310  0.72139  1.0000
  C   C125      1.0  0.20165  0.33655  0.68973  1.0000
  C   C126      1.0  0.20457  0.35241  0.74395  1.0000
  C   C127      1.0  0.19922  0.28770  0.72761  1.0000
  C   C128      1.0  0.16613  0.32804  0.75198  1.0000
  C   C129      1.0  0.19270  0.31415  0.66349  1.0000
  C   C130      1.0  0.22421  0.36627  0.73804  1.0000
  C   C131      1.0  0.21897  0.27397  0.72347  1.0000
  H   H203      1.0  0.17145  0.36109  0.71388  1.0000
  H   H204      1.0  0.16752  0.31393  0.70571  1.0000
  H   H205      1.0  0.21672  0.33334  0.68760  1.0000
  H   H206      1.0  0.19886  0.36593  0.68547  1.0000
  H   H207      1.0  0.19636  0.37782  0.74708  1.0000
  H   H208      1.0  0.20494  0.33956  0.76626  1.0000
  H   H209      1.0  0.19591  0.28224  0.75118  1.0000
  H   H210      1.0  0.19003  0.26935  0.71387  1.0000
  H   H211      1.0  0.16718  0.29942  0.75920  1.0000
  H   H212      1.0  0.17199  0.34660  0.76971  1.0000
  H   H213      1.0  0.15120  0.33407  0.74985  1.0000
  H   H214      1.0  0.17790  0.32063  0.66018  1.0000
  H   H215      1.0  0.19945  0.32147  0.64246  1.0000
  H   H216      1.0  0.19446  0.28433  0.66603  1.0000
  H   H217      1.0  0.22403  0.38678  0.72017  1.0000
  H   H218      1.0  0.23393  0.34433  0.73213  1.0000
  H   H219      1.0  0.22984  0.38012  0.75867  1.0000
  H   H220      1.0  0.22356  0.27625  0.70020  1.0000
  H   H221      1.0  0.21949  0.24450  0.72884  1.0000
  H   H222      1.0  0.22881  0.28775  0.73925  1.0000
  H   H223      1.0  0.22744  0.03787  0.79421  1.0000
  H   H224      1.0  0.10549  0.46646  0.61565  1.0000
  H   H225      1.0  0.09605  0.50058  0.57036  1.0000
  H   H226      1.0  0.33392  0.15062  0.56172  1.0000
  H   H227      1.0  0.16539  0.17414  0.54969  1.0000
  S   S36       1.0  0.33628  0.44483  0.81606  1.0000
  H   H228      1.0  0.22780  0.06236  0.82888  1.0000
  C   C132      1.0  0.16262  0.15357  0.53158  1.0000
  C   C133      1.0  0.33492  0.13559  0.58291  1.0000
  H   H229      1.0  0.18180  0.24029  0.00767  1.0000
  S   S37       1.0  0.33312  0.35369  0.76072  1.0000
  H   H230      1.0  0.02083  0.28692  0.51703  1.0000
  H   H231      1.0  0.04541  0.42606  0.53263  1.0000
  H   H232      1.0  0.33052  0.21110  0.00520  1.0000
  C   C134      1.0  0.14398  0.22860  0.51889  1.0000
  H   H233      1.0  0.33973  0.40647  0.87135  1.0000
  H   H234      1.0  0.10769  0.22214  0.51816  1.0000
  H   H235      1.0  0.17420  0.15231  0.51598  1.0000
  C   C135      1.0  0.34062  0.41404  0.89535  1.0000
  C   C136      1.0  0.14409  0.16057  0.51554  1.0000
  H   H236      1.0  0.10545  0.17281  0.51616  1.0000
  H   H237      1.0  0.18942  0.34034  0.01221  1.0000
  H   H238      1.0  0.08314  0.51060  0.60220  1.0000
  Fe  Fe18      1.0  0.11657  0.32205  0.51368  1.0000
  Fe  Fe19      1.0  0.21183  0.83192  0.30833  1.0000
  S   S38       1.0  0.19144  0.78897  0.29231  1.0000
  S   S39       1.0  0.24322  0.83125  0.31233  1.0000
  Fe  Fe20      1.0  0.18223  0.89146  0.31447  1.0000
  S   S40       1.0  0.15939  0.85306  0.29854  1.0000
  S   S41       1.0  0.18110  0.94966  0.33454  1.0000
  Fe  Fe21      1.0  0.17308  0.81160  0.32841  1.0000
  S   S42       1.0  0.15550  0.77149  0.35407  1.0000
  Fe  Fe22      1.0  0.17899  0.83253  0.26356  1.0000
  S   S43       1.0  0.17525  0.82522  0.21267  1.0000
  S   S44       1.0  0.19454  0.85104  0.34658  1.0000
  S   S45       1.0  0.20068  0.87434  0.27742  1.0000
  Fe  Fe23      1.0  0.11601  0.72022  0.08158  1.0000
  Fe  Fe24      1.0  0.11985  0.65899  0.03431  1.0000
  S   S46       1.0  0.11945  0.72591  0.13251  1.0000
  H   H239      1.0  0.31093  0.66763  0.37287  1.0000
  C   C137      1.0  0.08713  0.75834  0.41761  1.0000
  C   C138      1.0  0.11218  0.51241  0.51257  1.0000
  H   H240      1.0  0.15662  0.63013  0.16308  1.0000
  H   H241      1.0  0.04671  0.58675  0.07369  1.0000
  Fe  Fe25      1.0  0.08716  0.71108  0.03044  1.0000
  C   C139      1.0  0.31457  0.52855  0.29163  1.0000
  C   C140      1.0  0.01305  0.62090  0.02930  1.0000
  S   S47       1.0  0.09749  0.67333  0.06587  1.0000
  H   H242      1.0  0.10375  0.80984  0.50979  1.0000
  H   H243      1.0  0.21354  0.01017  0.28797  1.0000
  Fe  Fe26      1.0  0.32862  0.70063  0.29204  1.0000
  S   S48       1.0  0.29745  0.69928  0.28640  1.0000
  H   H244      1.0  0.29395  0.74649  0.42869  1.0000
  H   H245      1.0  0.21235  0.99223  0.25090  1.0000
  C   C141      1.0  0.03778  0.74538  0.05220  1.0000
  H   H246      1.0  0.13612  0.63332  0.08645  1.0000
  C   C142      1.0  0.10479  0.81594  0.48574  1.0000
  C   C143      1.0  0.25790  0.79432  0.30390  1.0000
  C   C144      1.0  0.25146  0.75832  0.30205  1.0000
  C   C145      1.0  0.26375  0.72954  0.29632  1.0000
  C   C146      1.0  0.28255  0.73650  0.29250  1.0000
  C   C147      1.0  0.28897  0.77255  0.29402  1.0000
  C   C148      1.0  0.27668  0.80132  0.29984  1.0000
  H   H247      1.0  0.23710  0.75263  0.30568  1.0000
  H   H248      1.0  0.25871  0.70168  0.29524  1.0000
  H   H249      1.0  0.30339  0.77821  0.29084  1.0000
  H   H250      1.0  0.28174  0.82916  0.30127  1.0000
  C   C149      1.0  0.15957  0.79724  0.19096  1.0000
  C   C150      1.0  0.14684  0.77409  0.20395  1.0000
  C   C151      1.0  0.13470  0.75254  0.18571  1.0000
  C   C152      1.0  0.13515  0.75368  0.15432  1.0000
  C   C153      1.0  0.14803  0.77649  0.14134  1.0000
  C   C154      1.0  0.16012  0.79814  0.15956  1.0000
  H   H251      1.0  0.14620  0.77313  0.22803  1.0000
  H   H252      1.0  0.12473  0.73522  0.19605  1.0000
  H   H253      1.0  0.14853  0.77781  0.11727  1.0000
  H   H254      1.0  0.16981  0.81606  0.14922  1.0000
  C   C155      1.0  0.15385  0.76661  0.39331  1.0000
  C   C156      1.0  0.14236  0.73908  0.40406  1.0000
  C   C157      1.0  0.14020  0.73467  0.43498  1.0000
  C   C158      1.0  0.14953  0.75782  0.45557  1.0000
  C   C159      1.0  0.16115  0.78514  0.44487  1.0000
  C   C160      1.0  0.16327  0.78961  0.41392  1.0000
  H   H255      1.0  0.13508  0.72103  0.38831  1.0000
  H   H256      1.0  0.13138  0.71327  0.44284  1.0000
  H   H257      1.0  0.16844  0.80321  0.46057  1.0000
  H   H258      1.0  0.17211  0.81095  0.40599  1.0000
  H   H259      1.0  0.33550  0.74842  0.41930  1.0000
  C   C161      1.0  0.02001  0.73226  0.51207  1.0000
  C   C162      1.0  0.10763  0.56564  0.06012  1.0000
  H   H260      1.0  0.28879  0.68730  0.36710  1.0000
  H   H261      1.0  0.10141  0.59180  0.06489  1.0000
  H   H262      1.0  0.09761  0.84208  0.48260  1.0000
  H   H263      1.0  0.31086  0.72842  0.34652  1.0000
  H   H264      1.0  0.08132  0.76493  0.39511  1.0000
  H   H265      1.0  0.17038  0.97207  0.27396  1.0000
  H   H266      1.0  0.27519  0.80648  0.40780  1.0000
  H   H267      1.0  0.03297  0.64510  0.09704  1.0000
  H   H268      1.0  0.10187  0.55364  0.14660  1.0000
  H   H269      1.0  0.12250  0.65682  0.19675  1.0000
  N   N11       1.0  0.01307  0.62548  0.06293  1.0000
  C   C163      1.0  0.03788  0.72601  0.02491  1.0000
  H   H270      1.0  0.05056  0.75037  0.06454  1.0000
  H   H271      1.0  0.12329  0.81025  0.42989  1.0000
  H   H272      1.0  0.32661  0.76228  0.45417  1.0000
  S   S49       1.0  0.10477  0.58553  0.51259  1.0000
  C   C164      1.0  0.14788  0.62044  0.09822  1.0000
  H   H273      1.0  0.25790  0.79239  0.38069  1.0000
  C   C165      1.0  0.31152  0.72699  0.37137  1.0000
  C   C166      1.0  0.14141  0.59263  0.12115  1.0000
  C   C167      1.0  0.31265  0.79409  0.37211  1.0000
  C   C168      1.0  0.27290  0.79738  0.38423  1.0000
  H   H274      1.0  0.09093  0.53646  0.09092  1.0000
  H   H275      1.0  0.32362  0.55255  0.29682  1.0000
  H   H276      1.0  0.08875  0.76610  0.48193  1.0000
  C   C169      1.0  0.17847  0.99288  0.31766  1.0000
  N   N12       1.0  0.30359  0.76123  0.38531  1.0000
  H   H277      1.0  0.05055  0.61325  0.04049  1.0000
  H   H278      1.0  0.09754  0.61967  0.17660  1.0000
  H   H279      1.0  0.06742  0.85681  0.45870  1.0000
  H   H280      1.0  0.11974  0.81955  0.48207  1.0000
  Fe  Fe27      1.0  0.12578  0.73876  0.01738  1.0000
  H   H281      1.0  0.14538  0.67332  0.20137  1.0000
  H   H282      1.0  0.30650  0.81991  0.38070  1.0000
  S   S50       1.0  0.05775  0.73254  0.51095  1.0000
  C   C170      1.0  0.10165  0.53425  0.07469  1.0000
  C   C171      1.0  0.12181  0.56315  0.03970  1.0000
  H   H283      1.0  0.31030  0.79385  0.34740  1.0000
  C   C172      1.0  0.30535  0.76242  0.41902  1.0000
  S   S51       1.0  0.33960  0.65776  0.32271  1.0000
  H   H284      1.0  0.11468  0.79949  0.39247  1.0000
  C   C173      1.0  0.06222  0.83038  0.46661  1.0000
  N   N13       1.0  0.08631  0.79120  0.43867  1.0000
  C   C174      1.0  0.06635  0.79808  0.44524  1.0000
  H   H285      1.0  0.09341  0.84904  0.43556  1.0000
  S   S52       1.0  0.10376  0.75946  0.04827  1.0000
  C   C175      1.0  0.17313  0.99633  0.28765  1.0000
  H   H286      1.0  0.10926  0.76582  0.46164  1.0000
  H   H287      1.0  0.08412  0.63136  0.14512  1.0000
  C   C176      1.0  0.02104  0.75800  0.06371  1.0000
  H   H288      1.0  0.01208  0.55733  0.11598  1.0000
  N   N14       1.0  0.23444  0.79264  0.20805  1.0000
  C   C177      1.0  0.23176  0.83321  0.20389  1.0000
  C   C178      1.0  0.22923  0.77393  0.17864  1.0000
  C   C179      1.0  0.25456  0.78647  0.21529  1.0000
  C   C180      1.0  0.22264  0.78103  0.23343  1.0000
  C   C181      1.0  0.23956  0.85866  0.22913  1.0000
  C   C182      1.0  0.20898  0.77826  0.16830  1.0000
  C   C183      1.0  0.26112  0.74660  0.21686  1.0000
  C   C184      1.0  0.21806  0.73980  0.23560  1.0000
  H   H289      1.0  0.23807  0.84217  0.18283  1.0000
  H   H290      1.0  0.21687  0.83998  0.20158  1.0000
  H   H291      1.0  0.23194  0.74426  0.17862  1.0000
  H   H292      1.0  0.23798  0.78426  0.16055  1.0000
  H   H293      1.0  0.26323  0.80013  0.19863  1.0000
  H   H294      1.0  0.25845  0.79908  0.23744  1.0000
  H   H295      1.0  0.22891  0.79016  0.25525  1.0000
  H   H296      1.0  0.20919  0.79534  0.23244  1.0000
  H   H297      1.0  0.23525  0.85009  0.25140  1.0000
  H   H298      1.0  0.25479  0.86030  0.22881  1.0000
  H   H299      1.0  0.23427  0.88677  0.22593  1.0000
  H   H300      1.0  0.19931  0.76848  0.18510  1.0000
  H   H301      1.0  0.20563  0.80690  0.16281  1.0000
  H   H302      1.0  0.20640  0.76158  0.14756  1.0000
  H   H303      1.0  0.25956  0.73148  0.19524  1.0000
  H   H304      1.0  0.25447  0.73177  0.23492  1.0000
  H   H305      1.0  0.27608  0.74669  0.22267  1.0000
  H   H306      1.0  0.22167  0.73048  0.25841  1.0000
  H   H307      1.0  0.22506  0.72134  0.21982  1.0000
  H   H308      1.0  0.20298  0.73540  0.23260  1.0000
  H   H309      1.0  0.15582  0.60575  0.08081  1.0000
  C   C185      1.0  0.07716  0.72354  0.42754  1.0000
  C   C186      1.0  0.09791  0.63545  0.15595  1.0000
  H   H310      1.0  0.03450  0.66646  0.06253  1.0000
  H   H311      1.0  0.06006  0.77407  0.45587  1.0000
  C   C187      1.0  0.04824  0.61461  0.06489  1.0000
  H   H312      1.0  0.02057  0.73682  0.48834  1.0000
  C   C188      1.0  0.09712  0.78293  0.46695  1.0000
  S   S53       1.0  0.13907  0.70301  0.05201  1.0000
  H   H313      1.0  0.31533  0.52290  0.26737  1.0000
  H   H314      1.0  0.07982  0.71789  0.45139  1.0000
  N   N15       1.0  0.13042  0.60800  0.14673  1.0000
  C   C189      1.0  0.13703  0.64894  0.19438  1.0000
  C   C190      1.0  0.12726  0.57714  0.16776  1.0000
  H   H315      1.0  0.30379  0.79097  0.42775  1.0000
  S   S54       1.0  0.13089  0.60250  0.02317  1.0000
  H   H316      1.0  0.15392  0.57835  0.12969  1.0000
  H   H317      1.0  0.01738  0.56669  0.06610  1.0000
  C   C191      1.0  0.32321  0.74676  0.43312  1.0000
  C   C192      1.0  0.03188  0.63950  0.07266  1.0000
  H   H318      1.0  0.15709  0.64180  0.10832  1.0000
  H   H319      1.0  0.13340  0.57164  0.10799  1.0000
  H   H320      1.0  0.12048  0.58651  0.18842  1.0000
  H   H321      1.0  0.14069  0.56590  0.17570  1.0000
  C   C193      1.0  0.28339  0.76195  0.37651  1.0000
  H   H322      1.0  0.06209  0.72550  0.42338  1.0000
  C   C194      1.0  0.11274  0.62306  0.13390  1.0000
  H   H323      1.0  0.27577  0.73952  0.38719  1.0000
  C   C195      1.0  0.33347  0.79882  0.37819  1.0000
  C   C196      1.0  0.09389  0.82326  0.42225  1.0000
  H   H324      1.0  0.10618  0.60360  0.11739  1.0000
  H   H325      1.0  0.02102  0.77280  0.08492  1.0000
  H   H326      1.0  0.11894  0.84569  0.40395  1.0000
  H   H327      1.0  0.23448  0.00217  0.26756  1.0000
  H   H328      1.0  0.10165  0.75022  0.41389  1.0000
  H   H329      1.0  0.28142  0.75676  0.35215  1.0000
  H   H330      1.0  0.11562  0.64742  0.12046  1.0000
  H   H331      1.0  0.05831  0.80214  0.42407  1.0000
  H   H332      1.0  0.29986  0.68918  0.40389  1.0000
  H   H333      1.0  0.14124  0.66342  0.14896  1.0000
  C   C197      1.0  0.11383  0.81901  0.41175  1.0000
  S   S55       1.0  0.14690  0.75417  0.49475  1.0000
  C   C198      1.0  0.30208  0.69094  0.37960  1.0000
  C   C199      1.0  0.14182  0.63794  0.16205  1.0000
  C   C200      1.0  0.11558  0.54482  0.15492  1.0000
  S   S56       1.0  0.10276  0.68667  0.49648  1.0000
  C   C201      1.0  0.12939  0.52878  0.03294  1.0000
  H   H334      1.0  0.09947  0.66500  0.16181  1.0000
  H   H335      1.0  0.08203  0.69959  0.41428  1.0000
  H   H336      1.0  0.12267  0.52930  0.13702  1.0000
  H   H337      1.0  0.32631  0.72388  0.37680  1.0000
  H   H338      1.0  0.08518  0.82871  0.40201  1.0000
  H   H339      1.0  0.27644  0.81968  0.36896  1.0000
  H   H340      1.0  0.32113  0.71805  0.43981  1.0000
  H   H341      1.0  0.30034  0.53687  0.29700  1.0000
  H   H342      1.0  0.04706  0.83308  0.46821  1.0000
  H   H343      1.0  0.06742  0.82507  0.48960  1.0000
  H   H344      1.0  0.14066  0.62712  0.21024  1.0000
  H   H345      1.0  0.11319  0.52515  0.17295  1.0000
  H   H346      1.0  0.06099  0.62656  0.07532  1.0000
  H   H347      1.0  0.33650  0.80621  0.40198  1.0000
  H   H348      1.0  0.02075  0.60189  0.12099  1.0000
  H   H349      1.0  0.34156  0.77465  0.37133  1.0000
  H   H350      1.0  0.33851  0.82192  0.36493  1.0000
  H   H351      1.0  0.14030  0.52658  0.01703  1.0000
  H   H352      1.0  0.01279  0.69425  0.09991  1.0000
  H   H353      1.0  0.01830  0.64613  0.01895  1.0000
  H   H354      1.0  0.02253  0.59868  0.02228  1.0000
  C   C202      1.0  0.22008  0.01179  0.26592  1.0000
  H   H355      1.0  0.17231  0.68787  0.01334  1.0000
  Fe  Fe28      1.0  0.20507  0.83438  0.79993  1.0000
  S   S57       1.0  0.18598  0.78885  0.78392  1.0000
  S   S58       1.0  0.23599  0.83569  0.81028  1.0000
  Fe  Fe29      1.0  0.17377  0.89035  0.80614  1.0000
  S   S59       1.0  0.15238  0.84901  0.79079  1.0000
  S   S60       1.0  0.16544  0.94666  0.82462  1.0000
  Fe  Fe30      1.0  0.16730  0.80933  0.82038  1.0000
  S   S61       1.0  0.14989  0.77184  0.84856  1.0000
  Fe  Fe31      1.0  0.17228  0.83162  0.75555  1.0000
  S   S62       1.0  0.16371  0.82892  0.70602  1.0000
  S   S63       1.0  0.18725  0.85165  0.83822  1.0000
  S   S64       1.0  0.19278  0.87605  0.76908  1.0000
  Fe  Fe32      1.0  0.11374  0.70096  0.58096  1.0000
  C   C203      1.0  0.01838  0.72187  0.57340  1.0000
  S   S65       1.0  0.12103  0.70303  0.63097  1.0000
  H   H356      1.0  0.06909  0.51615  0.52753  1.0000
  C   C204      1.0  0.18202  0.99423  0.78576  1.0000
  H   H357      1.0  0.08176  0.55861  0.56426  1.0000
  C   C205      1.0  0.17192  0.68148  0.60864  1.0000
  S   S66       1.0  0.14444  0.77508  0.99046  1.0000
  Fe  Fe33      1.0  0.08473  0.71221  0.53117  1.0000
  S   S67       1.0  0.13357  0.67393  0.54940  1.0000
  H   H358      1.0  0.27423  0.60303  0.71293  1.0000
  S   S68       1.0  0.08926  0.66741  0.56389  1.0000
  H   H359      1.0  0.20841  0.76341  0.59180  1.0000
  H   H360      1.0  0.18450  0.80377  0.58394  1.0000
  Fe  Fe34      1.0  0.32580  0.71548  0.78870  1.0000
  S   S69       1.0  0.29540  0.71500  0.77462  1.0000
  C   C206      1.0  0.03555  0.72278  0.55958  1.0000
  H   H361      1.0  0.02314  0.62237  0.58733  1.0000
  H   H362      1.0  0.12365  0.89730  0.93674  1.0000
  H   H363      1.0  0.04810  0.72007  0.57280  1.0000
  H   H364      1.0  0.20472  0.94091  0.81750  1.0000
  C   C207      1.0  0.25218  0.80147  0.80038  1.0000
  C   C208      1.0  0.24719  0.77037  0.78323  1.0000
  C   C209      1.0  0.26058  0.74418  0.77559  1.0000
  C   C210      1.0  0.27906  0.74868  0.78507  1.0000
  C   C211      1.0  0.28403  0.77968  0.80232  1.0000
  C   C212      1.0  0.27066  0.80593  0.80985  1.0000
  H   H365      1.0  0.23305  0.76659  0.77575  1.0000
  H   H366      1.0  0.25658  0.72035  0.76220  1.0000
  H   H367      1.0  0.29817  0.78348  0.80982  1.0000
  H   H368      1.0  0.27467  0.82981  0.82317  1.0000
  C   C213      1.0  0.15054  0.79434  0.68674  1.0000
  C   C214      1.0  0.14295  0.80168  0.65830  1.0000
  C   C215      1.0  0.13325  0.77450  0.64145  1.0000
  C   C216      1.0  0.13134  0.73936  0.65260  1.0000
  C   C217      1.0  0.13866  0.73218  0.68124  1.0000
  C   C218      1.0  0.14816  0.75951  0.69827  1.0000
  H   H369      1.0  0.14454  0.82864  0.64931  1.0000
  H   H370      1.0  0.12723  0.78069  0.61988  1.0000
  H   H371      1.0  0.13719  0.70514  0.69014  1.0000
  H   H372      1.0  0.15392  0.75343  0.72009  1.0000
  C   C219      1.0  0.14869  0.77313  0.88805  1.0000
  C   C220      1.0  0.13438  0.75418  0.90162  1.0000
  C   C221      1.0  0.13260  0.75528  0.93290  1.0000
  C   C222      1.0  0.14538  0.77471  0.95097  1.0000
  C   C223      1.0  0.15966  0.79370  0.93740  1.0000
  C   C224      1.0  0.16132  0.79294  0.90610  1.0000
  H   H373      1.0  0.12446  0.73897  0.88780  1.0000
  H   H374      1.0  0.12144  0.74088  0.94303  1.0000
  H   H375      1.0  0.16962  0.80877  0.95123  1.0000
  H   H376      1.0  0.17247  0.80741  0.89599  1.0000
  H   H377      1.0  0.12631  0.63127  0.96155  1.0000
  H   H378      1.0  0.23028  0.90480  0.78088  1.0000
  H   H379      1.0  0.19402  0.73069  0.64968  1.0000
  H   H380      1.0  0.13426  0.59685  0.93483  1.0000
  H   H381      1.0  0.01783  0.71825  0.59726  1.0000
  H   H382      1.0  0.17919  0.59927  0.98205  1.0000
  C   C225      1.0  0.17213  0.99021  0.81187  1.0000
  H   H383      1.0  0.18042  0.71151  0.98195  1.0000
  S   S70       1.0  0.10753  0.74787  0.55083  1.0000
  H   H384      1.0  0.18519  0.97038  0.77213  1.0000
  N   N16       1.0  0.12160  0.87641  0.87768  1.0000
  C   C226      1.0  0.11284  0.86960  0.84703  1.0000
  C   C227      1.0  0.11639  0.84440  0.89641  1.0000
  C   C228      1.0  0.14214  0.87618  0.87387  1.0000
  C   C229      1.0  0.11510  0.91267  0.89002  1.0000
  C   C230      1.0  0.11430  0.90085  0.82453  1.0000
  C   C231      1.0  0.09620  0.84279  0.90617  1.0000
  C   C232      1.0  0.15429  0.88662  0.90146  1.0000
  C   C233      1.0  0.11808  0.92039  0.92400  1.0000
  H   H385      1.0  0.11867  0.84450  0.83625  1.0000
  H   H386      1.0  0.09788  0.86414  0.84855  1.0000
  H   H387      1.0  0.12515  0.84234  0.91688  1.0000
  H   H388      1.0  0.11898  0.81838  0.88389  1.0000
  H   H389      1.0  0.14666  0.84885  0.86555  1.0000
  H   H390      1.0  0.14626  0.89538  0.85660  1.0000
  H   H391      1.0  0.12189  0.93539  0.87825  1.0000
  H   H392      1.0  0.10011  0.91598  0.88503  1.0000
  H   H393      1.0  0.24182  0.92938  0.75323  1.0000
  H   H394      1.0  0.32053  0.54025  0.76037  1.0000
  H   H395      1.0  0.26738  0.98609  0.80974  1.0000
  C   C234      1.0  0.33996  0.51966  0.82067  1.0000
  H   H396      1.0  0.08646  0.83809  0.88706  1.0000
  H   H397      1.0  0.15345  0.91627  0.90682  1.0000
  H   H398      1.0  0.16887  0.88125  0.89609  1.0000
  H   H399      1.0  0.15133  0.87045  0.92133  1.0000
  H   H400      1.0  0.10482  0.92806  0.93421  1.0000
  C   C235      1.0  0.12742  0.54813  0.55208  1.0000
  H   H401      1.0  0.13501  0.67944  0.92331  1.0000
  H   H402      1.0  0.17133  0.56779  0.95398  1.0000
  H   H403      1.0  0.29089  0.55830  0.73039  1.0000
  H   H404      1.0  0.06201  0.55582  0.58757  1.0000
  H   H405      1.0  0.13026  0.57419  0.56317  1.0000
  H   H406      1.0  0.18551  0.67733  0.61967  1.0000
  H   H407      1.0  0.09461  0.81915  0.92105  1.0000
  N   N17       1.0  0.23159  0.96615  0.82412  1.0000
  C   C236      1.0  0.21717  0.93850  0.83225  1.0000
  C   C237      1.0  0.26652  0.97870  0.83342  1.0000
  H   H408      1.0  0.25246  0.92685  0.83778  1.0000
  C   C238      1.0  0.24919  0.95648  0.84051  1.0000
  C   C239      1.0  0.21059  0.94069  0.86483  1.0000
  H   H409      1.0  0.16155  0.66822  0.62270  1.0000
  H   H410      1.0  0.20979  0.00567  0.83054  1.0000
  H   H411      1.0  0.14412  0.64341  0.90093  1.0000
  H   H412      1.0  0.18670  0.66413  0.98749  1.0000
  C   C240      1.0  0.17553  0.68447  0.98932  1.0000
  H   H413      1.0  0.21575  0.75122  0.64331  1.0000
  C   C241      1.0  0.23341  0.96390  0.79063  1.0000
  H   H414      1.0  0.02120  0.70513  0.98785  1.0000
  S   S71       1.0  0.10849  0.69334  0.99748  1.0000
  C   C242      1.0  0.13530  0.51590  0.56317  1.0000
  H   H415      1.0  0.24283  0.98501  0.78240  1.0000
  H   H416      1.0  0.22188  0.93578  0.88127  1.0000
  H   H417      1.0  0.20366  0.96690  0.87013  1.0000
  H   H418      1.0  0.20014  0.91904  0.86788  1.0000
  H   H419      1.0  0.10677  0.92560  0.83196  1.0000
  H   H420      1.0  0.18709  0.63077  0.94074  1.0000
  S   S72       1.0  0.05813  0.70677  0.01044  1.0000
  H   H421      1.0  0.30515  0.51936  0.78623  1.0000
  Fe  Fe35      1.0  0.10871  0.64377  0.53044  1.0000
  C   C243      1.0  0.02120  0.71992  0.00906  1.0000
  H   H422      1.0  0.17125  0.66689  0.58666  1.0000
  H   H423      1.0  0.25389  0.91941  0.78725  1.0000
  H   H424      1.0  0.12752  0.94406  0.92787  1.0000
  N   N18       1.0  0.29333  0.59403  0.77013  1.0000
  C   C244      1.0  0.29254  0.58820  0.80341  1.0000
  C   C245      1.0  0.29141  0.55686  0.75501  1.0000
  C   C246      1.0  0.27709  0.61730  0.76129  1.0000
  C   C247      1.0  0.31126  0.61293  0.76367  1.0000
  C   C248      1.0  0.29085  0.62295  0.82339  1.0000
  H   H425      1.0  0.20682  0.75329  0.54230  1.0000
  C   C249      1.0  0.27524  0.62725  0.72817  1.0000
  C   C250      1.0  0.31848  0.60894  0.73147  1.0000
  H   H426      1.0  0.28075  0.57012  0.80872  1.0000
  H   H427      1.0  0.30508  0.57380  0.81163  1.0000
  H   H428      1.0  0.24756  0.95992  0.86503  1.0000
  C   C251      1.0  0.20098  0.75162  0.63643  1.0000
  H   H429      1.0  0.26401  0.60389  0.76760  1.0000
  H   H430      1.0  0.27750  0.64412  0.77348  1.0000
  H   H431      1.0  0.31035  0.64264  0.76917  1.0000
  H   H432      1.0  0.32248  0.60278  0.77859  1.0000
  H   H433      1.0  0.27647  0.63306  0.82333  1.0000
  H   H434      1.0  0.29462  0.61648  0.84686  1.0000
  H   H435      1.0  0.30000  0.64525  0.81654  1.0000
  H   H436      1.0  0.12863  0.90831  0.81957  1.0000
  H   H437      1.0  0.21993  0.96976  0.77942  1.0000
  H   H438      1.0  0.18279  0.70296  0.88188  1.0000
  H   H439      1.0  0.26233  0.64297  0.72489  1.0000
  H   H440      1.0  0.28654  0.64572  0.72178  1.0000
  C   C252      1.0  0.06675  0.55289  0.56441  1.0000
  H   H441      1.0  0.19568  0.77905  0.64270  1.0000
  H   H442      1.0  0.22214  0.91005  0.82856  1.0000
  H   H443      1.0  0.18535  0.69141  0.93340  1.0000
  C   C253      1.0  0.19919  0.74348  0.60244  1.0000
  H   H444      1.0  0.06007  0.57466  0.55115  1.0000
  H   H445      1.0  0.19053  0.74173  0.51295  1.0000
  H   H446      1.0  0.32357  0.63590  0.72434  1.0000
  H   H447      1.0  0.33058  0.59052  0.73102  1.0000
  H   H448      1.0  0.20541  0.71624  0.59783  1.0000
  H   H449      1.0  0.17814  0.65498  0.88395  1.0000
  C   C254      1.0  0.12924  0.62522  0.93782  1.0000
  C   C255      1.0  0.16894  0.59566  0.96342  1.0000
  H   H450      1.0  0.22762  0.00855  0.85816  1.0000
  S   S73       1.0  0.33590  0.67635  0.82342  1.0000
  N   N19       1.0  0.18001  0.74549  0.58909  1.0000
  C   C256      1.0  0.16691  0.72223  0.60605  1.0000
  C   C257      1.0  0.17361  0.78464  0.59109  1.0000
  C   C258      1.0  0.19203  0.75396  0.53585  1.0000
  C   C259      1.0  0.18020  0.73172  0.55712  1.0000
  H   H451      1.0  0.18547  0.70329  0.55571  1.0000
  C   C260      1.0  0.15591  0.79365  0.57300  1.0000
  H   H452      1.0  0.18754  0.78273  0.53436  1.0000
  H   H453      1.0  0.16523  0.73340  0.62910  1.0000
  H   H454      1.0  0.15292  0.72270  0.59562  1.0000
  H   H455      1.0  0.09207  0.86739  0.91915  1.0000
  H   H456      1.0  0.17013  0.60960  0.91678  1.0000
  H   H457      1.0  0.16596  0.73025  0.54749  1.0000
  H   H458      1.0  0.14855  0.69639  0.97154  1.0000
  H   H459      1.0  0.15966  0.68764  0.87805  1.0000
  C   C261      1.0  0.22497  0.00366  0.83378  1.0000
  H   H460      1.0  0.15843  0.79496  0.54878  1.0000
  H   H461      1.0  0.14464  0.77398  0.57634  1.0000
  H   H462      1.0  0.15090  0.82102  0.58022  1.0000
  H   H463      1.0  0.10781  0.89158  0.80292  1.0000
  H   H464      1.0  0.17094  0.79277  0.61469  1.0000
  H   H465      1.0  0.11580  0.62645  0.92553  1.0000
  H   H466      1.0  0.15499  0.59531  0.97247  1.0000
  N   N20       1.0  0.16090  0.65845  0.94016  1.0000
  C   C262      1.0  0.17108  0.68798  0.92415  1.0000
  C   C263      1.0  0.15797  0.67247  0.97166  1.0000
  C   C264      1.0  0.14246  0.65299  0.92445  1.0000
  C   C265      1.0  0.17217  0.62388  0.93887  1.0000
  C   C266      1.0  0.17290  0.68247  0.89008  1.0000
  H   H467      1.0  0.15092  0.65229  0.98540  1.0000
  H   H468      1.0  0.16449  0.71494  0.92784  1.0000
  C   C267      1.0  0.24027  0.92713  0.77773  1.0000
  H   H469      1.0  0.01157  0.58273  0.53930  1.0000
  Fe  Fe36      1.0  0.12581  0.71896  0.51796  1.0000
  H   H470      1.0  0.02088  0.64097  0.55141  1.0000
  H   H471      1.0  0.30833  0.59983  0.71416  1.0000
  C   C268      1.0  0.01286  0.62874  0.56948  1.0000
  C   C269      1.0  0.11577  0.54641  0.52676  1.0000
  H   H472      1.0  0.27886  0.96162  0.83767  1.0000
  C   C270      1.0  0.03644  0.72842  0.52889  1.0000
  H   H473      1.0  0.04186  0.51856  0.60494  1.0000
  H   H474      1.0  0.14423  0.51731  0.58284  1.0000
  H   H475      1.0  0.26759  0.00378  0.84784  1.0000
  H   H476      1.0  0.34196  0.57872  0.82426  1.0000
  H   H477      1.0  0.04722  0.51456  0.54412  1.0000
  H   H478      1.0  0.33099  0.51758  0.83947  1.0000
  H   H479      1.0  0.27797  0.54418  0.76045  1.0000
  C   C271      1.0  0.06224  0.51521  0.54955  1.0000
  C   C272      1.0  0.30652  0.52910  0.76312  1.0000
  S   S74       1.0  0.35572  0.27858  0.27889  1.0000
  Fe  Fe37      1.0  0.37135  0.37722  0.30402  1.0000
  S   S75       1.0  0.39179  0.33327  0.29207  1.0000
  S   S76       1.0  0.37755  0.43360  0.32482  1.0000
  Fe  Fe38      1.0  0.37228  0.31914  0.25340  1.0000
  S   S77       1.0  0.38141  0.31666  0.20482  1.0000
  Fe  Fe39      1.0  0.37412  0.29561  0.31847  1.0000
  S   S78       1.0  0.38407  0.25048  0.34933  1.0000
  S   S79       1.0  0.65361  0.35967  0.27529  1.0000
  S   S80       1.0  0.35310  0.36585  0.26394  1.0000
  S   S81       1.0  0.40501  0.15885  0.03514  1.0000
  H   H480      1.0  0.46738  0.01840  0.09973  1.0000
  C   C273      1.0  0.55599  0.09181  0.03753  1.0000
  H   H481      1.0  0.65805  0.39677  0.04984  1.0000
  Fe  Fe40      1.0  0.61614  0.15425  0.04649  1.0000
  S   S82       1.0  0.59349  0.18802  0.06639  1.0000
  S   S83       1.0  0.62213  0.09957  0.06762  1.0000
  C   C274      1.0  0.67160  0.26950  0.06233  1.0000
  C   C275      1.0  0.61762  0.02508  0.06304  1.0000
  S   S84       1.0  0.64230  0.21044  0.45800  1.0000
  Fe  Fe41      1.0  0.61295  0.23561  0.06283  1.0000
  S   S85       1.0  0.61643  0.28164  0.09806  1.0000
  C   C276      1.0  0.46353  0.25199  0.45430  1.0000
  H   H482      1.0  0.35113  0.29353  0.38421  1.0000
  S   S86       1.0  0.63623  0.20114  0.04645  1.0000
  S   S87       1.0  0.42649  0.23578  0.05252  1.0000
  H   H483      1.0  0.38123  0.20970  0.07763  1.0000
  H   H484      1.0  0.44258  0.30879  0.43275  1.0000
  S   S88       1.0  0.41475  0.26745  0.48398  1.0000
  Fe  Fe42      1.0  0.45271  0.20613  0.04125  1.0000
  S   S89       1.0  0.44576  0.15651  0.06705  1.0000
  S   S90       1.0  0.47994  0.23328  0.05462  1.0000
  S   S91       1.0  0.66579  0.46101  0.26462  1.0000
  H   H485      1.0  0.66381  0.21482  0.40538  1.0000
  Fe  Fe43      1.0  0.41896  0.18473  0.07585  1.0000
  S   S92       1.0  0.40779  0.18263  0.12293  1.0000
  C   C277      1.0  0.35590  0.20073  0.03152  1.0000
  H   H486      1.0  0.51840  0.02588  0.09887  1.0000
  H   H487      1.0  0.57884  0.07057  0.06568  1.0000
  H   H488      1.0  0.46785  0.33952  0.48346  1.0000
  H   H489      1.0  0.46792  0.19748  0.43567  1.0000
  H   H490      1.0  0.48887  0.22003  0.44681  1.0000
  H   H491      1.0  0.49939  0.26411  0.48105  1.0000
  C   C278      1.0  0.61941  0.05770  0.04743  1.0000
  H   H492      1.0  0.58672  0.24006  0.27649  1.0000
  C   C279      1.0  0.61457  0.28986  0.24269  1.0000
  S   S93       1.0  0.60270  0.24965  0.01624  1.0000
  H   H493      1.0  0.46272  0.06648  0.06269  1.0000
  H   H494      1.0  0.65929  0.25810  0.01887  1.0000
  C   C280      1.0  0.53477  0.22249  0.04099  1.0000
  C   C281      1.0  0.51767  0.23257  0.05273  1.0000
  C   C282      1.0  0.50115  0.21851  0.04006  1.0000
  H   H495      1.0  0.51215  0.29020  0.43993  1.0000
  H   H496      1.0  0.49666  0.32865  0.43958  1.0000
  C   C283      1.0  0.50187  0.19388  0.01576  1.0000
  N   N21       1.0  0.35579  0.22864  0.05687  1.0000
  H   H497      1.0  0.44896  0.24519  0.45898  1.0000
  H   H498      1.0  0.47391  0.20107  0.47424  1.0000
  H   H499      1.0  0.58480  0.11039  0.04477  1.0000
  Fe  Fe44      1.0  0.67561  0.40349  0.27642  1.0000
  S   S94       1.0  0.64699  0.33064  0.35694  1.0000
  C   C284      1.0  0.63120  0.28100  0.13031  1.0000
  C   C285      1.0  0.64128  0.24999  0.13796  1.0000
  C   C286      1.0  0.65259  0.25044  0.16403  1.0000
  C   C287      1.0  0.65408  0.28187  0.18268  1.0000
  C   C288      1.0  0.64419  0.31307  0.17483  1.0000
  C   C289      1.0  0.63277  0.31254  0.14885  1.0000
  H   H500      1.0  0.64023  0.22552  0.12397  1.0000
  H   H501      1.0  0.63333  0.24454  0.24292  1.0000
  H   H502      1.0  0.64520  0.33747  0.18891  1.0000
  H   H503      1.0  0.62504  0.33669  0.14316  1.0000
  C   C290      1.0  0.64627  0.29713  0.38504  1.0000
  C   C291      1.0  0.65691  0.26540  0.38388  1.0000
  C   C292      1.0  0.65552  0.23927  0.40641  1.0000
  C   C293      1.0  0.64339  0.24432  0.43021  1.0000
  C   C294      1.0  0.63263  0.27588  0.43114  1.0000
  C   C295      1.0  0.63407  0.30205  0.40867  1.0000
  H   H504      1.0  0.34830  0.19174  0.41711  1.0000
  H   H505      1.0  0.45291  0.25996  0.50994  1.0000
  H   H506      1.0  0.62324  0.28017  0.44925  1.0000
  H   H507      1.0  0.37098  0.45430  0.26275  1.0000
  C   C296      1.0  0.37379  0.47616  0.30765  1.0000
  H   H508      1.0  0.60195  0.07518  0.50668  1.0000
  C   C297      1.0  0.37081  0.47875  0.27681  1.0000
  C   C298      1.0  0.49105  0.28777  0.47335  1.0000
  H   H509      1.0  0.59554  0.21425  0.24499  1.0000
  C   C299      1.0  0.38840  0.27870  0.18252  1.0000
  C   C300      1.0  0.38943  0.24331  0.19351  1.0000
  C   C301      1.0  0.39527  0.21417  0.17491  1.0000
  C   C302      1.0  0.40026  0.22011  0.14527  1.0000
  C   C303      1.0  0.39926  0.25549  0.13430  1.0000
  C   C304      1.0  0.39327  0.28455  0.15279  1.0000
  H   H510      1.0  0.38573  0.23840  0.21633  1.0000
  H   H511      1.0  0.39599  0.18687  0.18361  1.0000
  H   H512      1.0  0.40313  0.26050  0.11161  1.0000
  H   H513      1.0  0.39257  0.31187  0.14415  1.0000
  C   C305      1.0  0.39242  0.25590  0.38683  1.0000
  C   C306      1.0  0.39706  0.22461  0.40302  1.0000
  C   C307      1.0  0.40369  0.22757  0.43286  1.0000
  C   C308      1.0  0.40582  0.26196  0.44683  1.0000
  C   C309      1.0  0.40114  0.29324  0.43067  1.0000
  C   C310      1.0  0.39440  0.29027  0.40089  1.0000
  H   H514      1.0  0.39558  0.19788  0.39236  1.0000
  H   H515      1.0  0.40728  0.20326  0.44494  1.0000
  H   H516      1.0  0.40274  0.31999  0.44125  1.0000
  H   H517      1.0  0.39089  0.31458  0.38875  1.0000
  N   N22       1.0  0.62419  0.25099  0.28865  1.0000
  C   C311      1.0  0.64187  0.24408  0.30600  1.0000
  C   C312      1.0  0.61336  0.27843  0.30667  1.0000
  C   C313      1.0  0.62917  0.26660  0.25894  1.0000
  C   C314      1.0  0.61426  0.21499  0.28426  1.0000
  C   C315      1.0  0.45378  0.32703  0.44165  1.0000
  C   C316      1.0  0.60670  0.26545  0.33712  1.0000
  H   H518      1.0  0.44792  0.35500  0.44275  1.0000
  Fe  Fe45      1.0  0.66642  0.34055  0.31844  1.0000
  H   H519      1.0  0.64879  0.27044  0.31236  1.0000
  H   H520      1.0  0.63920  0.23040  0.32737  1.0000
  H   H521      1.0  0.60089  0.28775  0.29446  1.0000
  H   H522      1.0  0.62162  0.30386  0.31075  1.0000
  H   H523      1.0  0.37605  0.50655  0.34944  1.0000
  C   C317      1.0  0.47437  0.21586  0.45308  1.0000
  H   H524      1.0  0.62225  0.19623  0.26966  1.0000
  H   H525      1.0  0.54610  0.07786  0.05198  1.0000
  H   H526      1.0  0.35123  0.19586  0.37803  1.0000
  H   H527      1.0  0.55031  0.10717  0.48555  1.0000
  H   H528      1.0  0.66020  0.22617  0.16982  1.0000
  H   H529      1.0  0.59719  0.24178  0.33460  1.0000
  H   H530      1.0  0.61300  0.31690  0.25413  1.0000
  H   H531      1.0  0.59901  0.28804  0.34809  1.0000
  S   S95       1.0  0.66813  0.28025  0.21572  1.0000
  H   H532      1.0  0.61934  0.29540  0.21987  1.0000
  H   H533      1.0  0.65887  0.26811  0.07542  1.0000
  H   H534      1.0  0.46518  0.32744  0.42582  1.0000
  C   C318      1.0  0.37370  0.50828  0.32556  1.0000
  H   H535      1.0  0.37416  0.28783  0.09173  1.0000
  N   N23       1.0  0.46114  0.24784  0.15270  1.0000
  C   C319      1.0  0.45240  0.21606  0.16812  1.0000
  C   C320      1.0  0.45984  0.28054  0.17371  1.0000
  C   C321      1.0  0.48107  0.23851  0.14806  1.0000
  C   C322      1.0  0.45121  0.25303  0.12310  1.0000
  C   C323      1.0  0.45427  0.17822  0.15264  1.0000
  C   C324      1.0  0.44015  0.29219  0.18171  1.0000
  C   C325      1.0  0.49320  0.26817  0.13459  1.0000
  C   C326      1.0  0.45257  0.29115  0.10896  1.0000
  H   H536      1.0  0.45809  0.21358  0.19134  1.0000
  H   H537      1.0  0.43736  0.22036  0.17044  1.0000
  H   H538      1.0  0.46664  0.30503  0.16508  1.0000
  H   H539      1.0  0.46742  0.27525  0.19511  1.0000
  H   H540      1.0  0.48778  0.23063  0.16960  1.0000
  H   H541      1.0  0.48230  0.21447  0.13252  1.0000
  H   H542      1.0  0.45589  0.23246  0.10625  1.0000
  H   H543      1.0  0.43630  0.24739  0.12525  1.0000
  H   H544      1.0  0.44990  0.17869  0.12884  1.0000
  H   H545      1.0  0.46846  0.16748  0.15482  1.0000
  H   H546      1.0  0.44509  0.15849  0.16355  1.0000
  H   H547      1.0  0.43133  0.29612  0.16159  1.0000
  H   H548      1.0  0.43350  0.27239  0.19646  1.0000
  H   H549      1.0  0.44071  0.31872  0.19429  1.0000
  H   H550      1.0  0.48885  0.27390  0.11128  1.0000
  H   H551      1.0  0.50748  0.25768  0.13328  1.0000
  H   H552      1.0  0.49397  0.29366  0.14838  1.0000
  H   H553      1.0  0.45503  0.28756  0.08467  1.0000
  H   H554      1.0  0.46371  0.30911  0.11786  1.0000
  H   H555      1.0  0.43925  0.30573  0.11048  1.0000
  C   C327      1.0  0.41771  0.04131  0.04735  1.0000
  H   H556      1.0  0.38080  0.25541  0.04360  1.0000
  C   C328      1.0  0.57371  0.09680  0.05689  1.0000
  C   C329      1.0  0.59891  0.01627  0.50565  1.0000
  H   H557      1.0  0.67437  0.34427  0.06085  1.0000
  H   H558      1.0  0.63488  0.29018  0.04258  1.0000
  S   S96       1.0  0.60307  0.16070  0.49957  1.0000
  S   S97       1.0  0.35533  0.34036  0.33334  1.0000
  H   H559      1.0  0.49010  0.28451  0.42358  1.0000
  H   H560      1.0  0.64140  0.28483  0.26171  1.0000
  H   H561      1.0  0.46310  0.26166  0.43106  1.0000
  H   H562      1.0  0.35502  0.23442  0.40278  1.0000
  H   H563      1.0  0.61818  0.02589  0.08721  1.0000
  C   C330      1.0  0.36642  0.29445  0.07101  1.0000
  H   H564      1.0  0.66091  0.23228  0.26900  1.0000
  C   C331      1.0  0.59484  0.21593  0.26975  1.0000
  C   C332      1.0  0.36642  0.21287  0.08297  1.0000
  C   C333      1.0  0.34612  0.21039  0.39816  1.0000
  H   H565      1.0  0.41441  0.06788  0.05683  1.0000
  C   C334      1.0  0.64143  0.31775  0.04304  1.0000
  C   C335      1.0  0.47331  0.04523  0.05861  1.0000
  H   H566      1.0  0.66867  0.21812  0.30485  1.0000
  H   H567      1.0  0.36114  0.27334  0.02658  1.0000
  H   H568      1.0  0.66605  0.26083  0.36556  1.0000
  H   H569      1.0  0.34489  0.17457  0.09780  1.0000
  Fe  Fe46      1.0  0.58515  0.19883  0.01885  1.0000
  H   H570      1.0  0.48666  0.05702  0.06654  1.0000
  C   C336      1.0  0.53545  0.19869  0.01615  1.0000
  H   H571      1.0  0.61818  0.25883  0.35270  1.0000
  H   H572      1.0  0.36613  0.23167  0.10283  1.0000
  H   H573      1.0  0.59291  0.01523  0.48331  1.0000
  H   H574      1.0  0.37359  0.31806  0.06129  1.0000
  H   H575      1.0  0.57074  0.11464  0.07658  1.0000
  H   H576      1.0  0.58680  0.19216  0.27735  1.0000
  Fe  Fe47      1.0  0.62373  0.20676  0.49874  1.0000
  C   C337      1.0  0.35985  0.17547  0.09398  1.0000
  H   H577      1.0  0.61510  0.34389  0.05002  1.0000
  C   C338      1.0  0.49758  0.29862  0.44230  1.0000
  C   C339      1.0  0.65627  0.22017  0.29001  1.0000
  N   N24       1.0  0.65877  0.31699  0.02515  1.0000
  H   H578      1.0  0.65126  0.19191  0.28550  1.0000
  H   H579      1.0  0.49632  0.02262  0.11420  1.0000
  H   H580      1.0  0.61349  0.20002  0.30557  1.0000
  C   C340      1.0  0.36619  0.26234  0.04802  1.0000
  H   H581      1.0  0.49571  0.31038  0.48880  1.0000
  C   C341      1.0  0.45997  0.31598  0.47336  1.0000
  H   H582      1.0  0.60107  0.27619  0.24005  1.0000
  H   H583      1.0  0.62565  0.32634  0.40969  1.0000
  N   N25       1.0  0.47075  0.28087  0.47631  1.0000
  H   H584      1.0  0.51724  0.25173  0.07145  1.0000
  C   C342      1.0  0.42880  0.03870  0.02235  1.0000
  H   H585      1.0  0.35243  0.30365  0.07668  1.0000
  H   H586      1.0  0.51726  0.17629  0.48911  1.0000
  Fe  Fe48      1.0  0.43255  0.13527  0.02433  1.0000
  H   H587      1.0  0.64462  0.32429  0.06705  1.0000
  H   H588      1.0  0.37030  0.19419  0.02561  1.0000
  H   H589      1.0  0.54738  0.23386  0.05066  1.0000
  H   H590      1.0  0.57768  0.03264  0.02624  1.0000
  C   C343      1.0  0.66656  0.38625  0.03128  1.0000
  H   H591      1.0  0.44701  0.31478  0.48614  1.0000
  C   C344      1.0  0.62598  0.34384  0.03301  1.0000
  H   H592      1.0  0.63067  0.37234  0.03092  1.0000
  H   H593      1.0  0.47343  0.04011  0.03412  1.0000
  C   C345      1.0  0.67450  0.50376  0.27843  1.0000
  H   H594      1.0  0.55443  0.02024  0.03087  1.0000
  H   H595      1.0  0.51948  0.07187  0.02745  1.0000
  Fe  Fe49      1.0  0.67415  0.32401  0.25206  1.0000
  C   C346      1.0  0.55708  0.09587  0.50582  1.0000
  C   C347      1.0  0.67207  0.34620  0.03629  1.0000
  S   S98       1.0  0.55453  0.19565  0.50387  1.0000
  H   H596      1.0  0.56184  0.06807  0.49954  1.0000
  H   H597      1.0  0.36387  0.15288  0.07853  1.0000
  H   H598      1.0  0.35027  0.11220  0.49957  1.0000
  H   H599      1.0  0.34958  0.17457  0.03816  1.0000
  C   C348      1.0  0.56390  0.03277  0.01488  1.0000
  C   C349      1.0  0.66782  0.28035  0.02957  1.0000
  H   H600      1.0  0.47535  0.24127  0.51110  1.0000
  H   H601      1.0  0.36687  0.17001  0.11575  1.0000
  H   H602      1.0  0.55031  0.11964  0.03370  1.0000
  C   C350      1.0  0.61892  0.05632  0.01621  1.0000
  C   C351      1.0  0.46768  0.26689  0.50725  1.0000
  H   H603      1.0  0.34599  0.25066  0.35063  1.0000
  S   S99       1.0  0.44333  0.18029  0.51272  1.0000
  H   H604      1.0  0.56905  0.11384  0.51127  1.0000
  C   C352      1.0  0.51752  0.18747  0.51171  1.0000
  S   S100      1.0  0.35869  0.28547  0.78602  1.0000
  H   H605      1.0  0.64643  0.28610  0.76066  1.0000
  S   S101      1.0  0.37332  0.36964  0.79316  1.0000
  H   H606      1.0  0.60509  0.30318  0.76757  1.0000
  Fe  Fe50      1.0  0.36216  0.33287  0.75593  1.0000
  S   S102      1.0  0.37984  0.33193  0.71452  1.0000
  Fe  Fe51      1.0  0.36784  0.32325  0.82382  1.0000
  S   S103      1.0  0.39194  0.31091  0.85566  1.0000
  S   S104      1.0  0.66337  0.35875  0.77432  1.0000
  H   H607      1.0  0.40546  0.10215  0.62185  1.0000
  H   H608      1.0  0.55879  0.03420  0.60799  1.0000
  S   S105      1.0  0.64635  0.32720  0.85198  1.0000
  C   C353      1.0  0.38585  0.49866  0.89524  1.0000
  C   C354      1.0  0.52375  0.12241  0.58591  1.0000
  Fe  Fe52      1.0  0.61373  0.15019  0.54579  1.0000
  S   S106      1.0  0.59381  0.18824  0.56811  1.0000
  Fe  Fe53      1.0  0.42347  0.14222  0.53441  1.0000
  H   H609      1.0  0.64622  0.26484  0.81053  1.0000
  C   C355      1.0  0.35975  0.06567  0.57821  1.0000
  S   S107      1.0  0.64623  0.22209  0.96407  1.0000
  Fe  Fe54      1.0  0.61536  0.23174  0.56308  1.0000
  S   S108      1.0  0.62021  0.27477  0.60064  1.0000
  H   H610      1.0  0.57648  0.01471  0.97295  1.0000
  C   C356      1.0  0.67047  0.31851  0.97112  1.0000
  S   S109      1.0  0.63613  0.19284  0.54397  1.0000
  C   C357      1.0  0.36564  0.11541  0.54182  1.0000
  H   H611      1.0  0.64078  0.22118  0.71607  1.0000
  H   H612      1.0  0.38726  0.06952  0.62207  1.0000
  S   S110      1.0  0.39154  0.23623  0.98330  1.0000
  Fe  Fe55      1.0  0.45175  0.19663  0.55979  1.0000
  S   S111      1.0  0.43347  0.15534  0.58116  1.0000
  C   C358      1.0  0.51806  0.21584  0.57002  1.0000
  C   C359      1.0  0.56931  0.12124  0.60491  1.0000
  C   C360      1.0  0.35587  0.44271  0.90215  1.0000
  Fe  Fe56      1.0  0.41186  0.19936  0.58119  1.0000
  S   S112      1.0  0.39164  0.20145  0.61957  1.0000
  H   H613      1.0  0.37213  0.39413  0.93199  1.0000
  S   S113      1.0  0.43084  0.24177  0.56354  1.0000
  H   H614      1.0  0.63152  0.23114  0.85234  1.0000
  C   C361      1.0  0.42252  0.04358  0.56533  1.0000
  H   H615      1.0  0.37258  0.37202  0.89619  1.0000
  H   H616      1.0  0.42609  0.06866  0.57738  1.0000
  C   C362      1.0  0.47331  0.29299  0.53356  1.0000
  C   C363      1.0  0.61169  0.05198  0.54779  1.0000
  H   H617      1.0  0.62791  0.18246  0.72935  1.0000
  Fe  Fe57      1.0  0.66967  0.33350  0.81911  1.0000
  H   H618      1.0  0.62461  0.32279  0.78814  1.0000
  H   H619      1.0  0.39075  0.13700  0.58228  1.0000
  S   S114      1.0  0.55644  0.18699  0.99921  1.0000
  C   C364      1.0  0.53455  0.21328  0.55424  1.0000
  H   H620      1.0  0.53666  0.12304  0.53106  1.0000
  C   C365      1.0  0.50127  0.20396  0.55682  1.0000
  H   H621      1.0  0.55931  0.10762  0.94879  1.0000
  H   H622      1.0  0.56863  0.06189  0.94649  1.0000
  C   C366      1.0  0.39904  0.38438  0.91636  1.0000
  H   H623      1.0  0.62041  0.02044  0.58557  1.0000
  H   H624      1.0  0.53619  0.10153  0.98681  1.0000
  H   H625      1.0  0.34537  0.06153  0.56994  1.0000
  C   C367      1.0  0.56464  0.11602  0.57110  1.0000
  C   C368      1.0  0.34559  0.21052  0.00234  1.0000
  H   H626      1.0  0.35181  0.46718  0.88925  1.0000
  C   C369      1.0  0.63550  0.27345  0.63235  1.0000
  C   C370      1.0  0.64706  0.24371  0.63767  1.0000
  C   C371      1.0  0.65895  0.24392  0.66308  1.0000
  C   C372      1.0  0.65946  0.27376  0.68355  1.0000
  C   C373      1.0  0.64784  0.30341  0.67837  1.0000
  C   C374      1.0  0.63596  0.30321  0.65292  1.0000
  H   H627      1.0  0.64686  0.22061  0.62212  1.0000
  H   H628      1.0  0.48925  0.18303  0.00573  1.0000
  H   H629      1.0  0.64803  0.32657  0.69384  1.0000
  H   H630      1.0  0.62710  0.32638  0.64902  1.0000
  C   C375      1.0  0.64643  0.29740  0.88278  1.0000
  C   C376      1.0  0.66126  0.27435  0.88903  1.0000
  C   C377      1.0  0.66076  0.25104  0.91363  1.0000
  C   C378      1.0  0.64548  0.25043  0.93231  1.0000
  C   C379      1.0  0.63058  0.27326  0.92592  1.0000
  C   C380      1.0  0.63108  0.29658  0.90129  1.0000
  H   H631      1.0  0.35043  0.23623  0.99267  1.0000
  H   H632      1.0  0.62246  0.27252  0.81582  1.0000
  H   H633      1.0  0.61874  0.27313  0.94005  1.0000
  H   H634      1.0  0.61951  0.31420  0.89659  1.0000
  Fe  Fe58      1.0  0.62500  0.21221  0.00002  1.0000
  H   H635      1.0  0.51832  0.22706  0.59261  1.0000
  H   H636      1.0  0.54876  0.02908  0.55263  1.0000
  C   C381      1.0  0.41885  0.04411  0.53450  1.0000
  H   H637      1.0  0.64398  0.20246  0.82764  1.0000
  C   C382      1.0  0.38243  0.29568  0.68783  1.0000
  C   C383      1.0  0.37196  0.26358  0.68841  1.0000
  C   C384      1.0  0.37486  0.23517  0.66720  1.0000
  C   C385      1.0  0.38832  0.23839  0.64535  1.0000
  C   C386      1.0  0.39882  0.27044  0.64485  1.0000
  C   C387      1.0  0.39585  0.29891  0.66595  1.0000
  H   H638      1.0  0.36159  0.26070  0.70512  1.0000
  H   H639      1.0  0.36665  0.21052  0.66780  1.0000
  H   H640      1.0  0.40921  0.27334  0.62819  1.0000
  H   H641      1.0  0.40404  0.32360  0.66532  1.0000
  C   C388      1.0  0.39144  0.28856  0.89046  1.0000
  C   C389      1.0  0.37499  0.28150  0.90479  1.0000
  C   C390      1.0  0.37531  0.26527  0.93306  1.0000
  C   C391      1.0  0.39202  0.25544  0.94719  1.0000
  C   C392      1.0  0.40847  0.26225  0.93274  1.0000
  C   C393      1.0  0.40816  0.27898  0.90466  1.0000
  H   H642      1.0  0.36202  0.28878  0.89422  1.0000
  H   H643      1.0  0.36249  0.26016  0.94396  1.0000
  H   H644      1.0  0.42143  0.25510  0.94338  1.0000
  H   H645      1.0  0.42100  0.28468  0.89401  1.0000
  N   N26       1.0  0.62856  0.24279  0.77463  1.0000
  H   H646      1.0  0.56453  0.09948  0.61945  1.0000
  C   C394      1.0  0.63185  0.27723  0.75764  1.0000
  C   C395      1.0  0.64233  0.21434  0.76511  1.0000
  C   C396      1.0  0.60910  0.22859  0.77099  1.0000
  H   H647      1.0  0.57023  0.04890  0.54384  1.0000
  C   C397      1.0  0.61985  0.31026  0.76646  1.0000
  H   H648      1.0  0.38604  0.46311  0.93309  1.0000
  C   C398      1.0  0.59972  0.23162  0.73968  1.0000
  Fe  Fe59      1.0  0.41442  0.20864  0.01066  1.0000
  H   H649      1.0  0.36098  0.46641  0.76861  1.0000
  H   H650      1.0  0.63011  0.27296  0.73320  1.0000
  H   H651      1.0  0.62068  0.08116  0.00399  1.0000
  H   H652      1.0  0.65661  0.22519  0.76841  1.0000
  H   H653      1.0  0.64149  0.18972  0.77903  1.0000
  H   H654      1.0  0.38806  0.49837  0.87082  1.0000
  H   H655      1.0  0.60001  0.24360  0.78673  1.0000
  H   H656      1.0  0.54037  0.05848  0.96939  1.0000
  C   C399      1.0  0.64047  0.19946  0.73273  1.0000
  Fe  Fe60      1.0  0.34427  0.38687  0.80049  1.0000
  H   H657      1.0  0.53191  0.07596  0.52424  1.0000
  H   H658      1.0  0.64646  0.34510  0.98713  1.0000
  N   N27       1.0  0.55809  0.07128  0.00814  1.0000
  S   S115      1.0  0.41777  0.08541  0.51467  1.0000
  H   H659      1.0  0.39876  0.39090  0.84717  1.0000
  H   H660      1.0  0.59104  0.20698  0.73513  1.0000
  H   H661      1.0  0.60908  0.23345  0.72074  1.0000
  S   S116      1.0  0.48094  0.20734  0.57766  1.0000
  S   S117      1.0  0.67432  0.27167  0.71572  1.0000
  H   H662      1.0  0.40751  0.38417  0.89624  1.0000
  H   H663      1.0  0.58350  0.10087  0.94687  1.0000
  H   H664      1.0  0.36150  0.15805  0.59385  1.0000
  N   N28       1.0  0.37529  0.43116  0.89530  1.0000
  C   C400      1.0  0.61444  0.01936  0.56319  1.0000
  C   C401      1.0  0.56834  0.03566  0.58920  1.0000
  C   C402      1.0  0.63240  0.25196  0.80731  1.0000
  C   C403      1.0  0.37668  0.42747  0.86184  1.0000
  H   H665      1.0  0.51108  0.05624  0.99182  1.0000
  H   H666      1.0  0.40727  0.43426  0.86190  1.0000
  H   H667      1.0  0.65238  0.18146  0.72805  1.0000
  H   H668      1.0  0.52432  0.06498  0.57453  1.0000
  H   H669      1.0  0.54739  0.22252  0.56464  1.0000
  H   H670      1.0  0.53289  0.14604  0.59122  1.0000
  H   H671      1.0  0.40546  0.40217  0.93415  1.0000
  C   C404      1.0  0.37178  0.03574  0.56370  1.0000
  H   H672      1.0  0.61578  0.02196  0.97658  1.0000
  H   H673      1.0  0.58451  0.12267  0.60818  1.0000
  C   C405      1.0  0.53979  0.07257  0.99155  1.0000
  H   H674      1.0  0.39528  0.09202  0.57063  1.0000
  C   C406      1.0  0.35685  0.49074  0.78087  1.0000
  H   H675      1.0  0.56004  0.14323  0.56313  1.0000
  H   H676      1.0  0.35474  0.12137  0.61650  1.0000
  H   H677      1.0  0.56403  0.14793  0.61328  1.0000
  H   H678      1.0  0.36793  0.40446  0.85314  1.0000
  C   C407      1.0  0.39045  0.09844  0.61756  1.0000
  C   C408      1.0  0.37885  0.39492  0.90990  1.0000
  H   H679      1.0  0.62126  0.33168  0.74947  1.0000
  N   N29       1.0  0.36627  0.10427  0.57421  1.0000
  H   H680      1.0  0.39643  0.43227  0.82650  1.0000
  H   H681      1.0  0.53839  0.07785  0.60530  1.0000
  H   H682      1.0  0.37873  0.10864  0.53046  1.0000
  C   C409      1.0  0.55917  0.04978  0.56039  1.0000
  H   H683      1.0  0.59008  0.25508  0.73925  1.0000
  H   H684      1.0  0.46906  0.28061  0.55474  1.0000
  C   C410      1.0  0.65407  0.31981  0.99229  1.0000
  H   H685      1.0  0.35322  0.06894  0.51632  1.0000
  H   H686      1.0  0.66535  0.32384  0.94804  1.0000
  H   H687      1.0  0.60844  0.19939  0.77734  1.0000
  H   H688      1.0  0.39937  0.35615  0.92495  1.0000
  C   C411      1.0  0.38798  0.46032  0.90852  1.0000
  C   C412      1.0  0.50113  0.18924  0.52774  1.0000
  C   C413      1.0  0.61624  0.02273  0.00075  1.0000
  H   H689      1.0  0.67315  0.27460  0.87501  1.0000
  C   C414      1.0  0.38603  0.10839  0.58489  1.0000
  H   H690      1.0  0.36464  0.14569  0.54031  1.0000
  H   H691      1.0  0.48844  0.29657  0.53550  1.0000
  C   C415      1.0  0.51895  0.18426  0.00374  1.0000
  H   H692      1.0  0.38355  0.11695  0.63368  1.0000
  H   H693      1.0  0.51933  0.16606  0.98439  1.0000
  H   H694      1.0  0.35477  0.45081  0.92620  1.0000
  H   H695      1.0  0.67238  0.23358  0.91839  1.0000
  H   H696      1.0  0.46642  0.31988  0.53239  1.0000
  H   H697      1.0  0.61896  0.20313  0.82580  1.0000
  H   H698      1.0  0.66774  0.22067  0.66690  1.0000
  H   H699      1.0  0.40265  0.45303  0.90637  1.0000
  H   H700      1.0  0.57781  0.11058  0.55967  1.0000
  C   C416      1.0  0.57072  0.08964  0.95626  1.0000
  N   N30       1.0  0.41805  0.26460  0.77454  1.0000
  C   C417      1.0  0.41030  0.24084  0.79843  1.0000
  C   C418      1.0  0.40691  0.25705  0.74618  1.0000
  C   C419      1.0  0.41504  0.30380  0.78445  1.0000
  C   C420      1.0  0.43823  0.25639  0.77137  1.0000
  C   C421      1.0  0.42131  0.24004  0.82842  1.0000
  C   C422      1.0  0.40775  0.21758  0.73330  1.0000
  C   C423      1.0  0.42265  0.33367  0.76449  1.0000
  C   C424      1.0  0.44712  0.26650  0.74153  1.0000
  H   H701      1.0  0.39591  0.24902  0.80345  1.0000
  H   H702      1.0  0.40939  0.21179  0.79081  1.0000
  H   H703      1.0  0.41082  0.27528  0.72806  1.0000
  H   H704      1.0  0.39213  0.26343  0.74969  1.0000
  H   H705      1.0  0.40007  0.30912  0.78676  1.0000
  H   H706      1.0  0.42128  0.30962  0.80691  1.0000
  H   H707      1.0  0.44635  0.27000  0.78995  1.0000
  H   H708      1.0  0.44058  0.22651  0.77375  1.0000
  H   H709      1.0  0.41325  0.22456  0.84472  1.0000
  H   H710      1.0  0.43462  0.22575  0.82601  1.0000
  H   H711      1.0  0.42383  0.26740  0.83868  1.0000
  H   H712      1.0  0.39800  0.19948  0.74466  1.0000
  H   H713      1.0  0.40339  0.21746  0.70935  1.0000
  H   H714      1.0  0.42171  0.20575  0.73445  1.0000
  H   H715      1.0  0.43789  0.33385  0.76492  1.0000
  H   H716      1.0  0.41829  0.36074  0.77352  1.0000
  H   H717      1.0  0.41714  0.33176  0.74125  1.0000
  H   H718      1.0  0.46115  0.27758  0.74636  1.0000
  H   H719      1.0  0.43979  0.28723  0.72835  1.0000
  H   H720      1.0  0.44909  0.24168  0.72721  1.0000
  C   C425      1.0  0.53431  0.19936  0.52490  1.0000
  C   C426      1.0  0.63158  0.21991  0.82905  1.0000
  C   C427      1.0  0.57268  0.09048  0.99069  1.0000
  H   H721      1.0  0.65933  0.39069  0.00971  1.0000
  C   C428      1.0  0.53442  0.08625  0.58251  1.0000
  H   H722      1.0  0.57327  0.12000  0.99682  1.0000
  H   H723      1.0  0.37070  0.45151  0.85040  1.0000
  N   N31       1.0  0.55059  0.08718  0.56205  1.0000
  H   H724      1.0  0.51401  0.12029  0.60452  1.0000
  S   S118      1.0  0.40063  0.18355  0.53524  1.0000
  H   H725      1.0  0.64439  0.29745  0.98518  1.0000
  C   C429      1.0  0.39592  0.42063  0.84916  1.0000
  S   S119      1.0  0.44135  0.18339  0.99729  1.0000
  H   H726      1.0  0.48843  0.17885  0.51778  1.0000
  C   C430      1.0  0.35507  0.13030  0.59295  1.0000
  S   S120      1.0  0.60407  0.24826  0.51758  1.0000
  S   S121      1.0  0.61731  0.09408  0.56614  1.0000
  H   H727      1.0  0.51528  0.12804  0.56562  1.0000
  H   H728      1.0  0.58656  0.08007  0.99655  1.0000
  H   H729      1.0  0.35880  0.05956  0.60234  1.0000
  C   C431      1.0  0.35039  0.09818  0.52132  1.0000
  Fe  Fe61      1.0  0.58417  0.20116  0.52164  1.0000
  H   H730      1.0  0.58074  0.05201  0.59569  1.0000
  C   C432      1.0  0.54307  0.09554  0.53120  1.0000
  S   S122      1.0  0.43817  0.07791  0.00611  1.0000
  H   H731      1.0  0.38193  0.02500  0.58015  1.0000
  S   S123      1.0  0.60686  0.16227  0.99910  1.0000
  H   H732      1.0  0.34824  0.18874  0.98527  1.0000
  H   H733      1.0  0.37232  0.51099  0.90009  1.0000
  Fe  Fe62      1.0  0.42116  0.22268  0.51737  1.0000
  H   H734      1.0  0.37934  0.04569  0.54428  1.0000
  C   C433      1.0  0.52327  0.05570  0.00728  1.0000
  C   C434      1.0  0.34517  0.48766  0.80502  1.0000
  C   C435      1.0  0.60404  0.05028  0.51882  1.0000
  H   H735      1.0  0.61931  0.33404  0.01170  1.0000
  H   H736      1.0  0.36300  0.01278  0.55500  1.0000
  H   H737      1.0  0.52565  0.02675  0.01282  1.0000
  Fe  Fe63      1.0  0.36011  0.70085  0.33861  1.0000
  S   S124      1.0  0.36434  0.70574  0.38930  1.0000
  Fe  Fe64      1.0  0.36736  0.72393  0.27489  1.0000
  S   S125      1.0  0.38666  0.76074  0.24966  1.0000
  Fe  Fe65      1.0  0.35938  0.64348  0.28674  1.0000
  H   H738      1.0  0.65370  0.63777  0.22593  1.0000
  H   H739      1.0  0.63044  0.95464  0.47632  1.0000
  S   S126      1.0  0.38095  0.68285  0.30495  1.0000
  S   S127      1.0  0.66004  0.68857  0.27825  1.0000
  H   H740      1.0  0.41860  0.56123  0.21423  1.0000
  H   H741      1.0  0.45370  0.00398  0.06891  1.0000
  N   N32       1.0  0.65251  0.90193  0.43943  1.0000
  H   H742      1.0  0.53318  0.84394  0.47220  1.0000
  S   S128      1.0  0.63938  0.74847  0.34150  1.0000
  H   H743      1.0  0.37900  0.89319  0.02430  1.0000
  H   H744      1.0  0.55533  0.84971  0.49112  1.0000
  H   H745      1.0  0.45659  0.76435  0.37686  1.0000
  Fe  Fe66      1.0  0.61535  0.84078  0.06901  1.0000
  S   S129      1.0  0.63422  0.86200  0.03408  1.0000
  S   S130      1.0  0.62158  0.84006  0.11924  1.0000
  N   N33       1.0  0.48041  0.97792  0.07074  1.0000
  S   S131      1.0  0.59458  0.94170  0.50403  1.0000
  C   C436      1.0  0.61506  0.99139  0.04758  1.0000
  H   H746      1.0  0.44829  0.64662  0.44519  1.0000
  S   S132      1.0  0.59144  0.87605  0.05419  1.0000
  S   S133      1.0  0.60623  0.79187  0.04122  1.0000
  Fe  Fe67      1.0  0.41842  0.87877  0.05935  1.0000
  C   C437      1.0  0.63194  0.65226  0.37217  1.0000
  C   C438      1.0  0.66420  0.53563  0.27332  1.0000
  Fe  Fe68      1.0  0.41590  0.80041  0.08211  1.0000
  S   S134      1.0  0.43942  0.78129  0.05347  1.0000
  S   S135      1.0  0.39853  0.76131  0.10901  1.0000
  Fe  Fe69      1.0  0.45337  0.83417  0.06802  1.0000
  S   S136      1.0  0.48250  0.84595  0.08590  1.0000
  H   H747      1.0  0.54253  0.00857  0.49662  1.0000
  S   S137      1.0  0.41529  0.81845  0.46374  1.0000
  S   S138      1.0  0.43079  0.85077  0.09913  1.0000
  S   S139      1.0  0.40151  0.82974  0.04452  1.0000
  C   C439      1.0  0.53466  0.81990  0.03374  1.0000
  C   C440      1.0  0.53518  0.84543  0.05752  1.0000
  C   C441      1.0  0.51906  0.85339  0.07319  1.0000
  C   C442      1.0  0.50222  0.83665  0.06471  1.0000
  C   C443      1.0  0.50160  0.81213  0.04032  1.0000
  H   H748      1.0  0.66967  0.94882  0.45199  1.0000
  H   H749      1.0  0.54804  0.85855  0.06409  1.0000
  C   C444      1.0  0.66808  0.87905  0.45154  1.0000
  H   H750      1.0  0.36591  0.51491  0.24012  1.0000
  H   H751      1.0  0.66300  0.59459  0.27826  1.0000
  C   C445      1.0  0.64150  0.76125  0.37986  1.0000
  C   C446      1.0  0.65856  0.76280  0.39495  1.0000
  C   C447      1.0  0.65959  0.77248  0.42560  1.0000
  C   C448      1.0  0.64364  0.78108  0.44138  1.0000
  C   C449      1.0  0.62659  0.77956  0.42629  1.0000
  C   C450      1.0  0.62554  0.76951  0.39572  1.0000
  H   H752      1.0  0.64942  0.79234  0.21148  1.0000
  H   H753      1.0  0.65040  0.98076  0.48641  1.0000
  H   H754      1.0  0.61420  0.78605  0.43817  1.0000
  H   H755      1.0  0.61228  0.76830  0.38423  1.0000
  C   C451      1.0  0.65229  0.75376  0.17492  1.0000
  C   C452      1.0  0.64853  0.74715  0.14426  1.0000
  C   C453      1.0  0.63939  0.77340  0.12675  1.0000
  C   C454      1.0  0.63383  0.80655  0.13980  1.0000
  C   C455      1.0  0.63744  0.81297  0.17050  1.0000
  C   C456      1.0  0.64667  0.78685  0.18795  1.0000
  H   H756      1.0  0.66980  0.56832  0.39626  1.0000
  H   H757      1.0  0.63666  0.76800  0.10320  1.0000
  H   H758      1.0  0.63314  0.83844  0.18085  1.0000
  C   C457      1.0  0.37665  0.74033  0.40988  1.0000
  C   C458      1.0  0.38616  0.76804  0.39579  1.0000
  C   C459      1.0  0.39705  0.79313  0.41287  1.0000
  C   C460      1.0  0.39868  0.79068  0.44415  1.0000
  C   C461      1.0  0.38843  0.76410  0.45838  1.0000
  C   C462      1.0  0.37750  0.73901  0.44128  1.0000
  H   H759      1.0  0.38550  0.76961  0.37169  1.0000
  H   H760      1.0  0.40477  0.81384  0.40167  1.0000
  H   H761      1.0  0.38947  0.76199  0.48242  1.0000
  H   H762      1.0  0.37009  0.71780  0.45240  1.0000
  C   C463      1.0  0.38861  0.76332  0.21029  1.0000
  C   C464      1.0  0.37654  0.74471  0.19037  1.0000
  C   C465      1.0  0.37938  0.74553  0.15933  1.0000
  C   C466      1.0  0.39422  0.76507  0.14783  1.0000
  C   C467      1.0  0.40597  0.78453  0.16770  1.0000
  C   C468      1.0  0.40317  0.78360  0.19873  1.0000
  H   H763      1.0  0.36516  0.72933  0.19888  1.0000
  H   H764      1.0  0.37015  0.73062  0.14410  1.0000
  H   H765      1.0  0.41745  0.79962  0.15920  1.0000
  H   H766      1.0  0.41252  0.79829  0.21391  1.0000
  H   H767      1.0  0.39792  0.56048  0.19140  1.0000
  C   C469      1.0  0.41518  0.97472  0.04830  1.0000
  Fe  Fe70      1.0  0.66331  0.73607  0.31100  1.0000
  C   C470      1.0  0.66103  0.61696  0.21233  1.0000
  H   H768      1.0  0.64916  0.96053  0.43303  1.0000
  C   C471      1.0  0.48550  0.92568  0.03165  1.0000
  H   H769      1.0  0.61928  0.93220  0.42818  1.0000
  S   S140      1.0  0.44174  0.86551  0.02950  1.0000
  H   H770      1.0  0.44665  0.95751  0.09989  1.0000
  H   H771      1.0  0.61365  0.96646  0.05983  1.0000
  H   H772      1.0  0.65707  0.59007  0.22086  1.0000
  H   H773      1.0  0.39926  0.58466  0.22696  1.0000
  C   C472      1.0  0.54707  0.97968  0.49743  1.0000
  C   C473      1.0  0.36795  0.51315  0.26405  1.0000
  C   C474      1.0  0.36778  0.54524  0.28196  1.0000
  H   H774      1.0  0.61328  0.88785  0.41220  1.0000
  H   H775      1.0  0.41134  0.70414  0.38278  1.0000
  S   S141      1.0  0.34783  0.74472  0.31005  1.0000
  N   N34       1.0  0.44351  0.71523  0.42230  1.0000
  C   C475      1.0  0.44490  0.75633  0.42144  1.0000
  C   C476      1.0  0.42689  0.70553  0.44002  1.0000
  C   C477      1.0  0.44125  0.69847  0.39136  1.0000
  C   C478      1.0  0.46093  0.70088  0.43648  1.0000
  C   C479      1.0  0.45942  0.77195  0.40064  1.0000
  C   C480      1.0  0.42846  0.71350  0.47397  1.0000
  C   C481      1.0  0.42455  0.71195  0.37277  1.0000
  H   H776      1.0  0.40266  0.67773  0.13134  1.0000
  H   H777      1.0  0.43154  0.76849  0.41474  1.0000
  H   H778      1.0  0.44801  0.76822  0.44412  1.0000
  H   H779      1.0  0.42286  0.67637  0.43655  1.0000
  H   H780      1.0  0.41468  0.72067  0.43177  1.0000
  H   H781      1.0  0.47295  0.70742  0.42267  1.0000
  H   H782      1.0  0.46427  0.71503  0.45828  1.0000
  H   H783      1.0  0.41507  0.70720  0.48412  1.0000
  H   H784      1.0  0.65280  0.72167  0.13393  1.0000
  H   H785      1.0  0.63809  0.66412  0.32544  1.0000
  S   S142      1.0  0.34709  0.68369  0.25468  1.0000
  H   H786      1.0  0.42523  0.69568  0.13621  1.0000
  H   H787      1.0  0.65347  0.66480  0.45516  1.0000
  H   H788      1.0  0.42484  0.74187  0.36954  1.0000
  H   H789      1.0  0.48598  0.92647  0.09231  1.0000
  H   H790      1.0  0.63781  0.58099  0.37347  1.0000
  C   C482      1.0  0.46176  0.65911  0.44065  1.0000
  N   N35       1.0  0.56374  0.76815  0.11731  1.0000
  C   C483      1.0  0.56976  0.76209  0.14932  1.0000
  C   C484      1.0  0.54319  0.77370  0.11634  1.0000
  C   C485      1.0  0.57287  0.80142  0.10512  1.0000
  C   C486      1.0  0.56925  0.73531  0.09870  1.0000
  C   C487      1.0  0.59070  0.76288  0.15591  1.0000
  C   C488      1.0  0.53144  0.73939  0.12148  1.0000
  C   C489      1.0  0.56949  0.83752  0.12264  1.0000
  C   C490      1.0  0.56288  0.73484  0.06551  1.0000
  H   H791      1.0  0.56349  0.78259  0.16471  1.0000
  H   H792      1.0  0.56472  0.73520  0.15688  1.0000
  H   H793      1.0  0.53845  0.78546  0.09485  1.0000
  H   H794      1.0  0.53910  0.79446  0.13348  1.0000
  H   H795      1.0  0.58799  0.79750  0.10370  1.0000
  H   H796      1.0  0.56814  0.80579  0.08164  1.0000
  H   H797      1.0  0.58449  0.73300  0.09836  1.0000
  H   H798      1.0  0.56484  0.70928  0.10877  1.0000
  H   H799      1.0  0.59658  0.79055  0.15325  1.0000
  H   H800      1.0  0.59340  0.75575  0.17959  1.0000
  H   H801      1.0  0.59832  0.74294  0.14200  1.0000
  H   H802      1.0  0.53487  0.72680  0.14316  1.0000
  H   H803      1.0  0.51673  0.74743  0.12186  1.0000
  H   H804      1.0  0.53272  0.71886  0.10304  1.0000
  H   H805      1.0  0.55488  0.84593  0.12097  1.0000
  H   H806      1.0  0.57776  0.85957  0.11288  1.0000
  H   H807      1.0  0.57396  0.83623  0.14640  1.0000
  H   H808      1.0  0.57334  0.74767  0.05148  1.0000
  H   H809      1.0  0.54964  0.74872  0.06133  1.0000
  H   H810      1.0  0.56067  0.70618  0.05750  1.0000
  C   C491      1.0  0.65481  0.94139  0.44992  1.0000
  H   H811      1.0  0.67285  0.77364  0.43709  1.0000
  H   H812      1.0  0.47948  0.96214  0.11697  1.0000
  S   S143      1.0  0.40627  0.93547  0.06510  1.0000
  H   H813      1.0  0.41196  0.01118  0.49524  1.0000
  H   H814      1.0  0.45254  0.92197  0.07311  1.0000
  H   H815      1.0  0.47066  0.65321  0.46047  1.0000
  H   H816      1.0  0.51963  0.87248  0.09200  1.0000
  H   H817      1.0  0.51846  0.76737  0.50307  1.0000
  C   C492      1.0  0.51619  0.89361  0.50659  1.0000
  H   H818      1.0  0.48873  0.79908  0.03359  1.0000
  H   H819      1.0  0.65590  0.62014  0.18905  1.0000
  C   C493      1.0  0.67149  0.88073  0.48554  1.0000
  H   H820      1.0  0.42214  0.64719  0.13563  1.0000
  C   C494      1.0  0.65398  0.90144  0.40580  1.0000
  H   H821      1.0  0.50930  0.88974  0.48420  1.0000
  S   S144      1.0  0.59625  0.83963  0.49111  1.0000
  H   H822      1.0  0.36383  0.64016  0.20811  1.0000
  C   C495      1.0  0.61430  0.99016  0.01635  1.0000
  C   C496      1.0  0.54624  0.85973  0.47298  1.0000
  H   H823      1.0  0.60555  0.90220  0.44866  1.0000
  C   C497      1.0  0.53003  0.95484  0.50027  1.0000
  C   C498      1.0  0.46818  0.01066  0.07563  1.0000
  C   C499      1.0  0.45669  0.93574  0.09447  1.0000
  C   C500      1.0  0.66712  0.57296  0.37221  1.0000
  C   C501      1.0  0.65005  0.66912  0.43118  1.0000
  H   H824      1.0  0.55328  0.85353  0.45173  1.0000
  H   H825      1.0  0.67096  0.75662  0.38303  1.0000
  C   C502      1.0  0.62676  0.65325  0.33861  1.0000
  H   H826      1.0  0.63385  0.85610  0.44280  1.0000
  H   H827      1.0  0.48018  0.90332  0.04522  1.0000
  H   H828      1.0  0.51212  0.98547  0.11882  1.0000
  H   H829      1.0  0.43968  0.66826  0.39248  1.0000
  H   H830      1.0  0.66728  0.91397  0.39940  1.0000
  C   C503      1.0  0.63439  0.88585  0.44811  1.0000
  C   C504      1.0  0.54318  0.90136  0.47593  1.0000
  H   H831      1.0  0.50460  0.00560  0.05441  1.0000
  C   C505      1.0  0.47658  0.95030  0.09421  1.0000
  H   H832      1.0  0.55447  0.97404  0.47648  1.0000
  C   C506      1.0  0.37054  0.54264  0.31285  1.0000
  H   H833      1.0  0.37053  0.56713  0.32687  1.0000
  C   C507      1.0  0.47638  0.96247  0.03972  1.0000
  C   C508      1.0  0.50048  0.98813  0.07313  1.0000
  H   H834      1.0  0.43142  0.74271  0.47918  1.0000
  H   H835      1.0  0.63969  0.84906  0.39427  1.0000
  H   H836      1.0  0.42467  0.69872  0.35019  1.0000
  S   S145      1.0  0.66376  0.71967  0.19602  1.0000
  C   C509      1.0  0.65094  0.63219  0.41381  1.0000
  H   H837      1.0  0.45886  0.80228  0.40228  1.0000
  H   H838      1.0  0.46140  0.95845  0.03587  1.0000
  S   S146      1.0  0.55476  0.80614  0.01509  1.0000
  N   N36       1.0  0.65011  0.63462  0.38021  1.0000
  H   H839      1.0  0.63263  0.88654  0.47266  1.0000
  H   H840      1.0  0.52100  0.95876  0.48012  1.0000
  H   H841      1.0  0.61488  0.67188  0.33539  1.0000
  H   H842      1.0  0.66457  0.84594  0.39572  1.0000
  H   H843      1.0  0.46747  0.64515  0.42064  1.0000
  N   N37       1.0  0.53395  0.91476  0.50401  1.0000
  H   H844      1.0  0.53515  0.90953  0.45565  1.0000
  H   H845      1.0  0.45383  0.70259  0.37818  1.0000
  H   H846      1.0  0.62243  0.62596  0.32961  1.0000
  H   H847      1.0  0.47359  0.76408  0.40731  1.0000
  H   H848      1.0  0.48056  0.98208  0.02253  1.0000
  H   H849      1.0  0.63602  0.68093  0.43024  1.0000
  N   N38       1.0  0.40300  0.64614  0.19153  1.0000
  C   C510      1.0  0.41416  0.67591  0.17753  1.0000
  C   C511      1.0  0.39941  0.65849  0.22324  1.0000
  C   C512      1.0  0.38506  0.64211  0.17400  1.0000
  C   C513      1.0  0.41404  0.61137  0.18988  1.0000
  C   C514      1.0  0.41601  0.67333  0.14324  1.0000
  C   C515      1.0  0.41668  0.66537  0.24328  1.0000
  C   C516      1.0  0.36897  0.62319  0.18932  1.0000
  C   C517      1.0  0.40678  0.57794  0.20646  1.0000
  H   H850      1.0  0.40832  0.70327  0.18273  1.0000
  H   H851      1.0  0.42843  0.67694  0.18704  1.0000
  H   H852      1.0  0.39067  0.63901  0.23507  1.0000
  H   H853      1.0  0.39128  0.68421  0.22336  1.0000
  H   H854      1.0  0.37970  0.66948  0.16793  1.0000
  H   H855      1.0  0.38716  0.62707  0.15244  1.0000
  H   H856      1.0  0.41537  0.60207  0.16622  1.0000
  H   H857      1.0  0.42856  0.61608  0.19749  1.0000
  H   H858      1.0  0.50919  0.96341  0.07045  1.0000
  H   H859      1.0  0.65903  0.87339  0.49774  1.0000
  H   H860      1.0  0.62038  0.63841  0.38332  1.0000
  H   H861      1.0  0.41235  0.67208  0.26633  1.0000
  H   H862      1.0  0.42554  0.64088  0.24454  1.0000
  H   H863      1.0  0.42466  0.68931  0.23598  1.0000
  H   H864      1.0  0.37232  0.59566  0.19725  1.0000
  H   H865      1.0  0.35729  0.61997  0.17301  1.0000
  S   S147      1.0  0.64580  0.79457  0.47961  1.0000
  H   H866      1.0  0.65087  0.53333  0.26218  1.0000
  H   H867      1.0  0.45574  0.91505  0.11211  1.0000
  H   H868      1.0  0.66582  0.84968  0.44562  1.0000
  H   H869      1.0  0.64890  0.59780  0.34146  1.0000
  C   C518      1.0  0.61722  0.90300  0.43319  1.0000
  C   C519      1.0  0.64558  0.95293  0.47942  1.0000
  S   S148      1.0  0.36448  0.58777  0.26451  1.0000
  H   H870      1.0  0.55707  0.91392  0.47404  1.0000
  H   H871      1.0  0.63943  0.61491  0.42155  1.0000
  H   H872      1.0  0.63169  0.68125  0.38030  1.0000
  C   C520      1.0  0.65003  0.59666  0.36625  1.0000
  H   H873      1.0  0.43892  0.69611  0.48501  1.0000
  H   H874      1.0  0.64866  0.93471  0.49819  1.0000
  Fe  Fe71      1.0  0.58361  0.82838  0.02419  1.0000
  Fe  Fe72      1.0  0.67316  0.72520  0.24505  1.0000
  H   H875      1.0  0.40218  0.01164  0.07939  1.0000
  C   C521      1.0  0.51779  0.80356  0.02512  1.0000
  H   H876      1.0  0.64324  0.91883  0.39527  1.0000
  S   S149      1.0  0.67414  0.77413  0.27659  1.0000
  Fe  Fe73      1.0  0.62277  0.81668  0.50848  1.0000
  C   C522      1.0  0.67108  0.57039  0.28229  1.0000
  H   H877      1.0  0.66342  0.61811  0.42202  1.0000
  C   C523      1.0  0.65271  0.86355  0.38988  1.0000
  H   H878      1.0  0.65306  0.86720  0.36534  1.0000
  H   H879      1.0  0.66480  0.54560  0.36141  1.0000
  H   H880      1.0  0.66610  0.54350  0.19567  1.0000
  H   H881      1.0  0.50070  0.92661  0.03350  1.0000
  C   C524      1.0  0.42622  0.97210  0.02325  1.0000
  Fe  Fe74      1.0  0.42578  0.81415  0.01708  1.0000
  H   H882      1.0  0.66699  0.65145  0.34377  1.0000
  C   C525      1.0  0.50706  0.00638  0.10303  1.0000
  Fe  Fe75      1.0  0.60960  0.89308  0.01714  1.0000
  H   H883      1.0  0.67483  0.58769  0.16073  1.0000
  C   C526      1.0  0.41083  0.00942  0.06011  1.0000
  H   H884      1.0  0.65997  0.68942  0.42309  1.0000
  H   H885      1.0  0.66195  0.68694  0.36979  1.0000
  C   C527      1.0  0.66547  0.65738  0.36810  1.0000
  H   H886      1.0  0.42955  0.94554  0.01387  1.0000
  Fe  Fe76      1.0  0.35606  0.72118  0.83729  1.0000
  S   S150      1.0  0.35830  0.73433  0.88741  1.0000
  Fe  Fe77      1.0  0.36511  0.73719  0.77248  1.0000
  S   S151      1.0  0.38445  0.77140  0.74471  1.0000
  H   H887      1.0  0.36356  0.83925  0.89762  1.0000
  H   H888      1.0  0.65292  0.92134  0.90665  1.0000
  H   H889      1.0  0.48187  0.91816  0.00805  1.0000
  S   S152      1.0  0.37782  0.69989  0.80664  1.0000
  S   S153      1.0  0.65688  0.70009  0.77819  1.0000
  H   H890      1.0  0.43318  0.58353  0.70874  1.0000
  H   H891      1.0  0.61952  0.61173  0.89580  1.0000
  H   H892      1.0  0.38014  0.83794  0.94559  1.0000
  H   H893      1.0  0.42930  0.88594  0.96842  1.0000
  S   S154      1.0  0.65313  0.77777  0.83747  1.0000
  H   H894      1.0  0.38014  0.98240  0.66966  1.0000
  H   H895      1.0  0.36967  0.59739  0.70006  1.0000
  C   C528      1.0  0.41473  0.01109  0.51909  1.0000
  Fe  Fe78      1.0  0.61369  0.83485  0.57349  1.0000
  S   S155      1.0  0.62904  0.86557  0.53883  1.0000
  S   S156      1.0  0.62093  0.83521  0.62332  1.0000
  S   S157      1.0  0.34550  0.69452  0.75428  1.0000
  S   S158      1.0  0.60002  0.84760  0.98566  1.0000
  H   H896      1.0  0.38697  0.85066  0.89235  1.0000
  C   C529      1.0  0.36293  0.52547  0.77215  1.0000
  S   S159      1.0  0.58634  0.86006  0.56075  1.0000
  S   S160      1.0  0.60932  0.78456  0.54438  1.0000
  Fe  Fe79      1.0  0.41917  0.88203  0.56524  1.0000
  C   C530      1.0  0.59466  0.72908  0.61202  1.0000
  H   H897      1.0  0.38346  0.63230  0.65944  1.0000
  Fe  Fe80      1.0  0.41335  0.80064  0.57776  1.0000
  S   S161      1.0  0.43389  0.78244  0.54336  1.0000
  S   S162      1.0  0.39595  0.76097  0.60400  1.0000
  Fe  Fe81      1.0  0.45166  0.82912  0.56134  1.0000
  S   S163      1.0  0.48145  0.83329  0.57797  1.0000
  C   C531      1.0  0.56475  0.72647  0.63857  1.0000
  S   S164      1.0  0.42505  0.80058  0.96704  1.0000
  S   S165      1.0  0.43209  0.84356  0.59786  1.0000
  C   C532      1.0  0.34609  0.55439  0.81202  1.0000
  C   C533      1.0  0.53546  0.79586  0.53624  1.0000
  C   C534      1.0  0.53547  0.81820  0.56195  1.0000
  C   C535      1.0  0.51877  0.82912  0.57442  1.0000
  C   C536      1.0  0.50187  0.81839  0.56104  1.0000
  H   H898      1.0  0.40219  0.96581  0.65794  1.0000
  H   H899      1.0  0.40329  0.90692  0.99177  1.0000
  H   H900      1.0  0.54835  0.82682  0.57236  1.0000
  H   H901      1.0  0.51891  0.84600  0.59460  1.0000
  C   C537      1.0  0.42569  0.90224  0.94857  1.0000
  H   H902      1.0  0.51897  0.86562  0.51465  1.0000
  C   C538      1.0  0.65086  0.77822  0.87682  1.0000
  H   H903      1.0  0.66069  0.72653  0.63213  1.0000
  C   C539      1.0  0.66164  0.76366  0.92702  1.0000
  C   C540      1.0  0.64584  0.77936  0.93940  1.0000
  C   C541      1.0  0.63262  0.79467  0.92035  1.0000
  C   C542      1.0  0.63519  0.79428  0.88926  1.0000
  H   H904      1.0  0.41044  0.85745  0.92974  1.0000
  H   H905      1.0  0.43536  0.89240  0.66693  1.0000
  H   H906      1.0  0.62030  0.80643  0.92951  1.0000
  H   H907      1.0  0.62484  0.80611  0.87469  1.0000
  C   C543      1.0  0.65687  0.75315  0.67497  1.0000
  C   C544      1.0  0.65433  0.74923  0.64378  1.0000
  C   C545      1.0  0.64365  0.77438  0.62753  1.0000
  C   C546      1.0  0.63540  0.80387  0.64235  1.0000
  C   C547      1.0  0.63798  0.80788  0.67352  1.0000
  C   C548      1.0  0.64863  0.78268  0.68977  1.0000
  H   H908      1.0  0.52207  0.96651  0.51894  1.0000
  H   H909      1.0  0.64185  0.77096  0.60358  1.0000
  H   H910      1.0  0.63166  0.83058  0.68521  1.0000
  C   C549      1.0  0.37730  0.75173  0.90911  1.0000
  C   C550      1.0  0.37577  0.75494  0.94034  1.0000
  C   C551      1.0  0.39037  0.76908  0.95850  1.0000
  C   C552      1.0  0.40664  0.78052  0.94553  1.0000
  C   C553      1.0  0.40818  0.77732  0.91431  1.0000
  C   C554      1.0  0.39361  0.76298  0.89617  1.0000
  H   H911      1.0  0.36321  0.74629  0.95057  1.0000
  H   H912      1.0  0.38898  0.77135  0.98247  1.0000
  H   H913      1.0  0.42072  0.78602  0.90407  1.0000
  H   H914      1.0  0.39499  0.76068  0.87221  1.0000
  C   C555      1.0  0.38744  0.76744  0.70559  1.0000
  C   C556      1.0  0.37417  0.75120  0.68638  1.0000
  C   C557      1.0  0.37695  0.74943  0.65531  1.0000
  C   C558      1.0  0.39298  0.76393  0.64314  1.0000
  C   C559      1.0  0.40639  0.77950  0.66243  1.0000
  C   C560      1.0  0.40355  0.78159  0.69343  1.0000
  H   H915      1.0  0.36166  0.74041  0.69541  1.0000
  H   H916      1.0  0.36654  0.73710  0.64057  1.0000
  H   H917      1.0  0.41904  0.78969  0.65344  1.0000
  H   H918      1.0  0.41397  0.79393  0.70814  1.0000
  C   C561      1.0  0.42097  0.01067  0.58076  1.0000
  S   S166      1.0  0.41257  0.93783  0.58578  1.0000
  H   H919      1.0  0.59978  0.78521  0.65864  1.0000
  C   C562      1.0  0.41644  0.66005  0.64822  1.0000
  H   H920      1.0  0.53405  0.90421  0.57387  1.0000
  H   H921      1.0  0.65049  0.78610  0.71372  1.0000
  H   H922      1.0  0.36682  0.83139  0.61084  1.0000
  H   H923      1.0  0.40374  0.97345  0.93918  1.0000
  S   S167      1.0  0.43976  0.87020  0.52992  1.0000
  H   H924      1.0  0.61172  0.96047  0.56207  1.0000
  H   H925      1.0  0.39137  0.64916  0.74428  1.0000
  H   H926      1.0  0.55136  0.79926  0.64344  1.0000
  H   H927      1.0  0.57271  0.82150  0.65591  1.0000
  H   H928      1.0  0.50638  0.91546  0.55007  1.0000
  H   H929      1.0  0.42101  0.92582  0.68384  1.0000
  H   H930      1.0  0.56941  0.97889  0.99610  1.0000
  H   H931      1.0  0.64562  0.66373  0.83634  1.0000
  C   C563      1.0  0.37519  0.89510  0.00021  1.0000
  H   H932      1.0  0.62532  0.91866  0.93922  1.0000
  H   H933      1.0  0.64898  0.70199  0.85945  1.0000
  H   H934      1.0  0.37633  0.67458  0.67557  1.0000
  S   S168      1.0  0.39875  0.84004  0.54734  1.0000
  C   C564      1.0  0.42701  0.60981  0.71627  1.0000
  C   C565      1.0  0.39646  0.66921  0.72805  1.0000
  S   S169      1.0  0.55627  0.78083  0.52061  1.0000
  C   C566      1.0  0.42215  0.89634  0.67852  1.0000
  H   H935      1.0  0.53427  0.95011  0.56008  1.0000
  H   H936      1.0  0.36737  0.88700  0.73848  1.0000
  H   H937      1.0  0.35989  0.86493  0.65646  1.0000
  H   H938      1.0  0.63386  0.66905  0.92915  1.0000
  H   H939      1.0  0.60136  0.70537  0.62259  1.0000
  H   H940      1.0  0.40874  0.69897  0.76627  1.0000
  H   H941      1.0  0.51724  0.78390  0.00667  1.0000
  H   H942      1.0  0.65461  0.87312  0.90668  1.0000
  H   H943      1.0  0.39857  0.59717  0.71715  1.0000
  N   N39       1.0  0.66444  0.89975  0.94785  1.0000
  H   H944      1.0  0.38532  0.68988  0.72593  1.0000
  C   C567      1.0  0.40754  0.61291  0.70223  1.0000
  H   H945      1.0  0.56821  0.68926  0.67607  1.0000
  C   C568      1.0  0.37651  0.85330  0.61875  1.0000
  S   S170      1.0  0.64330  0.77939  0.97868  1.0000
  H   H946      1.0  0.42649  0.61013  0.74105  1.0000
  C   C569      1.0  0.65561  0.96718  0.95822  1.0000
  H   H947      1.0  0.40417  0.66129  0.63306  1.0000
  C   C570      1.0  0.40800  0.88730  0.93289  1.0000
  N   N40       1.0  0.58170  0.74870  0.63268  1.0000
  H   H948      1.0  0.42216  0.63204  0.64824  1.0000
  H   H949      1.0  0.66868  0.93151  0.98896  1.0000
  H   H950      1.0  0.66871  0.97950  0.95122  1.0000
  H   H951      1.0  0.56678  0.77652  0.59716  1.0000
  C   C571      1.0  0.66918  0.66404  0.90131  1.0000
  C   C572      1.0  0.51857  0.78483  0.52291  1.0000
  S   S171      1.0  0.67003  0.71994  0.69430  1.0000
  H   H952      1.0  0.35686  0.86608  0.70616  1.0000
  H   H953      1.0  0.39840  0.96114  0.97689  1.0000
  C   C573      1.0  0.35748  0.55752  0.78748  1.0000
  H   H954      1.0  0.65094  0.61860  0.90749  1.0000
  H   H955      1.0  0.43731  0.89910  0.93310  1.0000
  H   H956      1.0  0.36505  0.92772  0.65973  1.0000
  H   H957      1.0  0.55564  0.72369  0.61825  1.0000
  H   H958      1.0  0.56128  0.83478  0.62250  1.0000
  C   C574      1.0  0.56772  0.68808  0.65125  1.0000
  H   H959      1.0  0.41019  0.95291  0.52229  1.0000
  C   C575      1.0  0.43296  0.00399  0.01027  1.0000
  H   H960      1.0  0.40749  0.89844  0.90997  1.0000
  C   C576      1.0  0.57558  0.78306  0.61725  1.0000
  H   H961      1.0  0.59903  0.70549  0.67939  1.0000
  H   H962      1.0  0.36318  0.63950  0.71879  1.0000
  Fe  Fe82      1.0  0.58306  0.81181  0.52937  1.0000
  C   C577      1.0  0.59156  0.75991  0.66163  1.0000
  Fe  Fe83      1.0  0.35676  0.65823  0.79022  1.0000
  C   C578      1.0  0.41275  0.68990  0.74353  1.0000
  N   N41       1.0  0.63546  0.65774  0.88140  1.0000
  H   H963      1.0  0.55596  0.74111  0.65488  1.0000
  C   C579      1.0  0.63008  0.68199  0.90756  1.0000
  C   C580      1.0  0.63879  0.68001  0.85416  1.0000
  H   H964      1.0  0.40700  0.59646  0.68098  1.0000
  C   C581      1.0  0.60960  0.69202  0.91023  1.0000
  C   C582      1.0  0.62207  0.69956  0.84013  1.0000
  H   H965      1.0  0.60739  0.63968  0.87078  1.0000
  H   H966      1.0  0.65109  0.85717  0.97218  1.0000
  C   C583      1.0  0.62120  0.62824  0.87544  1.0000
  H   H967      1.0  0.63784  0.70817  0.90757  1.0000
  C   C584      1.0  0.54191  0.92419  0.56091  1.0000
  C   C585      1.0  0.41226  0.67447  0.67995  1.0000
  H   H968      1.0  0.61022  0.74360  0.69753  1.0000
  H   H969      1.0  0.40607  0.70201  0.67761  1.0000
  H   H970      1.0  0.60125  0.66802  0.91636  1.0000
  H   H971      1.0  0.60368  0.70428  0.88989  1.0000
  H   H972      1.0  0.60826  0.71277  0.92860  1.0000
  H   H973      1.0  0.62005  0.72678  0.85104  1.0000
  H   H974      1.0  0.60919  0.68359  0.84031  1.0000
  H   H975      1.0  0.62453  0.70383  0.81611  1.0000
  H   H976      1.0  0.61758  0.72916  0.66175  1.0000
  C   C586      1.0  0.65843  0.92839  0.97026  1.0000
  H   H977      1.0  0.35360  0.62755  0.68297  1.0000
  H   H978      1.0  0.59693  0.70092  0.56899  1.0000
  H   H979      1.0  0.39041  0.84380  0.61282  1.0000
  H   H980      1.0  0.42320  0.01069  0.60473  1.0000
  H   H981      1.0  0.62651  0.61564  0.82779  1.0000
  C   C587      1.0  0.58600  0.71411  0.58235  1.0000
  H   H982      1.0  0.58014  0.67417  0.64308  1.0000
  H   H983      1.0  0.58765  0.79812  0.60884  1.0000
  H   H984      1.0  0.55610  0.67004  0.64373  1.0000
  H   H985      1.0  0.58001  0.73585  0.56839  1.0000
  H   H986      1.0  0.62279  0.88954  0.90690  1.0000
  C   C588      1.0  0.41373  0.97801  0.53437  1.0000
  C   C589      1.0  0.56461  0.81076  0.63628  1.0000
  S   S172      1.0  0.36498  0.60058  0.77458  1.0000
  C   C590      1.0  0.38180  0.64714  0.68116  1.0000
  C   C591      1.0  0.60519  0.73249  0.67548  1.0000
  H   H987      1.0  0.57544  0.69291  0.58613  1.0000
  H   H988      1.0  0.63735  0.58436  0.85353  1.0000
  H   H989      1.0  0.42487  0.93143  0.95515  1.0000
  N   N42       1.0  0.39004  0.89390  0.94840  1.0000
  C   C592      1.0  0.37639  0.86525  0.93703  1.0000
  C   C593      1.0  0.66416  0.76310  0.89588  1.0000
  H   H990      1.0  0.43671  0.63093  0.70911  1.0000
  C   C594      1.0  0.38235  0.93089  0.94100  1.0000
  H   H991      1.0  0.39757  0.86069  0.98587  1.0000
  H   H992      1.0  0.37303  0.87810  0.60614  1.0000
  H   H993      1.0  0.65874  0.62326  0.87050  1.0000
  H   H994      1.0  0.39349  0.95679  0.69467  1.0000
  H   H995      1.0  0.39466  0.90359  0.71351  1.0000
  H   H996      1.0  0.42692  0.67813  0.63848  1.0000
  C   C595      1.0  0.39267  0.96476  0.95411  1.0000
  H   H997      1.0  0.66583  0.67937  0.92212  1.0000
  Fe  Fe84      1.0  0.60144  0.88648  0.52373  1.0000
  H   H998      1.0  0.42321  0.88075  0.69946  1.0000
  H   H999      1.0  0.38189  0.93443  0.91640  1.0000
  H   H1000     1.0  0.36765  0.93329  0.94711  1.0000
  S   S173      1.0  0.61059  0.94883  0.99584  1.0000
  H   H1001     1.0  0.42517  0.67299  0.74619  1.0000
  S   S174      1.0  0.67028  0.60388  0.81189  1.0000
  H   H1002     1.0  0.60633  0.74745  0.60660  1.0000
  C   C596      1.0  0.36639  0.62663  0.69699  1.0000
  C   C597      1.0  0.62505  0.60143  0.84920  1.0000
  C   C598      1.0  0.65325  0.63896  0.88984  1.0000
  H   H1003     1.0  0.64529  0.96804  0.93966  1.0000
  H   H1004     1.0  0.58153  0.76708  0.67919  1.0000
  C   C599      1.0  0.37418  0.86059  0.90275  1.0000
  N   N43       1.0  0.39996  0.65079  0.69812  1.0000
  N   N44       1.0  0.38689  0.88809  0.66753  1.0000
  C   C600      1.0  0.37467  0.85899  0.65283  1.0000
  C   C601      1.0  0.38561  0.88402  0.70087  1.0000
  C   C602      1.0  0.40639  0.88150  0.65790  1.0000
  C   C603      1.0  0.38015  0.92467  0.65714  1.0000
  H   H1005     1.0  0.36239  0.87086  0.94545  1.0000
  H   H1006     1.0  0.62797  0.86993  0.94208  1.0000
  C   C604      1.0  0.38977  0.95897  0.67073  1.0000
  C   C605      1.0  0.54684  0.90773  0.53011  1.0000
  H   H1007     1.0  0.37723  0.83200  0.66306  1.0000
  H   H1008     1.0  0.38281  0.98769  0.95661  1.0000
  C   C606      1.0  0.39251  0.88883  0.98159  1.0000
  H   H1009     1.0  0.39069  0.85652  0.70739  1.0000
  H   H1010     1.0  0.40910  0.85179  0.65559  1.0000
  H   H1011     1.0  0.40852  0.89261  0.63537  1.0000
  H   H1012     1.0  0.38183  0.92679  0.63260  1.0000
  C   C607      1.0  0.36627  0.88855  0.71375  1.0000
  C   C608      1.0  0.50137  0.91002  0.52693  1.0000
  H   H1013     1.0  0.61324  0.58228  0.84613  1.0000
  C   C609      1.0  0.65137  0.89731  0.92117  1.0000
  C   C610      1.0  0.41647  0.97780  0.56537  1.0000
  C   C611      1.0  0.50179  0.79636  0.53508  1.0000
  H   H1014     1.0  0.55483  0.93090  0.57371  1.0000
  H   H1015     1.0  0.42575  0.67987  0.69123  1.0000
  H   H1016     1.0  0.48993  0.88994  0.52834  1.0000
  H   H1017     1.0  0.41614  0.71517  0.73155  1.0000
  C   C612      1.0  0.63079  0.89373  0.92817  1.0000
  H   H1018     1.0  0.36018  0.91542  0.70853  1.0000
  C   C613      1.0  0.60951  0.98534  0.54992  1.0000
  H   H1019     1.0  0.36947  0.88598  0.89205  1.0000
  H   H1020     1.0  0.37177  0.52750  0.75320  1.0000
  H   H1021     1.0  0.36455  0.87384  0.99541  1.0000
  Fe  Fe85      1.0  0.42036  0.82469  0.51424  1.0000
  C   C614      1.0  0.67398  0.52927  0.81577  1.0000
  H   H1022     1.0  0.36937  0.92274  0.99728  1.0000
  C   C615      1.0  0.60165  0.98369  0.52114  1.0000
  Fe  Fe86      1.0  0.62334  0.81524  0.00487  1.0000
  H   H1023     1.0  0.49523  0.93506  0.51747  1.0000
  S   S175      1.0  0.34457  0.76148  0.80437  1.0000
  H   H1024     1.0  0.48885  0.78783  0.52469  1.0000
  H   H1025     1.0  0.57330  0.00740  0.58479  1.0000
  H   H1026     1.0  0.67645  0.75131  0.88664  1.0000
  H   H1027     1.0  0.44151  0.00181  0.99089  1.0000
  Fe  Fe87      1.0  0.67146  0.74055  0.80937  1.0000
  H   H1028     1.0  0.67351  0.68331  0.88417  1.0000
  H   H1029     1.0  0.55677  0.97748  0.51679  1.0000
  H   H1030     1.0  0.66754  0.53270  0.83716  1.0000
  H   H1031     1.0  0.67202  0.75202  0.94161  1.0000
  H   H1032     1.0  0.54827  0.87792  0.53337  1.0000
  H   H1033     1.0  0.55223  0.00277  0.97529  1.0000
  H   H1034     1.0  0.66711  0.84086  0.94606  1.0000
  H   H1035     1.0  0.56111  0.91635  0.52545  1.0000
  C   C616      1.0  0.56543  0.00627  0.98791  1.0000
  H   H1036     1.0  0.64552  0.91989  0.98101  1.0000
  H   H1037     1.0  0.65034  0.98501  0.97652  1.0000
  C   C617      1.0  0.66469  0.86324  0.96268  1.0000
  H   H1038     1.0  0.67668  0.87852  0.00722  1.0000
  H   H1039     1.0  0.39644  0.51719  0.90568  1.0000
  Fe  Fe88      1.0  0.85430  0.22715  0.32823  1.0000
  S   S176      1.0  0.83399  0.18270  0.31392  1.0000
  S   S177      1.0  0.85978  0.23293  0.37860  1.0000
  Fe  Fe89      1.0  0.86240  0.24580  0.26336  1.0000
  S   S178      1.0  0.84308  0.20266  0.24480  1.0000
  S   S179      1.0  0.87845  0.28650  0.23600  1.0000
  Fe  Fe90      1.0  0.82369  0.22289  0.28006  1.0000
  S   S180      1.0  0.79379  0.22860  0.26432  1.0000
  Fe  Fe91      1.0  0.85480  0.16595  0.28007  1.0000
  S   S181      1.0  0.86568  0.10883  0.26844  1.0000
  S   S182      1.0  0.84232  0.26839  0.29679  1.0000
  S   S183      1.0  0.87578  0.20798  0.29625  1.0000
  Fe  Fe92      1.0  0.91207  0.40246  0.04815  1.0000
  S   S184      1.0  0.92188  0.37036  0.08745  1.0000
  S   S185      1.0  0.90022  0.45978  0.04931  1.0000
  H   H1040     1.0  0.72027  0.25677  0.32351  1.0000
  S   S186      1.0  0.92758  0.30126  0.03940  1.0000
  S   S187      1.0  0.90942  0.35073  0.45143  1.0000
  Fe  Fe93      1.0  0.90487  0.32414  0.06786  1.0000
  S   S188      1.0  0.88748  0.28496  0.09459  1.0000
  Fe  Fe94      1.0  0.94415  0.34954  0.05718  1.0000
  S   S189      1.0  0.97225  0.34554  0.08068  1.0000
  S   S190      1.0  0.89304  0.35789  0.03064  1.0000
  S   S191      1.0  0.94563  0.38367  0.51067  1.0000
  Fe  Fe95      1.0  0.70540  0.34873  0.29468  1.0000
  N   N45       1.0  0.81772  0.29495  0.18905  1.0000
  S   S192      1.0  0.73540  0.34542  0.31057  1.0000
  C   C618      1.0  0.93074  0.23898  0.10879  1.0000
  H   H1041     1.0  0.91954  0.23092  0.12361  1.0000
  S   S193      1.0  0.69543  0.36884  0.24994  1.0000
  S   S194      1.0  0.93551  0.38555  0.01945  1.0000
  H   H1042     1.0  0.69974  0.48281  0.29709  1.0000
  H   H1043     1.0  0.99052  0.26269  0.18581  1.0000
  C   C619      1.0  0.99564  0.33706  0.03269  1.0000
  H   H1044     1.0  0.91948  0.26493  0.16944  1.0000
  H   H1045     1.0  0.93937  0.46820  0.06305  1.0000
  S   S195      1.0  0.68703  0.38663  0.32102  1.0000
  C   C620      1.0  0.99398  0.34318  0.06347  1.0000
  H   H1046     1.0  0.87812  0.03696  0.25225  1.0000
  H   H1047     1.0  0.83800  0.22940  0.18469  1.0000
  S   S196      1.0  0.68552  0.30162  0.29540  1.0000
  N   N46       1.0  0.71727  0.29378  0.39666  1.0000
  C   C621      1.0  0.77776  0.26105  0.27788  1.0000
  C   C622      1.0  0.75950  0.25959  0.26681  1.0000
  C   C623      1.0  0.74641  0.28538  0.27636  1.0000
  C   C624      1.0  0.75149  0.31302  0.29707  1.0000
  C   C625      1.0  0.76980  0.31465  0.30796  1.0000
  C   C626      1.0  0.78287  0.28877  0.29851  1.0000
  H   H1048     1.0  0.75544  0.23836  0.25073  1.0000
  H   H1049     1.0  0.73240  0.28381  0.26773  1.0000
  H   H1050     1.0  0.77391  0.33607  0.32382  1.0000
  H   H1051     1.0  0.79689  0.29036  0.30707  1.0000
  C   C627      1.0  0.85711  0.06478  0.27707  1.0000
  H   H1052     1.0  0.88934  0.40229  0.48539  1.0000
  C   C628      1.0  0.84196  0.06002  0.29525  1.0000
  H   H1053     1.0  0.73347  0.24421  0.40230  1.0000
  H   H1054     1.0  0.83471  0.08367  0.30374  1.0000
  C   C629      1.0  0.88069  0.28546  0.19665  1.0000
  C   C630      1.0  0.87638  0.25432  0.17913  1.0000
  C   C631      1.0  0.87842  0.25470  0.14790  1.0000
  C   C632      1.0  0.88498  0.28601  0.13391  1.0000
  C   C633      1.0  0.88924  0.31717  0.15145  1.0000
  C   C634      1.0  0.88717  0.31680  0.18265  1.0000
  H   H1055     1.0  0.87168  0.22981  0.18967  1.0000
  H   H1056     1.0  0.87509  0.23044  0.13454  1.0000
  H   H1057     1.0  0.89406  0.34160  0.14095  1.0000
  H   H1058     1.0  0.89055  0.34103  0.19603  1.0000
  C   C635      1.0  0.87423  0.26528  0.39810  1.0000
  C   C636      1.0  0.87782  0.26102  0.42885  1.0000
  C   C637      1.0  0.88885  0.28647  0.44540  1.0000
  C   C638      1.0  0.89627  0.31672  0.43140  1.0000
  C   C639      1.0  0.89271  0.32092  0.40063  1.0000
  C   C640      1.0  0.88187  0.29523  0.38400  1.0000
  H   H1059     1.0  0.87193  0.23804  0.44002  1.0000
  H   H1060     1.0  0.89138  0.28295  0.46906  1.0000
  H   H1061     1.0  0.89837  0.34422  0.38958  1.0000
  H   H1062     1.0  0.87921  0.29892  0.36039  1.0000
  H   H1063     1.0  0.87501  0.41949  0.43377  1.0000
  C   C641      1.0  0.93651  0.34123  0.16450  1.0000
  H   H1064     1.0  0.68131  0.27894  0.01845  1.0000
  H   H1065     1.0  0.72282  0.22923  0.35555  1.0000
  C   C642      1.0  0.86636  0.03362  0.26629  1.0000
  H   H1066     1.0  0.82010  0.28167  0.23605  1.0000
  C   C643      1.0  0.75190  0.31046  0.39050  1.0000
  C   C644      1.0  0.90312  0.07963  0.32199  1.0000
  H   H1067     1.0  0.82936  0.23564  0.14710  1.0000
  C   C645      1.0  0.83634  0.02452  0.30279  1.0000
  H   H1068     1.0  0.98340  0.33421  0.01860  1.0000
  H   H1069     1.0  0.85455  0.47468  0.46746  1.0000
  H   H1070     1.0  0.70086  0.36619  0.39468  1.0000
  H   H1071     1.0  0.76209  0.32638  0.40442  1.0000
  C   C646      1.0  0.93367  0.49479  0.05832  1.0000
  H   H1072     1.0  0.75443  0.31624  0.36675  1.0000
  H   H1073     1.0  0.84343  0.29289  0.16509  1.0000
  H   H1074     1.0  0.94811  0.20480  0.17537  1.0000
  H   H1075     1.0  0.91748  0.18042  0.36530  1.0000
  H   H1076     1.0  0.90640  0.20262  0.39554  1.0000
  H   H1077     1.0  0.91002  0.06041  0.33736  1.0000
  N   N47       1.0  0.94666  0.27464  0.15271  1.0000
  C   C647      1.0  0.93854  0.30969  0.14127  1.0000
  C   C648      1.0  0.94873  0.24920  0.12599  1.0000
  C   C649      1.0  0.96544  0.28385  0.16591  1.0000
  C   C650      1.0  0.93412  0.25976  0.17597  1.0000
  H   H1078     1.0  0.00895  0.35127  0.10528  1.0000
  H   H1079     1.0  0.91860  0.47159  0.44730  1.0000
  C   C651      1.0  0.97686  0.25193  0.17807  1.0000
  H   H1080     1.0  0.94686  0.32036  0.12283  1.0000
  H   H1081     1.0  0.92458  0.30484  0.13135  1.0000
  H   H1082     1.0  0.95538  0.22318  0.13192  1.0000
  H   H1083     1.0  0.95815  0.26152  0.10963  1.0000
  H   H1084     1.0  0.97392  0.29775  0.14904  1.0000
  H   H1085     1.0  0.96439  0.30347  0.18512  1.0000
  H   H1086     1.0  0.92815  0.36325  0.15437  1.0000
  H   H1087     1.0  0.86761  0.37781  0.44926  1.0000
  H   H1088     1.0  0.73924  0.28395  0.44959  1.0000
  H   H1089     1.0  0.90608  0.42963  0.44450  1.0000
  H   H1090     1.0  0.91501  0.15749  0.40063  1.0000
  H   H1091     1.0  0.68082  0.50833  0.20881  1.0000
  C   C652      1.0  0.69167  0.50705  0.29301  1.0000
  H   H1092     1.0  0.97048  0.24005  0.19788  1.0000
  H   H1093     1.0  0.86720  0.40576  0.50014  1.0000
  C   C653      1.0  0.80143  0.32012  0.19067  1.0000
  C   C654      1.0  0.83030  0.30839  0.16539  1.0000
  C   C655      1.0  0.78799  0.31256  0.21592  1.0000
  C   C656      1.0  0.82200  0.30910  0.13330  1.0000
  H   H1094     1.0  0.91672  0.44394  0.47946  1.0000
  H   H1095     1.0  0.80590  0.34919  0.19290  1.0000
  H   H1096     1.0  0.79317  0.31855  0.16941  1.0000
  H   H1097     1.0  0.83486  0.33690  0.17063  1.0000
  H   H1098     1.0  0.84546  0.34450  0.21675  1.0000
  H   H1099     1.0  0.78224  0.28447  0.21417  1.0000
  H   H1100     1.0  0.77619  0.33166  0.21431  1.0000
  H   H1101     1.0  0.79447  0.31717  0.23837  1.0000
  H   H1102     1.0  0.81634  0.33654  0.12847  1.0000
  H   H1103     1.0  0.81099  0.28861  0.12898  1.0000
  H   H1104     1.0  0.83292  0.30258  0.11708  1.0000
  N   N48       1.0  0.88835  0.12180  0.36210  1.0000
  C   C657      1.0  0.88926  0.16108  0.37324  1.0000
  C   C658      1.0  0.86897  0.11503  0.35040  1.0000
  C   C659      1.0  0.90139  0.11794  0.33654  1.0000
  C   C660      1.0  0.89378  0.09731  0.38747  1.0000
  C   C661      1.0  0.72454  0.25744  0.34752  1.0000
  C   C662      1.0  0.85364  0.12107  0.37317  1.0000
  H   H1105     1.0  0.89760  0.03915  0.39489  1.0000
  C   C663      1.0  0.88681  0.05723  0.38543  1.0000
  H   H1106     1.0  0.88430  0.17971  0.35554  1.0000
  H   H1107     1.0  0.88002  0.16560  0.39242  1.0000
  H   H1108     1.0  0.86708  0.08714  0.34082  1.0000
  H   H1109     1.0  0.86584  0.13315  0.33132  1.0000
  H   H1110     1.0  0.89744  0.13707  0.31844  1.0000
  H   H1111     1.0  0.91563  0.12551  0.34378  1.0000
  H   H1112     1.0  0.90903  0.09665  0.39035  1.0000
  H   H1113     1.0  0.88853  0.10881  0.40890  1.0000
  C   C664      1.0  0.90918  0.45356  0.45944  1.0000
  H   H1114     1.0  0.93397  0.21419  0.20637  1.0000
  H   H1115     1.0  0.92929  0.33267  0.18469  1.0000
  H   H1116     1.0  0.85665  0.10788  0.39472  1.0000
  H   H1117     1.0  0.85110  0.15065  0.37723  1.0000
  H   H1118     1.0  0.84058  0.10926  0.36378  1.0000
  H   H1119     1.0  0.73319  0.33541  0.42158  1.0000
  C   C665      1.0  0.93527  0.21834  0.18201  1.0000
  H   H1120     1.0  0.69808  0.27287  0.36256  1.0000
  H   H1121     1.0  0.73921  0.26525  0.34840  1.0000
  H   H1122     1.0  0.88354  0.04636  0.36269  1.0000
  H   H1123     1.0  0.87470  0.05359  0.39969  1.0000
  H   H1124     1.0  0.67921  0.40325  0.03043  1.0000
  H   H1125     1.0  0.84198  0.32812  0.25302  1.0000
  H   H1126     1.0  0.93636  0.27465  0.19774  1.0000
  C   C666      1.0  0.86138  0.47732  0.48991  1.0000
  C   C667      1.0  0.89153  0.47478  0.46703  1.0000
  C   C668      1.0  0.72209  0.25931  0.41286  1.0000
  H   H1127     1.0  0.93329  0.21566  0.09314  1.0000
  C   C669      1.0  0.91495  0.49816  0.05125  1.0000
  N   N49       1.0  0.87958  0.45791  0.49009  1.0000
  H   H1128     1.0  0.92333  0.20366  0.17133  1.0000
  H   H1129     1.0  0.92596  0.26187  0.09493  1.0000
  Fe  Fe96      1.0  0.92066  0.34854  0.49950  1.0000
  C   C670      1.0  0.83501  0.33211  0.23102  1.0000
  H   H1130     1.0  0.79925  0.25623  0.16556  1.0000
  H   H1131     1.0  0.71172  0.31001  0.35110  1.0000
  H   H1132     1.0  0.82359  0.35140  0.23497  1.0000
  C   C671      1.0  0.71219  0.28474  0.36440  1.0000
  C   C672      1.0  0.82828  0.29461  0.21844  1.0000
  C   C673      1.0  0.90828  0.17555  0.38419  1.0000
  H   H1133     1.0  0.82474  0.02123  0.31714  1.0000
  H   H1134     1.0  0.88980  0.06828  0.31370  1.0000
  C   C674      1.0  0.87630  0.41782  0.48338  1.0000
  H   H1135     1.0  0.84069  0.27724  0.21651  1.0000
  C   C675      1.0  0.86742  0.40803  0.45253  1.0000
  C   C676      1.0  0.81096  0.25654  0.18204  1.0000
  H   H1136     1.0  0.81965  0.20142  0.16985  1.0000
  H   H1137     1.0  0.68170  0.28793  0.07397  1.0000
  H   H1138     1.0  0.72893  0.34552  0.38410  1.0000
  H   H1139     1.0  0.95001  0.35376  0.17080  1.0000
  C   C677      1.0  0.82547  0.22955  0.17025  1.0000
  C   C678      1.0  0.73231  0.32230  0.39888  1.0000
  H   H1140     1.0  0.75514  0.28159  0.39461  1.0000
  H   H1141     1.0  0.80516  0.24410  0.20226  1.0000
  H   H1142     1.0  0.97962  0.23056  0.16086  1.0000
  H   H1143     1.0  0.88371  0.47866  0.44566  1.0000
  H   H1144     1.0  0.91190  0.08155  0.30213  1.0000
  H   H1145     1.0  0.68605  0.34186  0.02732  1.0000
  H   H1146     1.0  0.85281  0.41642  0.45113  1.0000
  H   H1147     1.0  0.85140  0.46418  0.50482  1.0000
  H   H1148     1.0  0.73223  0.23781  0.45495  1.0000
  C   C679      1.0  0.72762  0.26449  0.44616  1.0000
  H   H1149     1.0  0.71026  0.23978  0.41142  1.0000
  C   C680      1.0  0.69145  0.34239  0.39564  1.0000
  H   H1150     1.0  0.70370  0.31927  0.43458  1.0000
  C   C681      1.0  0.70046  0.30963  0.41129  1.0000
  H   H1151     1.0  0.89592  0.50286  0.47442  1.0000
  H   H1152     1.0  0.68957  0.28837  0.41319  1.0000
  H   H1153     1.0  0.67932  0.35137  0.40849  1.0000
  H   H1154     1.0  0.68620  0.33489  0.37290  1.0000
  H   H1155     1.0  0.71583  0.27323  0.45981  1.0000
  H   H1156     1.0  0.67761  0.24164  0.06240  1.0000
  Fe  Fe97      1.0  0.86447  0.21620  0.82063  1.0000
  S   S197      1.0  0.83632  0.19601  0.80621  1.0000
  S   S198      1.0  0.86907  0.21499  0.87134  1.0000
  Fe  Fe98      1.0  0.87555  0.22594  0.75526  1.0000
  S   S199      1.0  0.84821  0.20565  0.73675  1.0000
  S   S200      1.0  0.89936  0.24988  0.72955  1.0000
  Fe  Fe99      1.0  0.83605  0.24077  0.77320  1.0000
  S   S201      1.0  0.81322  0.28182  0.76447  1.0000
  Fe  Fe100     1.0  0.85077  0.16192  0.77152  1.0000
  S   S202      1.0  0.83905  0.10387  0.76660  1.0000
  S   S203      1.0  0.86324  0.26362  0.78984  1.0000
  S   S204      1.0  0.87903  0.17967  0.78767  1.0000
  Fe  Fe101     1.0  0.93112  0.39919  0.55277  1.0000
  S   S205      1.0  0.94348  0.35354  0.57970  1.0000
  S   S206      1.0  0.92969  0.45587  0.57464  1.0000
  C   C682      1.0  0.91931  0.47856  0.97580  1.0000
  H   H1157     1.0  0.73143  0.49387  0.79805  1.0000
  H   H1158     1.0  0.83669  0.33126  0.81432  1.0000
  Fe  Fe102     1.0  0.91870  0.32100  0.56393  1.0000
  S   S207      1.0  0.90180  0.28059  0.59008  1.0000
  Fe  Fe103     1.0  0.95620  0.33574  0.53642  1.0000
  H   H1159     1.0  0.90676  0.48927  0.98659  1.0000
  S   S208      1.0  0.90532  0.36772  0.54002  1.0000
  C   C683      1.0  0.87866  0.08326  0.89007  1.0000
  Fe  Fe104     1.0  0.70990  0.31964  0.80422  1.0000
  H   H1160     1.0  0.80269  0.33160  0.83131  1.0000
  S   S209      1.0  0.73453  0.28861  0.82302  1.0000
  S   S210      1.0  0.91406  0.33185  0.95281  1.0000
  S   S211      1.0  0.69565  0.36625  0.82795  1.0000
  H   H1161     1.0  0.85710  0.32195  0.92925  1.0000
  H   H1162     1.0  0.87376  0.03434  0.84468  1.0000
  H   H1163     1.0  0.71130  0.21903  0.78025  1.0000
  C   C684      1.0  0.93087  0.44695  0.92954  1.0000
  H   H1164     1.0  0.85677  0.32093  0.83614  1.0000
  H   H1165     1.0  0.83704  0.12222  0.83024  1.0000
  H   H1166     1.0  0.97805  0.33025  0.63189  1.0000
  C   C685      1.0  0.94488  0.42333  0.94673  1.0000
  H   H1167     1.0  0.94445  0.24303  0.67534  1.0000
  H   H1168     1.0  0.87474  0.44257  0.95123  1.0000
  S   S212      1.0  0.69659  0.44617  0.76617  1.0000
  H   H1169     1.0  0.84009  0.35107  0.85088  1.0000
  S   S213      1.0  0.68421  0.28569  0.79863  1.0000
  C   C686      1.0  0.79133  0.28269  0.78066  1.0000
  C   C687      1.0  0.78563  0.25560  0.79989  1.0000
  C   C688      1.0  0.76819  0.25782  0.81276  1.0000
  C   C689      1.0  0.75622  0.28677  0.80614  1.0000
  C   C690      1.0  0.76187  0.31366  0.78670  1.0000
  C   C691      1.0  0.77939  0.31168  0.77412  1.0000
  H   H1170     1.0  0.79466  0.23301  0.80485  1.0000
  H   H1171     1.0  0.76387  0.23688  0.82776  1.0000
  H   H1172     1.0  0.75285  0.33625  0.78168  1.0000
  H   H1173     1.0  0.78374  0.33276  0.75927  1.0000
  C   C692      1.0  0.84992  0.06053  0.76873  1.0000
  C   C693      1.0  0.86903  0.05655  0.76808  1.0000
  H   H1174     1.0  0.82144  0.12496  0.86022  1.0000
  H   H1175     1.0  0.87764  0.08037  0.76553  1.0000
  H   H1176     1.0  0.87199  0.06801  0.90808  1.0000
  C   C694      1.0  0.89834  0.26117  0.69115  1.0000
  C   C695      1.0  0.88673  0.24245  0.67060  1.0000
  C   C696      1.0  0.88763  0.24954  0.63985  1.0000
  C   C697      1.0  0.89981  0.27594  0.62931  1.0000
  C   C698      1.0  0.91095  0.29565  0.64997  1.0000
  C   C699      1.0  0.91041  0.28785  0.68065  1.0000
  H   H1177     1.0  0.87746  0.22172  0.67828  1.0000
  H   H1178     1.0  0.87898  0.23409  0.62409  1.0000
  H   H1179     1.0  0.92015  0.31645  0.64227  1.0000
  H   H1180     1.0  0.91939  0.30257  0.69639  1.0000
  C   C700      1.0  0.88140  0.24811  0.89362  1.0000
  C   C701      1.0  0.88177  0.24507  0.92490  1.0000
  C   C702      1.0  0.89148  0.27065  0.94343  1.0000
  C   C703      1.0  0.90105  0.29944  0.93080  1.0000
  C   C704      1.0  0.90046  0.30270  0.89954  1.0000
  C   C705      1.0  0.89066  0.27728  0.88102  1.0000
  H   H1181     1.0  0.87464  0.22264  0.93489  1.0000
  H   H1182     1.0  0.89181  0.26776  0.96743  1.0000
  H   H1183     1.0  0.90785  0.32477  0.88950  1.0000
  H   H1184     1.0  0.89052  0.27996  0.85701  1.0000
  H   H1185     1.0  0.96018  0.20533  0.66862  1.0000
  H   H1186     1.0  0.75749  0.30596  0.70354  1.0000
  H   H1187     1.0  0.99085  0.20558  0.57335  1.0000
  S   S214      1.0  0.70666  0.34354  0.75880  1.0000
  H   H1188     1.0  0.85872  0.32643  0.89022  1.0000
  H   H1189     1.0  0.69947  0.20661  0.71250  1.0000
  H   H1190     1.0  0.80714  0.20344  0.88018  1.0000
  C   C706      1.0  0.99194  0.22630  0.59185  1.0000
  C   C707      1.0  0.88457  0.43022  0.96734  1.0000
  H   H1191     1.0  0.71755  0.27862  0.69461  1.0000
  H   H1192     1.0  0.93917  0.39609  0.95166  1.0000
  H   H1193     1.0  0.79950  0.26661  0.89902  1.0000
  H   H1194     1.0  0.95832  0.19375  0.56492  1.0000
  C   C708      1.0  0.70785  0.20537  0.69215  1.0000
  H   H1195     1.0  0.87888  0.40304  0.97284  1.0000
  H   H1196     1.0  0.83735  0.03519  0.87884  1.0000
  H   H1197     1.0  0.78969  0.36079  0.85522  1.0000
  H   H1198     1.0  0.73960  0.31627  0.72959  1.0000
  C   C709      1.0  0.90377  0.42465  0.95404  1.0000
  C   C710      1.0  0.68806  0.48923  0.77865  1.0000
  S   S215      1.0  0.93221  0.29963  0.52223  1.0000
  H   H1199     1.0  0.80230  0.32964  0.90058  1.0000
  H   H1200     1.0  0.84281  0.26978  0.85095  1.0000
  H   H1201     1.0  0.84208  0.35310  0.91123  1.0000
  C   C711      1.0  0.81786  0.22497  0.88340  1.0000
  H   H1202     1.0  0.85209  0.13519  0.88086  1.0000
  C   C712      1.0  0.88926  0.46174  0.52021  1.0000
  H   H1203     1.0  0.87419  0.13831  0.84470  1.0000
  H   H1204     1.0  0.93435  0.20596  0.56904  1.0000
  H   H1205     1.0  0.89516  0.06841  0.82496  1.0000
  Fe  Fe105     1.0  0.91691  0.33881  0.00371  1.0000
  H   H1206     1.0  0.91160  0.40821  0.97049  1.0000
  N   N50       1.0  0.96005  0.24289  0.61380  1.0000
  C   C713      1.0  0.94452  0.22306  0.62846  1.0000
  C   C714      1.0  0.95366  0.25014  0.58221  1.0000
  C   C715      1.0  0.96303  0.27889  0.63038  1.0000
  C   C716      1.0  0.97710  0.21953  0.61539  1.0000
  C   C717      1.0  0.94669  0.21725  0.66239  1.0000
  C   C718      1.0  0.94816  0.21606  0.56306  1.0000
  C   C719      1.0  0.97845  0.30372  0.61934  1.0000
  C   C720      1.0  0.83276  0.10849  0.85068  1.0000
  H   H1207     1.0  0.93129  0.23755  0.62476  1.0000
  H   H1208     1.0  0.94235  0.19539  0.61811  1.0000
  H   H1209     1.0  0.96399  0.26519  0.56962  1.0000
  H   H1210     1.0  0.94151  0.26855  0.58234  1.0000
  H   H1211     1.0  0.95009  0.29506  0.63007  1.0000
  H   H1212     1.0  0.96662  0.27466  0.65430  1.0000
  H   H1213     1.0  0.98385  0.22236  0.63793  1.0000
  H   H1214     1.0  0.97326  0.19012  0.61262  1.0000
  H   H1215     1.0  0.89175  0.01877  0.76932  1.0000
  H   H1216     1.0  0.67738  0.47077  0.82004  1.0000
  C   C721      1.0  0.00591  0.32616  0.54356  1.0000
  H   H1217     1.0  0.88513  0.44663  0.98843  1.0000
  H   H1218     1.0  0.84322  0.09390  0.89433  1.0000
  H   H1219     1.0  0.00576  0.22235  0.60236  1.0000
  C   C722      1.0  0.87698  0.02157  0.77019  1.0000
  Fe  Fe106     1.0  0.67989  0.31272  0.75440  1.0000
  H   H1220     1.0  0.89077  0.06606  0.88456  1.0000
  H   H1221     1.0  0.92648  0.43113  0.90897  1.0000
  N   N51       1.0  0.91426  0.45889  0.94674  1.0000
  H   H1222     1.0  0.92499  0.45940  0.99261  1.0000
  N   N52       1.0  0.73557  0.23969  0.71675  1.0000
  C   C723      1.0  0.73246  0.27187  0.69665  1.0000
  C   C724      1.0  0.72862  0.20603  0.69990  1.0000
  C   C725      1.0  0.75601  0.23670  0.72313  1.0000
  C   C726      1.0  0.72524  0.24710  0.74505  1.0000
  C   C727      1.0  0.74240  0.30784  0.70630  1.0000
  C   C728      1.0  0.76342  0.19976  0.73397  1.0000
  C   C729      1.0  0.72422  0.21615  0.76769  1.0000
  H   H1223     1.0  0.73688  0.26525  0.67348  1.0000
  N   N53       1.0  0.82186  0.29505  0.87786  1.0000
  H   H1224     1.0  0.73150  0.18070  0.71217  1.0000
  H   H1225     1.0  0.73610  0.20242  0.67859  1.0000
  H   H1226     1.0  0.76385  0.24243  0.70265  1.0000
  H   H1227     1.0  0.76055  0.25772  0.74006  1.0000
  H   H1228     1.0  0.73135  0.27084  0.75760  1.0000
  H   H1229     1.0  0.71094  0.25633  0.74020  1.0000
  H   H1230     1.0  0.97682  0.31021  0.59544  1.0000
  H   H1231     1.0  0.73742  0.33014  0.69181  1.0000
  C   C730      1.0  0.87759  0.45368  0.54759  1.0000
  H   H1232     1.0  0.77820  0.20324  0.74047  1.0000
  H   H1233     1.0  0.76281  0.17856  0.71582  1.0000
  H   H1234     1.0  0.75646  0.18983  0.75383  1.0000
  H   H1235     1.0  0.73590  0.21795  0.78410  1.0000
  H   H1236     1.0  0.72353  0.18844  0.75749  1.0000
  H   H1237     1.0  0.87581  0.12886  0.92264  1.0000
  H   H1238     1.0  0.85911  0.01602  0.89148  1.0000
  H   H1239     1.0  0.94719  0.22362  0.53919  1.0000
  H   H1240     1.0  0.89817  0.11337  0.81154  1.0000
  H   H1241     1.0  0.93582  0.19805  0.66938  1.0000
  C   C731      1.0  0.83893  0.02914  0.77168  1.0000
  H   H1242     1.0  0.82396  0.22172  0.90614  1.0000
  C   C732      1.0  0.89400  0.09775  0.83123  1.0000
  H   H1243     1.0  0.84358  0.26934  0.90374  1.0000
  C   C733      1.0  0.83493  0.29432  0.90454  1.0000
  C   C734      1.0  0.79615  0.33341  0.85339  1.0000
  H   H1244     1.0  0.82709  0.29301  0.92557  1.0000
  C   C735      1.0  0.81015  0.32896  0.87950  1.0000
  C   C736      1.0  0.84875  0.32616  0.90848  1.0000
  C   C737      1.0  0.83210  0.29123  0.84904  1.0000
  H   H1245     1.0  0.79979  0.26042  0.85963  1.0000
  H   H1246     1.0  0.85283  0.05086  0.82993  1.0000
  C   C738      1.0  0.80890  0.26282  0.87989  1.0000
  H   H1247     1.0  0.82277  0.28091  0.83058  1.0000
  H   H1248     1.0  0.81839  0.35435  0.88094  1.0000
  H   H1249     1.0  0.78479  0.31317  0.85412  1.0000
  H   H1250     1.0  0.88664  0.45539  0.56797  1.0000
  H   H1251     1.0  0.89513  0.48955  0.52390  1.0000
  Fe  Fe107     1.0  0.69045  0.38831  0.78186  1.0000
  H   H1252     1.0  0.82844  0.21957  0.86660  1.0000
  C   C739      1.0  0.84174  0.32578  0.83743  1.0000
  H   H1253     1.0  0.99529  0.36810  0.57278  1.0000
  H   H1254     1.0  0.70432  0.17927  0.68015  1.0000
  C   C740      1.0  0.84868  0.10643  0.87394  1.0000
  H   H1255     1.0  0.89927  0.11562  0.91541  1.0000
  H   H1256     1.0  0.82698  0.08121  0.84448  1.0000
  H   H1257     1.0  0.93874  0.47036  0.92119  1.0000
  N   N54       1.0  0.86565  0.08683  0.86363  1.0000
  H   H1258     1.0  0.86579  0.10601  0.81825  1.0000
  H   H1259     1.0  0.87162  0.42579  0.54660  1.0000
  H   H1260     1.0  0.97863  0.50456  0.52205  1.0000
  H   H1261     1.0  0.82413  0.03186  0.77215  1.0000
  C   C741      1.0  0.90181  0.48201  0.92749  1.0000
  C   C742      1.0  0.86108  0.04917  0.85105  1.0000
  H   H1262     1.0  0.99212  0.25384  0.58232  1.0000
  H   H1263     1.0  0.70374  0.22766  0.67706  1.0000
  H   H1264     1.0  0.86661  0.47424  0.55072  1.0000
  H   H1265     1.0  0.95697  0.41830  0.93254  1.0000
  H   H1266     1.0  0.90396  0.10489  0.84960  1.0000
  H   H1267     1.0  0.99223  0.29192  0.62389  1.0000
  C   C743      1.0  0.93270  0.49849  0.52475  1.0000
  C   C744      1.0  0.88539  0.11955  0.90511  1.0000
  H   H1268     1.0  0.95005  0.43707  0.96764  1.0000
  H   H1269     1.0  0.90138  0.44342  0.52149  1.0000
  H   H1270     1.0  0.88702  0.14203  0.88931  1.0000
  C   C745      1.0  0.87419  0.10849  0.83927  1.0000
  H   H1271     1.0  0.90183  0.40654  0.93380  1.0000
  H   H1272     1.0  0.89386  0.46436  0.91107  1.0000
  C   C746      1.0  0.00752  0.35485  0.56469  1.0000
  C   C747      1.0  0.92889  0.49725  0.55513  1.0000
  S   S216      1.0  0.98425  0.30943  0.53023  1.0000
  H   H1273     1.0  0.89140  0.49622  0.94138  1.0000
  C   C748      1.0  0.67952  0.49408  0.80612  1.0000
  H   H1274     1.0  0.91889  0.49913  0.89023  1.0000
  H   H1275     1.0  0.68093  0.33974  0.97690  1.0000
  C   C749      1.0  0.85063  0.02362  0.87171  1.0000
  C   C750      1.0  0.93262  0.51142  0.97464  1.0000
  C   C751      1.0  0.91094  0.51150  0.90871  1.0000
  H   H1276     1.0  0.94240  0.51010  0.95623  1.0000
  H   H1277     1.0  0.93696  0.47393  0.51302  1.0000
  H   H1278     1.0  0.67687  0.29106  0.97026  1.0000
  Fe  Fe108     1.0  0.84769  0.89169  0.29013  1.0000
  S   S217      1.0  0.87415  0.86335  0.30305  1.0000
  S   S218      1.0  0.83800  0.94940  0.30272  1.0000
  Fe  Fe109     1.0  0.82955  0.82025  0.26730  1.0000
  S   S219      1.0  0.85463  0.78708  0.27783  1.0000
  S   S220      1.0  0.80479  0.78958  0.24735  1.0000
  Fe  Fe110     1.0  0.85641  0.81902  0.32125  1.0000
  S   S221      1.0  0.85825  0.78424  0.36280  1.0000
  Fe  Fe111     1.0  0.87052  0.83290  0.25852  1.0000
  S   S222      1.0  0.89583  0.82027  0.23101  1.0000
  S   S223      1.0  0.83018  0.84916  0.31172  1.0000
  S   S224      1.0  0.84527  0.86437  0.24443  1.0000
  Fe  Fe112     1.0  0.95690  0.73388  0.05386  1.0000
  H   H1279     1.0  0.98467  0.63999  0.07134  1.0000
  H   H1280     1.0  0.91364  0.59023  0.04016  1.0000
  Fe  Fe113     1.0  0.91806  0.71871  0.07480  1.0000
  S   S225      1.0  0.91294  0.67560  0.03825  1.0000
  S   S226      1.0  0.89502  0.72723  0.10804  1.0000
  Fe  Fe114     1.0  0.94141  0.65634  0.04980  1.0000
  S   S227      1.0  0.95255  0.59894  0.05505  1.0000
  H   H1281     1.0  0.68702  0.62905  0.39647  1.0000
  S   S228      1.0  0.69853  0.61686  0.30556  1.0000
  S   S229      1.0  0.94570  0.69645  0.08809  1.0000
  S   S230      1.0  0.92946  0.75987  0.04327  1.0000
  Fe  Fe115     1.0  0.70216  0.75325  0.29076  1.0000
  H   H1282     1.0  0.95934  0.81395  0.02953  1.0000
  S   S231      1.0  0.72568  0.79185  0.30455  1.0000
  Fe  Fe116     1.0  0.68867  0.67352  0.29240  1.0000
  S   S232      1.0  0.70199  0.70673  0.25709  1.0000
  S   S233      1.0  0.69119  0.71875  0.32721  1.0000
  H   H1283     1.0  0.86793  0.66680  0.10501  1.0000
  C   C752      1.0  0.69864  0.54184  0.30163  1.0000
  H   H1284     1.0  0.71210  0.54405  0.31238  1.0000
  H   H1285     1.0  0.99724  0.67423  0.05370  1.0000
  H   H1286     1.0  0.86387  0.59506  0.13411  1.0000
  C   C753      1.0  0.75089  0.94458  0.26663  1.0000
  C   C754      1.0  0.86216  0.51887  0.49701  1.0000
  S   S234      1.0  0.92338  0.77811  0.46076  1.0000
  C   C755      1.0  0.78260  0.79210  0.26243  1.0000
  C   C756      1.0  0.77869  0.81595  0.28629  1.0000
  C   C757      1.0  0.76106  0.81609  0.29853  1.0000
  C   C758      1.0  0.74724  0.79219  0.28724  1.0000
  C   C759      1.0  0.75110  0.76862  0.26320  1.0000
  C   C760      1.0  0.76869  0.76873  0.25078  1.0000
  H   H1287     1.0  0.78933  0.83382  0.29556  1.0000
  H   H1288     1.0  0.75815  0.83437  0.31715  1.0000
  H   H1289     1.0  0.74056  0.75023  0.25424  1.0000
  H   H1290     1.0  0.77160  0.75028  0.23226  1.0000
  C   C761      1.0  0.87622  0.78369  0.39035  1.0000
  C   C762      1.0  0.89006  0.81034  0.39195  1.0000
  C   C763      1.0  0.90426  0.80841  0.41386  1.0000
  C   C764      1.0  0.90471  0.78008  0.43455  1.0000
  C   C765      1.0  0.89073  0.75370  0.43318  1.0000
  C   C766      1.0  0.87658  0.75554  0.41118  1.0000
  H   H1291     1.0  0.88974  0.83261  0.37654  1.0000
  H   H1292     1.0  0.91492  0.82910  0.41496  1.0000
  H   H1293     1.0  0.89092  0.73178  0.44896  1.0000
  H   H1294     1.0  0.86588  0.73491  0.41029  1.0000
  C   C767      1.0  0.89568  0.75324  0.14217  1.0000
  C   C768      1.0  0.87948  0.75679  0.15853  1.0000
  C   C769      1.0  0.87929  0.77721  0.18566  1.0000
  C   C770      1.0  0.89537  0.79422  0.19688  1.0000
  C   C771      1.0  0.91164  0.79017  0.18079  1.0000
  C   C772      1.0  0.91181  0.76990  0.15355  1.0000
  H   H1295     1.0  0.86692  0.74408  0.14995  1.0000
  H   H1296     1.0  0.86666  0.78004  0.19774  1.0000
  H   H1297     1.0  0.92416  0.80321  0.18922  1.0000
  H   H1298     1.0  0.92439  0.76744  0.14127  1.0000
  C   C773      1.0  0.98909  0.63523  0.50304  1.0000
  C   C774      1.0  0.93784  0.56054  0.05325  1.0000
  C   C775      1.0  0.91918  0.56382  0.04570  1.0000
  H   H1299     1.0  0.69819  0.58161  0.15182  1.0000
  C   C776      1.0  0.86067  0.99812  0.27367  1.0000
  H   H1300     1.0  0.95951  0.52321  0.06523  1.0000
  C   C777      1.0  0.84567  0.99337  0.29212  1.0000
  C   C778      1.0  0.87757  0.58188  0.13321  1.0000
  H   H1301     1.0  0.86798  0.97450  0.26526  1.0000
  C   C779      1.0  0.78097  0.90496  0.23458  1.0000
  H   H1302     1.0  0.87077  0.62765  0.18170  1.0000
  H   H1303     1.0  0.73683  0.62488  0.23109  1.0000
  C   C780      1.0  0.88975  0.62643  0.09703  1.0000
  H   H1304     1.0  0.92784  0.62593  0.10148  1.0000
  H   H1305     1.0  0.90283  0.62937  0.17053  1.0000
  H   H1306     1.0  0.92958  0.63409  0.14147  1.0000
  H   H1307     1.0  0.85951  0.62278  0.09051  1.0000
  H   H1308     1.0  0.98865  0.69166  0.10458  1.0000
  H   H1309     1.0  0.87994  0.57007  0.15569  1.0000
  H   H1310     1.0  0.87837  0.67415  0.18158  1.0000
  H   H1311     1.0  0.80233  0.90458  0.28735  1.0000
  H   H1312     1.0  0.89241  0.60619  0.07878  1.0000
  H   H1313     1.0  0.86447  0.65675  0.15123  1.0000
  C   C781      1.0  0.00448  0.73197  0.02077  1.0000
  N   N55       1.0  0.92260  0.77774  0.31477  1.0000
  C   C782      1.0  0.92872  0.81477  0.30433  1.0000
  C   C783      1.0  0.93182  0.74944  0.29527  1.0000
  C   C784      1.0  0.92940  0.77401  0.34668  1.0000
  C   C785      1.0  0.90187  0.77574  0.31246  1.0000
  C   C786      1.0  0.92360  0.84802  0.32425  1.0000
  C   C787      1.0  0.92710  0.75126  0.26151  1.0000
  C   C788      1.0  0.92446  0.73848  0.36238  1.0000
  C   C789      1.0  0.89298  0.73717  0.31053  1.0000
  H   H1314     1.0  0.94394  0.81569  0.30193  1.0000
  H   H1315     1.0  0.92282  0.82029  0.28171  1.0000
  H   H1316     1.0  0.92879  0.72125  0.30205  1.0000
  H   H1317     1.0  0.94706  0.75184  0.29788  1.0000
  H   H1318     1.0  0.94464  0.77725  0.34818  1.0000
  H   H1319     1.0  0.92378  0.79600  0.36126  1.0000
  H   H1320     1.0  0.89568  0.79082  0.33152  1.0000
  H   H1321     1.0  0.89684  0.78997  0.29215  1.0000
  H   H1322     1.0  0.92506  0.87340  0.31137  1.0000
  H   H1323     1.0  0.90925  0.84674  0.33174  1.0000
  H   H1324     1.0  0.93304  0.85074  0.34406  1.0000
  H   H1325     1.0  0.91209  0.75153  0.25675  1.0000
  H   H1326     1.0  0.93344  0.77550  0.25137  1.0000
  H   H1327     1.0  0.93275  0.72684  0.24983  1.0000
  H   H1328     1.0  0.93103  0.73915  0.38508  1.0000
  H   H1329     1.0  0.92958  0.71370  0.35070  1.0000
  H   H1330     1.0  0.90945  0.73652  0.36598  1.0000
  H   H1331     1.0  0.88046  0.73718  0.32421  1.0000
  H   H1332     1.0  0.90160  0.71463  0.31869  1.0000
  H   H1333     1.0  0.88806  0.73065  0.28732  1.0000
  N   N56       1.0  0.79538  0.73898  0.34837  1.0000
  C   C790      1.0  0.77917  0.72527  0.32945  1.0000
  C   C791      1.0  0.81040  0.74928  0.32744  1.0000
  C   C792      1.0  0.78930  0.77220  0.36628  1.0000
  C   C793      1.0  0.80124  0.70861  0.36866  1.0000
  C   C794      1.0  0.76103  0.71914  0.34591  1.0000
  C   C795      1.0  0.81674  0.71890  0.30561  1.0000
  C   C796      1.0  0.80403  0.80136  0.37489  1.0000
  C   C797      1.0  0.81880  0.71526  0.38795  1.0000
  H   H1334     1.0  0.77604  0.74455  0.31126  1.0000
  H   H1335     1.0  0.78233  0.69875  0.31807  1.0000
  H   H1336     1.0  0.82290  0.75927  0.33972  1.0000
  H   H1337     1.0  0.80593  0.77268  0.31367  1.0000
  H   H1338     1.0  0.77860  0.78763  0.35358  1.0000
  H   H1339     1.0  0.78261  0.76393  0.38720  1.0000
  H   H1340     1.0  0.79022  0.70232  0.38454  1.0000
  H   H1341     1.0  0.80333  0.68285  0.35552  1.0000
  H   H1342     1.0  0.75553  0.74477  0.35588  1.0000
  H   H1343     1.0  0.75038  0.70915  0.32939  1.0000
  H   H1344     1.0  0.76238  0.69811  0.36319  1.0000
  H   H1345     1.0  0.80591  0.71176  0.28855  1.0000
  H   H1346     1.0  0.82858  0.72920  0.29309  1.0000
  H   H1347     1.0  0.82151  0.69423  0.31730  1.0000
  H   H1348     1.0  0.79853  0.82041  0.39212  1.0000
  H   H1349     1.0  0.80720  0.81796  0.35530  1.0000
  H   H1350     1.0  0.81704  0.79016  0.38395  1.0000
  H   H1351     1.0  0.83103  0.72055  0.37440  1.0000
  H   H1352     1.0  0.82187  0.69027  0.40073  1.0000
  H   H1353     1.0  0.81697  0.73759  0.40468  1.0000
  C   C798      1.0  0.69462  0.56121  0.20887  1.0000
  C   C799      1.0  0.72264  0.61371  0.23197  1.0000
  H   H1354     1.0  0.87084  0.65397  0.06712  1.0000
  C   C800      1.0  0.78956  0.94620  0.31407  1.0000
  H   H1355     1.0  0.80729  0.89594  0.21211  1.0000
  C   C801      1.0  0.80144  0.97481  0.21762  1.0000
  Fe  Fe117     1.0  0.92520  0.74134  0.50138  1.0000
  H   H1356     1.0  0.87356  0.55865  0.08726  1.0000
  H   H1357     1.0  0.91086  0.56846  0.10832  1.0000
  H   H1358     1.0  0.90017  0.66376  0.14380  1.0000
  H   H1359     1.0  0.91247  0.57344  0.14788  1.0000
  C   C802      1.0  0.76933  0.96152  0.25751  1.0000
  H   H1360     1.0  0.77448  0.91530  0.21369  1.0000
  S   S235      1.0  0.92510  0.60510  0.50500  1.0000
  C   C803      1.0  0.87079  0.64313  0.09010  1.0000
  S   S236      1.0  0.98343  0.76487  0.06428  1.0000
  H   H1361     1.0  0.89988  0.64877  0.09426  1.0000
  C   C804      1.0  0.68854  0.57370  0.29590  1.0000
  C   C805      1.0  0.91053  0.58906  0.12697  1.0000
  H   H1362     1.0  0.74566  0.92435  0.24959  1.0000
  C   C806      1.0  0.89366  0.63834  0.15181  1.0000
  H   H1363     1.0  0.94021  0.59515  0.12443  1.0000
  C   C807      1.0  0.87553  0.54953  0.11053  1.0000
  C   C808      1.0  0.68876  0.59960  0.16472  1.0000
  C   C809      1.0  0.92786  0.61290  0.12351  1.0000
  N   N57       1.0  0.89246  0.60929  0.12711  1.0000
  H   H1364     1.0  0.68210  0.86025  0.49156  1.0000
  H   H1365     1.0  0.70815  0.54814  0.20461  1.0000
  H   H1366     1.0  0.69532  0.65292  0.36580  1.0000
  H   H1367     1.0  0.80531  0.97907  0.26488  1.0000
  N   N58       1.0  0.78535  0.93562  0.25681  1.0000
  C   C810      1.0  0.78895  0.91922  0.28700  1.0000
  H   H1368     1.0  0.98334  0.61721  0.48482  1.0000
  C   C811      1.0  0.68039  0.53357  0.19546  1.0000
  C   C812      1.0  0.80226  0.95656  0.24837  1.0000
  C   C813      1.0  0.79734  0.88091  0.22569  1.0000
  H   H1369     1.0  0.93394  0.53230  0.48604  1.0000
  H   H1370     1.0  0.99609  0.59466  0.11958  1.0000
  H   H1371     1.0  0.86421  0.53446  0.47636  1.0000
  C   C814      1.0  0.00108  0.67478  0.10079  1.0000
  H   H1372     1.0  0.88734  0.53047  0.11186  1.0000
  H   H1373     1.0  0.70247  0.64914  0.14829  1.0000
  H   H1374     1.0  0.86314  0.53333  0.11589  1.0000
  C   C815      1.0  0.87565  0.64955  0.16706  1.0000
  H   H1375     1.0  0.81486  0.93943  0.24970  1.0000
  C   C816      1.0  0.99847  0.65311  0.07100  1.0000
  C   C817      1.0  0.90773  0.53276  0.04503  1.0000
  S   S237      1.0  0.94724  0.69853  0.50473  1.0000
  H   H1376     1.0  0.68385  0.52540  0.17224  1.0000
  H   H1377     1.0  0.72280  0.60089  0.18474  1.0000
  H   H1378     1.0  0.79284  0.95974  0.20074  1.0000
  H   H1379     1.0  0.69335  0.56125  0.23354  1.0000
  H   H1380     1.0  0.79427  0.93133  0.33419  1.0000
  H   H1381     1.0  0.71533  0.63089  0.24846  1.0000
  H   H1382     1.0  0.98709  0.66376  0.49572  1.0000
  H   H1383     1.0  0.72380  0.58552  0.24032  1.0000
  H   H1384     1.0  0.77049  0.88606  0.24349  1.0000
  H   H1385     1.0  0.79225  0.85727  0.21176  1.0000
  H   H1386     1.0  0.71380  0.64464  0.19453  1.0000
  C   C818      1.0  0.00430  0.75069  0.04834  1.0000
  N   N59       1.0  0.69421  0.59985  0.19745  1.0000
  H   H1387     1.0  0.89329  0.53544  0.03918  1.0000
  H   H1388     1.0  0.80448  0.86973  0.24554  1.0000
  H   H1389     1.0  0.77850  0.89802  0.29181  1.0000
  C   C819      1.0  0.94505  0.52597  0.05952  1.0000
  C   C820      1.0  0.71348  0.61529  0.20050  1.0000
  H   H1390     1.0  0.68806  0.67841  0.39736  1.0000
  C   C821      1.0  0.68476  0.65375  0.38328  1.0000
  H   H1391     1.0  0.67945  0.58435  0.36165  1.0000
  S   S238      1.0  0.95463  0.69234  0.01674  1.0000
  H   H1392     1.0  0.76679  0.97329  0.23509  1.0000
  H   H1393     1.0  0.00288  0.65706  0.12023  1.0000
  H   H1394     1.0  0.67928  0.65685  0.16098  1.0000
  C   C822      1.0  0.68851  0.63715  0.14971  1.0000
  H   H1395     1.0  0.81549  0.97556  0.20842  1.0000
  H   H1396     1.0  0.98803  0.56348  0.50817  1.0000
  H   H1397     1.0  0.77581  0.95747  0.31891  1.0000
  H   H1398     1.0  0.75179  0.93152  0.28868  1.0000
  H   H1399     1.0  0.68527  0.62181  0.24008  1.0000
  H   H1400     1.0  0.99451  0.58012  0.06889  1.0000
  C   C823      1.0  0.00871  0.58882  0.07572  1.0000
  H   H1401     1.0  0.68132  0.88669  0.44126  1.0000
  H   H1402     1.0  0.67690  0.90778  0.49330  1.0000
  C   C824      1.0  0.68184  0.62395  0.21588  1.0000
  H   H1403     1.0  0.79939  0.96895  0.31139  1.0000
  H   H1404     1.0  0.00408  0.63078  0.50566  1.0000
  H   H1405     1.0  0.68314  0.63357  0.12638  1.0000
  H   H1406     1.0  0.68414  0.65318  0.21079  1.0000
  C   C825      1.0  0.93107  0.53160  0.50961  1.0000
  H   H1407     1.0  0.79624  0.00324  0.21977  1.0000
  H   H1408     1.0  0.84910  0.52759  0.50730  1.0000
  H   H1409     1.0  0.74043  0.96653  0.26824  1.0000
  H   H1410     1.0  0.77242  0.98557  0.27254  1.0000
  H   H1411     1.0  0.98892  0.58477  0.02042  1.0000
  H   H1412     1.0  0.98387  0.63302  0.01804  1.0000
  C   C826      1.0  0.00940  0.58616  0.11001  1.0000
  C   C827      1.0  0.99432  0.61170  0.01386  1.0000
  H   H1413     1.0  0.99026  0.73378  0.51269  1.0000
  Fe  Fe118     1.0  0.86378  0.89119  0.78443  1.0000
  S   S239      1.0  0.88428  0.84872  0.79908  1.0000
  S   S240      1.0  0.87676  0.94676  0.77500  1.0000
  Fe  Fe119     1.0  0.83192  0.83541  0.78503  1.0000
  S   S241      1.0  0.85020  0.78947  0.79977  1.0000
  S   S242      1.0  0.80144  0.83141  0.77163  1.0000
  Fe  Fe120     1.0  0.86329  0.83113  0.83177  1.0000
  S   S243      1.0  0.86909  0.82625  0.88204  1.0000
  Fe  Fe121     1.0  0.86984  0.81069  0.76578  1.0000
  S   S244      1.0  0.88701  0.77259  0.73654  1.0000
  S   S245      1.0  0.84352  0.87615  0.81919  1.0000
  S   S246      1.0  0.85085  0.85403  0.74900  1.0000
  Fe  Fe122     1.0  0.95264  0.71962  0.55150  1.0000
  C   C828      1.0  0.84031  0.71441  0.67576  1.0000
  S   S247      1.0  0.98072  0.72397  0.57507  1.0000
  Fe  Fe123     1.0  0.91163  0.72672  0.56451  1.0000
  C   C829      1.0  0.97884  0.62994  0.53238  1.0000
  S   S248      1.0  0.88927  0.75008  0.59473  1.0000
  Fe  Fe124     1.0  0.92563  0.66317  0.52490  1.0000
  H   H1414     1.0  0.94817  0.77353  0.98729  1.0000
  S   S249      1.0  0.69079  0.76054  0.77430  1.0000
  S   S250      1.0  0.92041  0.71910  0.95764  1.0000
  S   S251      1.0  0.93224  0.68172  0.57223  1.0000
  S   S252      1.0  0.93250  0.76577  0.54694  1.0000
  Fe  Fe125     1.0  0.70960  0.71532  0.78961  1.0000
  H   H1415     1.0  0.00505  0.57250  0.57624  1.0000
  S   S253      1.0  0.74044  0.71218  0.80060  1.0000
  H   H1416     1.0  0.68438  0.87616  0.89554  1.0000
  S   S254      1.0  0.69744  0.67334  0.75717  1.0000
  S   S255      1.0  0.69118  0.69892  0.82681  1.0000
  H   H1417     1.0  0.69717  0.51640  0.73949  1.0000
  H   H1418     1.0  0.74384  0.59312  0.74389  1.0000
  H   H1419     1.0  0.94447  0.83830  0.00514  1.0000
  H   H1420     1.0  0.74571  0.60145  0.85424  1.0000
  H   H1421     1.0  0.95622  0.59248  0.56723  1.0000
  H   H1422     1.0  0.73338  0.54344  0.83679  1.0000
  H   H1423     1.0  0.84349  0.68511  0.67150  1.0000
  H   H1424     1.0  0.69324  0.86103  0.98095  1.0000
  C   C830      1.0  0.78457  0.79884  0.78147  1.0000
  C   C831      1.0  0.78878  0.76882  0.79912  1.0000
  C   C832      1.0  0.77511  0.74262  0.80482  1.0000
  C   C833      1.0  0.75704  0.74637  0.79332  1.0000
  C   C834      1.0  0.75282  0.77648  0.77585  1.0000
  C   C835      1.0  0.76653  0.80245  0.76989  1.0000
  H   H1425     1.0  0.80255  0.76580  0.80838  1.0000
  H   H1426     1.0  0.77851  0.71951  0.81847  1.0000
  H   H1427     1.0  0.73901  0.77970  0.76678  1.0000
  H   H1428     1.0  0.76312  0.82551  0.75618  1.0000
  C   C836      1.0  0.88321  0.79560  0.90248  1.0000
  C   C837      1.0  0.88357  0.79817  0.93392  1.0000
  C   C838      1.0  0.89460  0.77465  0.95120  1.0000
  C   C839      1.0  0.90552  0.74833  0.93718  1.0000
  C   C840      1.0  0.90525  0.74585  0.90575  1.0000
  C   C841      1.0  0.89416  0.76929  0.88847  1.0000
  H   H1429     1.0  0.87515  0.81842  0.94498  1.0000
  H   H1430     1.0  0.89467  0.77698  0.97533  1.0000
  H   H1431     1.0  0.91366  0.72563  0.89465  1.0000
  H   H1432     1.0  0.89405  0.76700  0.86433  1.0000
  C   C842      1.0  0.88973  0.75766  0.63409  1.0000
  C   C843      1.0  0.87644  0.78073  0.64680  1.0000
  C   C844      1.0  0.87575  0.78638  0.67801  1.0000
  C   C845      1.0  0.88802  0.76823  0.69698  1.0000
  C   C846      1.0  0.90141  0.74543  0.68428  1.0000
  C   C847      1.0  0.90238  0.74040  0.65301  1.0000
  H   H1433     1.0  0.86664  0.79433  0.63234  1.0000
  H   H1434     1.0  0.86573  0.80465  0.68736  1.0000
  H   H1435     1.0  0.91103  0.73133  0.69871  1.0000
  H   H1436     1.0  0.91265  0.72251  0.64358  1.0000
  C   C848      1.0  0.92272  0.56291  0.55543  1.0000
  H   H1437     1.0  0.92517  0.98693  0.71625  1.0000
  C   C849      1.0  0.00194  0.72565  0.55660  1.0000
  H   H1438     1.0  0.91891  0.58766  0.56741  1.0000
  H   H1439     1.0  0.92440  0.96480  0.68025  1.0000
  H   H1440     1.0  0.84981  0.73859  0.74490  1.0000
  C   C850      1.0  0.86597  0.99020  0.77317  1.0000
  H   H1441     1.0  0.70610  0.89177  0.91015  1.0000
  H   H1442     1.0  0.92111  0.52888  0.59400  1.0000
  H   H1443     1.0  0.83823  0.97036  0.77628  1.0000
  N   N60       1.0  0.95979  0.80353  0.95137  1.0000
  H   H1444     1.0  0.98832  0.74919  0.94869  1.0000
  C   C851      1.0  0.95970  0.79293  0.98372  1.0000
  C   C852      1.0  0.96151  0.76998  0.93125  1.0000
  C   C853      1.0  0.97467  0.83093  0.94528  1.0000
  C   C854      1.0  0.93697  0.82835  0.91124  1.0000
  H   H1445     1.0  0.97055  0.65039  0.59112  1.0000
  C   C855      1.0  0.97442  0.73938  0.94201  1.0000
  C   C856      1.0  0.92625  0.56402  0.52493  1.0000
  C   C857      1.0  0.94144  0.82113  0.94449  1.0000
  C   C858      1.0  0.97871  0.56381  0.52750  1.0000
  H   H1446     1.0  0.92678  0.87203  0.75042  1.0000
  C   C859      1.0  0.68327  0.90975  0.93726  1.0000
  H   H1447     1.0  0.94788  0.75642  0.92756  1.0000
  H   H1448     1.0  0.96594  0.77763  0.90860  1.0000
  H   H1449     1.0  0.97489  0.83667  0.92102  1.0000
  H   H1450     1.0  0.93597  0.80275  0.89752  1.0000
  H   H1451     1.0  0.92320  0.84137  0.90950  1.0000
  H   H1452     1.0  0.94693  0.84734  0.90149  1.0000
  H   H1453     1.0  0.69497  0.85488  0.92770  1.0000
  H   H1454     1.0  0.83407  0.82385  0.67710  1.0000
  H   H1455     1.0  0.92489  0.53751  0.97373  1.0000
  C   C860      1.0  0.69245  0.88118  0.91658  1.0000
  H   H1456     1.0  0.00368  0.64962  0.57906  1.0000
  C   C861      1.0  0.73125  0.55092  0.81297  1.0000
  N   N61       1.0  0.98329  0.59543  0.54876  1.0000
  H   H1457     1.0  0.86182  0.90154  0.66413  1.0000
  C   C862      1.0  0.84689  0.99421  0.77409  1.0000
  H   H1458     1.0  0.92701  0.83913  0.65137  1.0000
  H   H1459     1.0  0.99614  0.61014  0.98931  1.0000
  H   H1460     1.0  0.82343  0.80003  0.72582  1.0000
  C   C863      1.0  0.73984  0.51892  0.79510  1.0000
  C   C864      1.0  0.97085  0.59265  0.57508  1.0000
  H   H1461     1.0  0.90740  0.93721  0.73832  1.0000
  C   C865      1.0  0.92404  0.52962  0.57044  1.0000
  H   H1462     1.0  0.72118  0.60873  0.73592  1.0000
  H   H1463     1.0  0.86743  0.87123  0.69320  1.0000
  C   C866      1.0  0.67890  0.85884  0.98850  1.0000
  H   H1464     1.0  0.79220  0.76534  0.68466  1.0000
  H   H1465     1.0  0.97597  0.71885  0.92357  1.0000
  C   C867      1.0  0.91911  0.85264  0.73531  1.0000
  H   H1466     1.0  0.81010  0.81440  0.67699  1.0000
  C   C868      1.0  0.82684  0.78065  0.70726  1.0000
  C   C869      1.0  0.83924  0.71712  0.74737  1.0000
  H   H1467     1.0  0.81200  0.72428  0.66468  1.0000
  C   C870      1.0  0.82003  0.71790  0.68541  1.0000
  C   C871      1.0  0.00281  0.73053  0.52580  1.0000
  H   H1468     1.0  0.84012  0.70898  0.77110  1.0000
  C   C872      1.0  0.82383  0.80133  0.67793  1.0000
  H   H1469     1.0  0.89999  0.52820  0.89803  1.0000
  C   C873      1.0  0.81959  0.73045  0.74036  1.0000
  N   N62       1.0  0.81599  0.74575  0.70979  1.0000
  C   C874      1.0  0.69073  0.51990  0.76088  1.0000
  H   H1470     1.0  0.92833  0.84077  0.71833  1.0000
  H   H1471     1.0  0.91972  0.53061  0.92216  1.0000
  H   H1472     1.0  0.81612  0.75118  0.75794  1.0000
  C   C875      1.0  0.97273  0.62261  0.59966  1.0000
  C   C876      1.0  0.79587  0.75593  0.70748  1.0000
  H   H1473     1.0  0.97306  0.56664  0.58691  1.0000
  H   H1474     1.0  0.97216  0.77763  0.99049  1.0000
  H   H1475     1.0  0.71702  0.62869  0.87027  1.0000
  H   H1476     1.0  0.96461  0.56686  0.51765  1.0000
  C   C877      1.0  0.78186  0.72559  0.71413  1.0000
  H   H1477     1.0  0.90349  0.98103  0.69752  1.0000
  N   N63       1.0  0.73845  0.58911  0.80779  1.0000
  C   C878      1.0  0.73625  0.61147  0.83629  1.0000
  C   C879      1.0  0.75868  0.58812  0.80118  1.0000
  C   C880      1.0  0.68502  0.55500  0.77038  1.0000
  C   C881      1.0  0.72743  0.60735  0.78345  1.0000
  C   C882      1.0  0.71671  0.61237  0.84903  1.0000
  C   C883      1.0  0.76801  0.62549  0.79656  1.0000
  C   C884      1.0  0.72949  0.59187  0.75148  1.0000
  H   H1478     1.0  0.96830  0.72469  0.96076  1.0000
  H   H1479     1.0  0.74004  0.64061  0.83311  1.0000
  H   H1480     1.0  0.84176  0.77629  0.71031  1.0000
  H   H1481     1.0  0.84737  0.99775  0.85910  1.0000
  H   H1482     1.0  0.92904  0.92322  0.72497  1.0000
  H   H1483     1.0  0.91468  0.82979  0.74938  1.0000
  H   H1484     1.0  0.71251  0.60624  0.78804  1.0000
  H   H1485     1.0  0.73087  0.63694  0.78296  1.0000
  H   H1486     1.0  0.97173  0.85820  0.95561  1.0000
  H   H1487     1.0  0.70690  0.62607  0.83379  1.0000
  H   H1488     1.0  0.71134  0.58487  0.85409  1.0000
  H   H1489     1.0  0.76852  0.64274  0.81727  1.0000
  H   H1490     1.0  0.78250  0.62089  0.79024  1.0000
  H   H1491     1.0  0.76137  0.64085  0.77821  1.0000
  H   H1492     1.0  0.98608  0.62088  0.61201  1.0000
  N   N64       1.0  0.90566  0.90042  0.69950  1.0000
  C   C885      1.0  0.91495  0.93111  0.71745  1.0000
  C   C886      1.0  0.90194  0.87028  0.72093  1.0000
  C   C887      1.0  0.88773  0.91492  0.68697  1.0000
  C   C888      1.0  0.91839  0.88890  0.67487  1.0000
  C   C889      1.0  0.91701  0.96779  0.70150  1.0000
  H   H1493     1.0  0.81529  0.69030  0.69189  1.0000
  C   C890      1.0  0.87343  0.88675  0.67490  1.0000
  C   C891      1.0  0.91396  0.85297  0.65725  1.0000
  H   H1494     1.0  0.94021  0.84797  0.95645  1.0000
  H   H1495     1.0  0.84237  0.72786  0.65410  1.0000
  H   H1496     1.0  0.89376  0.84770  0.71044  1.0000
  H   H1497     1.0  0.90632  0.85837  0.63604  1.0000
  H   H1498     1.0  0.88056  0.93139  0.70448  1.0000
  H   H1499     1.0  0.89026  0.93380  0.66837  1.0000
  H   H1500     1.0  0.91909  0.91046  0.65785  1.0000
  H   H1501     1.0  0.93285  0.88685  0.68341  1.0000
  C   C892      1.0  0.99457  0.82048  0.95405  1.0000
  H   H1502     1.0  0.89317  0.88064  0.73934  1.0000
  H   H1503     1.0  0.96188  0.61835  0.61627  1.0000
  H   H1504     1.0  0.82561  0.78356  0.65786  1.0000
  H   H1505     1.0  0.78470  0.69967  0.70185  1.0000
  H   H1506     1.0  0.76639  0.57455  0.81962  1.0000
  C   C893      1.0  0.95807  0.82484  0.00665  1.0000
  H   H1507     1.0  0.87885  0.86774  0.65784  1.0000
  H   H1508     1.0  0.72397  0.56378  0.74903  1.0000
  H   H1509     1.0  0.96928  0.84517  0.00480  1.0000
  H   H1510     1.0  0.90637  0.83253  0.66978  1.0000
  H   H1511     1.0  0.93003  0.80405  0.95270  1.0000
  H   H1512     1.0  0.79284  0.77951  0.72270  1.0000
  H   H1513     1.0  0.76137  0.57136  0.78080  1.0000
  H   H1514     1.0  0.85082  0.72464  0.69210  1.0000
  H   H1515     1.0  0.99583  0.80541  0.97509  1.0000
  H   H1516     1.0  0.76788  0.73471  0.70711  1.0000
  H   H1517     1.0  0.78122  0.72083  0.73848  1.0000
  H   H1518     1.0  0.84264  0.69246  0.73376  1.0000
  H   H1519     1.0  0.81072  0.70633  0.74411  1.0000
  H   H1520     1.0  0.99318  0.52046  0.55249  1.0000
  H   H1521     1.0  0.71611  0.54952  0.80894  1.0000
  H   H1522     1.0  0.68133  0.64687  0.90658  1.0000
  C   C894      1.0  0.00329  0.59290  0.55836  1.0000
  H   H1523     1.0  0.96832  0.51980  0.55556  1.0000
  Fe  Fe126     1.0  0.92637  0.71531  0.00779  1.0000
  H   H1524     1.0  0.00275  0.84582  0.95846  1.0000
  H   H1525     1.0  0.99173  0.72640  0.00862  1.0000
  H   H1526     1.0  0.98146  0.65471  0.54635  1.0000
  H   H1527     1.0  0.94143  0.51233  0.99526  1.0000
  H   H1528     1.0  0.68269  0.93544  0.92451  1.0000
  H   H1529     1.0  0.68694  0.57816  0.75621  1.0000
  H   H1530     1.0  0.69288  0.91575  0.95651  1.0000
  H   H1531     1.0  0.75393  0.51297  0.80370  1.0000
  C   C895      1.0  0.97990  0.52521  0.54060  1.0000
  S   S256      1.0  0.90314  0.70481  0.51836  1.0000
  Fe  Fe127     1.0  0.67723  0.71735  0.74423  1.0000
  H   H1532     1.0  0.74032  0.52333  0.77085  1.0000
  H   H1533     1.0  0.67731  0.83105  0.99763  1.0000
  H   H1534     1.0  0.96383  0.63098  0.52681  1.0000
  H   H1535     1.0  0.00107  0.80449  0.93578  1.0000
  C   C896      1.0  0.67684  0.55997  0.79810  1.0000
  Fe  Fe128     1.0  0.67805  0.65944  0.79333  1.0000
  H   H1536     1.0  0.87310  0.52700  0.51345  1.0000
