data_image0
_chemical_formula_structural       CH2CSHS2CSHCHC2H5C2FeCNC2H4C2HSC2FeHCH3CH4SHSHC3H2CH2CH3CH2CSHCH3FeCH2SCH4CHCFeH5C2FeH2SH2C2H2SC2H2CS2H2FeH2FeS2HCHCH2SH3CSCHNHFeH6SCHCHSC2HCH2CHNCH2CH4CHCH2FeHC2HC2H3CHNSH2FeHFeCHC2SH2CHCHCS2H4C4HCHCHCH3C2H3FeHCSH4C2HCH2SCH6NHCHNHSH3SHC5SFeH4CSCH3CNCHCHCH2C2HCH5SHCFeH2CHSH2C3HNHCHC2H2CH2CH4CHSHCH6CSC2Fe2CHFeSH3C2H4CS2FeHCH2CHC3FeH2SH2CH2SHSCH4Fe2HCSH2C4H3CHCH3CHCH4C2H2C2SCHNCSHCNH2C2H2SH3CHCHFeCHCH5FeSH5C3H3SCSCH4CH3SCHCFeC3HNFeCHCH6NSCH2SHC2HCHC2HC2H2CH2CH5CHCH2C4H4CH4C3HSCH2CHCHNHSH2FeC3H2CH3C2SCH3CH2C2HSHFeH2C2SH2C2HSCH2NCH7CH3CH2CH2SFeC2HCH3SH3CHCHCHC2FeCHC2HCFeH3C2FeC2SCH3SH3NH6CH3CH2CHSFeSHCNHC2H4CH2SCHCHSH2CH6CHSCH2C2
_chemical_formula_sum              "C224 H384 S64 Fe32 N16"
_cell_length_a       22.1674
_cell_length_b       21.5324
_cell_length_c       20.1932
_cell_angle_alpha    78.4503
_cell_angle_beta     80.895
_cell_angle_gamma    64.0767

_space_group_name_H-M_alt    "P 1"
_space_group_IT_number       1

loop_
  _space_group_symop_operation_xyz
  'x, y, z'

loop_
  _atom_site_type_symbol
  _atom_site_label
  _atom_site_symmetry_multiplicity
  _atom_site_fract_x
  _atom_site_fract_y
  _atom_site_fract_z
  _atom_site_occupancy
  C   C1        1.0  0.41890  0.04771  0.95339  1.0000
  H   H1        1.0  0.29552  0.05412  0.92636  1.0000
  H   H2        1.0  0.24924  0.14212  0.93623  1.0000
  C   C2        1.0  0.16884  0.27814  0.88834  1.0000
  S   S1        1.0  0.94993  0.15290  0.99113  1.0000
  H   H3        1.0  0.36690  0.18621  0.91997  1.0000
  S   S2        1.0  0.43279  0.30746  0.92495  1.0000
  S   S3        1.0  0.24139  0.38309  0.97281  1.0000
  C   C3        1.0  0.31767  0.12717  0.84762  1.0000
  S   S4        1.0  0.34811  0.45993  0.84022  1.0000
  H   H4        1.0  0.34697  0.40140  0.05505  1.0000
  C   C4        1.0  0.35630  0.44920  0.03998  1.0000
  H   H5        1.0  0.95864  0.02940  0.82184  1.0000
  C   C5        1.0  0.98512  0.48157  0.01400  1.0000
  C   C6        1.0  0.28854  0.51276  0.02659  1.0000
  H   H6        1.0  0.17500  0.26118  0.83989  1.0000
  H   H7        1.0  0.36808  0.09144  0.82851  1.0000
  H   H8        1.0  0.31365  0.18130  0.83837  1.0000
  H   H9        1.0  0.03836  0.44793  0.01370  1.0000
  H   H10       1.0  0.09697  0.25912  0.04832  1.0000
  C   C7        1.0  0.13252  0.25551  0.94282  1.0000
  C   C8        1.0  0.15583  0.31889  0.01472  1.0000
  Fe  Fe1       1.0  0.99773  0.22774  0.97229  1.0000
  C   C9        1.0  0.93879  0.45373  0.01336  1.0000
  N   N1        1.0  0.34803  0.09754  0.97215  1.0000
  C   C10       1.0  0.39083  0.17176  0.02150  1.0000
  C   C11       1.0  0.12436  0.27731  0.00573  1.0000
  H   H11       1.0  0.09908  0.09867  0.85467  1.0000
  H   H12       1.0  0.95676  0.39871  0.01197  1.0000
  H   H13       1.0  0.00775  0.02324  0.88852  1.0000
  H   H14       1.0  0.98540  0.15154  0.84564  1.0000
  C   C12       1.0  0.30055  0.10395  0.92282  1.0000
  C   C13       1.0  0.19369  0.34011  0.96029  1.0000
  H   H15       1.0  0.29557  0.20893  0.97701  1.0000
  S   S5        1.0  0.10530  0.19308  0.93339  1.0000
  C   C14       1.0  0.34751  0.16795  0.97077  1.0000
  C   C15       1.0  0.19823  0.32141  0.89685  1.0000
  Fe  Fe2       1.0  0.32790  0.36860  0.89327  1.0000
  H   H16       1.0  0.22501  0.33988  0.85460  1.0000
  C   C16       1.0  0.96873  0.05933  0.85395  1.0000
  H   H17       1.0  0.36865  0.22554  0.03457  1.0000
  H   H18       1.0  0.39142  0.44141  0.99365  1.0000
  H   H19       1.0  0.31743  0.02272  0.04019  1.0000
  C   C17       1.0  0.32518  0.07011  0.04161  1.0000
  H   H20       1.0  0.15268  0.33245  0.06423  1.0000
  H   H21       1.0  0.21566  0.13529  0.04630  1.0000
  H   H22       1.0  0.21640  0.02311  0.82696  1.0000
  H   H23       1.0  0.27085  0.50355  0.98252  1.0000
  S   S6        1.0  0.95220  0.27111  0.06914  1.0000
  H   H24       1.0  0.05481  0.13875  0.15071  1.0000
  S   S7        1.0  0.30807  0.44261  0.21744  1.0000
  H   H25       1.0  0.05575  0.47530  0.13433  1.0000
  C   C18       1.0  0.06833  0.08353  0.14622  1.0000
  C   C19       1.0  0.13053  0.42080  0.31226  1.0000
  C   C20       1.0  0.25943  0.12122  0.07528  1.0000
  H   H26       1.0  0.17747  0.40923  0.27863  1.0000
  H   H27       1.0  0.13889  0.44079  0.09413  1.0000
  C   C21       1.0  0.43416  0.02813  0.21889  1.0000
  H   H28       1.0  0.02687  0.06090  0.24524  1.0000
  H   H29       1.0  0.00574  0.35698  0.23609  1.0000
  C   C22       1.0  0.97558  0.38643  0.19200  1.0000
  H   H30       1.0  0.12292  0.40274  0.17845  1.0000
  H   H31       1.0  0.11600  0.18385  0.23878  1.0000
  H   H32       1.0  0.36447  0.05221  0.07735  1.0000
  C   C23       1.0  0.06865  0.48416  0.28247  1.0000
  H   H33       1.0  0.11390  0.06623  0.11087  1.0000
  H   H34       1.0  0.10951  0.05560  0.24296  1.0000
  C   C24       1.0  0.07794  0.04032  0.21764  1.0000
  S   S8        1.0  0.98599  0.19196  0.29977  1.0000
  H   H35       1.0  0.02551  0.08356  0.12414  1.0000
  C   C25       1.0  0.36962  0.46979  0.22645  1.0000
  H   H36       1.0  0.26292  0.16910  0.08293  1.0000
  H   H37       1.0  0.20907  0.18868  0.28953  1.0000
  H   H38       1.0  0.00856  0.36759  0.14606  1.0000
  Fe  Fe3       1.0  0.34143  0.33292  0.27072  1.0000
  C   C26       1.0  0.10959  0.45282  0.14351  1.0000
  H   H39       1.0  0.40629  0.05576  0.26092  1.0000
  H   H40       1.0  0.18144  0.47571  0.18157  1.0000
  S   S9        1.0  0.32033  0.24739  0.24647  1.0000
  C   C27       1.0  0.10837  0.19699  0.28935  1.0000
  H   H41       1.0  0.24930  0.09542  0.12646  1.0000
  H   H42       1.0  0.26367  0.03067  0.30065  1.0000
  H   H43       1.0  0.96326  0.44251  0.18750  1.0000
  H   H44       1.0  0.03658  0.46464  0.26358  1.0000
  C   C28       1.0  0.12801  0.50403  0.17012  1.0000
  H   H45       1.0  0.25195  0.50929  0.07033  1.0000
  C   C29       1.0  0.16084  0.19949  0.31802  1.0000
  Fe  Fe4       1.0  0.42784  0.17872  0.26894  1.0000
  H   H46       1.0  0.38094  0.45275  0.08168  1.0000
  H   H47       1.0  0.39211  0.13771  0.07055  1.0000
  H   H48       1.0  0.13888  0.40927  0.52127  1.0000
  H   H49       1.0  0.20044  0.04533  0.36896  1.0000
  H   H50       1.0  0.26275  0.40593  0.48671  1.0000
  C   C30       1.0  0.03685  0.22599  0.39259  1.0000
  C   C31       1.0  0.08958  0.22557  0.42213  1.0000
  Fe  Fe5       1.0  0.29806  0.22532  0.35909  1.0000
  H   H51       1.0  0.37466  0.47653  0.47296  1.0000
  H   H52       1.0  0.30196  0.06116  0.38921  1.0000
  S   S10       1.0  0.95917  0.13769  0.49995  1.0000
  H   H53       1.0  0.30800  0.42464  0.53877  1.0000
  H   H54       1.0  0.98824  0.23936  0.42038  1.0000
  C   C32       1.0  0.16927  0.35339  0.54052  1.0000
  C   C33       1.0  0.28385  0.38971  0.53670  1.0000
  H   H55       1.0  0.14018  0.42939  0.36127  1.0000
  H   H56       1.0  0.42508  0.44571  0.39903  1.0000
  S   S11       1.0  0.40310  0.14936  0.37940  1.0000
  C   C34       1.0  0.42308  0.46998  0.44335  1.0000
  C   C35       1.0  0.15170  0.21151  0.38527  1.0000
  H   H57       1.0  0.32384  0.33569  0.54009  1.0000
  H   H58       1.0  0.94755  0.36724  0.53778  1.0000
  C   C36       1.0  0.12427  0.31537  0.54204  1.0000
  S   S12       1.0  0.94150  0.04428  0.40207  1.0000
  S   S13       1.0  0.21788  0.20444  0.42654  1.0000
  H   H59       1.0  0.21043  0.33359  0.50036  1.0000
  H   H60       1.0  0.08218  0.23508  0.47399  1.0000
  Fe  Fe6       1.0  0.95748  0.03338  0.51079  1.0000
  H   H61       1.0  0.32520  0.05790  0.50153  1.0000
  H   H62       1.0  0.03757  0.50908  0.32670  1.0000
  Fe  Fe7       1.0  0.41541  0.24317  0.39495  1.0000
  S   S14       1.0  0.99335  0.48521  0.47534  1.0000
  S   S15       1.0  0.30919  0.31715  0.38068  1.0000
  H   H63       1.0  0.10455  0.32899  0.49138  1.0000
  C   C37       1.0  0.04724  0.20794  0.32796  1.0000
  H   H64       1.0  0.21134  0.07882  0.48758  1.0000
  C   C38       1.0  0.22646  0.02167  0.50105  1.0000
  H   H65       1.0  0.15319  0.25811  0.55020  1.0000
  H   H66       1.0  0.12131  0.37292  0.32123  1.0000
  S   S16       1.0  0.96134  0.40346  0.66416  1.0000
  H   H67       1.0  0.25212  0.39540  0.64132  1.0000
  H   H68       1.0  0.15838  0.43155  0.72054  1.0000
  H   H69       1.0  0.21240  0.23205  0.72255  1.0000
  C   C39       1.0  0.42322  0.13051  0.68425  1.0000
  S   S17       1.0  0.39780  0.02581  0.65572  1.0000
  C   C40       1.0  0.05607  0.21316  0.75053  1.0000
  H   H70       1.0  0.23539  0.03060  0.60559  1.0000
  N   N2        1.0  0.19709  0.34718  0.60626  1.0000
  H   H71       1.0  0.09805  0.19720  0.78264  1.0000
  Fe  Fe8       1.0  0.37777  0.40699  0.74798  1.0000
  H   H72       1.0  0.15793  0.03091  0.59118  1.0000
  H   H73       1.0  0.21075  0.50613  0.80290  1.0000
  H   H74       1.0  0.18853  0.09025  0.75650  1.0000
  H   H75       1.0  0.18772  0.21494  0.64975  1.0000
  H   H76       1.0  0.11738  0.33023  0.67445  1.0000
  H   H77       1.0  0.10489  0.13431  0.68412  1.0000
  S   S18       1.0  0.34943  0.31981  0.79873  1.0000
  C   C41       1.0  0.98734  0.11701  0.81039  1.0000
  H   H78       1.0  0.38935  0.16425  0.64610  1.0000
  C   C42       1.0  0.05866  0.15213  0.71938  1.0000
  H   H79       1.0  0.20611  0.33860  0.74256  1.0000
  S   S19       1.0  0.34989  0.46632  0.64500  1.0000
  C   C43       1.0  0.01075  0.05490  0.67917  1.0000
  C   C44       1.0  0.22833  0.39872  0.59535  1.0000
  H   H80       1.0  0.28085  0.12646  0.81667  1.0000
  C   C45       1.0  0.25099  0.27451  0.62507  1.0000
  H   H81       1.0  0.07973  0.33179  0.57889  1.0000
  H   H82       1.0  0.27933  0.25159  0.57865  1.0000
  C   C46       1.0  0.22838  0.22015  0.67001  1.0000
  H   H83       1.0  0.06005  0.25379  0.70886  1.0000
  N   N3        1.0  0.05452  0.09178  0.76953  1.0000
  C   C47       1.0  0.18178  0.04403  0.78569  1.0000
  H   H84       1.0  0.03336  0.06275  0.62681  1.0000
  H   H85       1.0  0.00744  0.23854  0.78015  1.0000
  C   C48       1.0  0.13975  0.36858  0.66038  1.0000
  H   H86       1.0  0.27180  0.16806  0.67327  1.0000
  H   H87       1.0  0.28979  0.27610  0.65292  1.0000
  H   H88       1.0  0.18916  0.45341  0.58590  1.0000
  H   H89       1.0  0.96449  0.10265  0.68632  1.0000
  C   C49       1.0  0.06284  0.03498  0.73117  1.0000
  H   H90       1.0  0.09765  0.41789  0.64106  1.0000
  C   C50       1.0  0.15711  0.37985  0.72651  1.0000
  H   H91       1.0  0.11713  0.37965  0.76733  1.0000
  H   H92       1.0  0.01630  0.17531  0.68598  1.0000
  Fe  Fe9       1.0  0.95955  0.49336  0.58467  1.0000
  H   H93       1.0  0.94545  0.15088  0.77775  1.0000
  C   C51       1.0  0.10917  0.06237  0.81796  1.0000
  C   C52       1.0  0.08726  0.86479  0.86394  1.0000
  H   H94       1.0  0.33279  0.56299  0.91215  1.0000
  C   C53       1.0  0.16246  0.85794  0.94306  1.0000
  C   C54       1.0  0.20383  0.84069  0.82683  1.0000
  H   H95       1.0  0.37845  0.66450  0.94719  1.0000
  H   H96       1.0  0.29216  0.70010  0.92626  1.0000
  H   H97       1.0  0.11000  0.01345  0.84982  1.0000
  C   C55       1.0  0.09861  0.86761  0.92926  1.0000
  H   H98       1.0  0.42592  0.78725  0.95736  1.0000
  N   N4        1.0  0.29024  0.58362  0.01410  1.0000
  S   S20       1.0  0.01958  0.58760  0.01876  1.0000
  H   H99       1.0  0.35688  0.65593  0.86826  1.0000
  H   H100      1.0  0.17919  0.58977  0.94363  1.0000
  Fe  Fe10      1.0  0.95563  0.83890  0.93596  1.0000
  H   H101      1.0  0.40491  0.97974  0.89494  1.0000
  Fe  Fe11      1.0  0.95967  0.70204  0.01272  1.0000
  C   C56       1.0  0.21495  0.84506  0.89162  1.0000
  H   H102      1.0  0.21430  0.69153  0.99919  1.0000
  C   C57       1.0  0.19021  0.63615  0.93870  1.0000
  C   C58       1.0  0.42754  0.97567  0.94156  1.0000
  S   S21       1.0  0.00740  0.87910  0.84511  1.0000
  H   H103      1.0  0.39214  0.54930  0.96709  1.0000
  H   H104      1.0  0.22338  0.63915  0.89213  1.0000
  C   C59       1.0  0.21934  0.63747  0.00264  1.0000
  H   H105      1.0  0.40601  0.94936  0.98494  1.0000
  C   C60       1.0  0.96251  0.55300  0.01441  1.0000
  H   H106      1.0  0.14135  0.68256  0.93199  1.0000
  C   C61       1.0  0.34166  0.65552  0.92342  1.0000
  S   S22       1.0  0.29421  0.83424  0.90897  1.0000
  S   S23       1.0  0.01153  0.76700  0.02411  1.0000
  H   H107      1.0  0.17096  0.86121  0.99331  1.0000
  H   H108      1.0  0.31043  0.69841  0.04321  1.0000
  H   H109      1.0  0.18428  0.63162  0.04700  1.0000
  H   H110      1.0  0.05774  0.87916  0.96867  1.0000
  C   C62       1.0  0.33986  0.58490  0.95400  1.0000
  C   C63       1.0  0.01817  0.59254  0.20367  1.0000
  C   C64       1.0  0.29544  0.66761  0.08780  1.0000
  C   C65       1.0  0.18205  0.92966  0.21342  1.0000
  H   H111      1.0  0.02737  0.62730  0.15830  1.0000
  C   C66       1.0  0.96946  0.64028  0.25461  1.0000
  H   H112      1.0  0.20276  0.94846  0.24788  1.0000
  C   C67       1.0  0.31280  0.59247  0.07707  1.0000
  H   H113      1.0  0.98967  0.56851  0.18541  1.0000
  C   C68       1.0  0.21531  0.94340  0.14230  1.0000
  H   H114      1.0  0.16749  0.52641  0.28043  1.0000
  H   H115      1.0  0.38566  0.60200  0.27770  1.0000
  H   H116      1.0  0.29004  0.57024  0.12327  1.0000
  C   C69       1.0  0.35094  0.53294  0.24983  1.0000
  C   C70       1.0  0.41902  0.97645  0.20255  1.0000
  H   H117      1.0  0.08995  0.67121  0.19836  1.0000
  H   H118      1.0  0.99048  0.67297  0.27004  1.0000
  H   H119      1.0  0.22252  0.99214  0.13603  1.0000
  Fe  Fe12      1.0  0.42474  0.80758  0.21349  1.0000
  H   H120      1.0  0.10726  0.87587  0.30077  1.0000
  C   C71       1.0  0.09803  0.86384  0.17319  1.0000
  S   S24       1.0  0.37959  0.73203  0.21898  1.0000
  H   H121      1.0  0.17148  0.60519  0.17303  1.0000
  H   H122      1.0  0.37840  0.96547  0.23102  1.0000
  H   H123      1.0  0.26558  0.89932  0.13606  1.0000
  H   H124      1.0  0.07560  0.85695  0.13121  1.0000
  C   C72       1.0  0.07527  0.94265  0.17289  1.0000
  C   C73       1.0  0.08540  0.93382  0.29279  1.0000
  H   H125      1.0  0.07936  0.83917  0.22056  1.0000
  C   C74       1.0  0.13559  0.62552  0.21656  1.0000
  H   H126      1.0  0.02974  0.95110  0.29964  1.0000
  H   H127      1.0  0.18805  0.94515  0.10020  1.0000
  S   S25       1.0  0.43105  0.88251  0.12226  1.0000
  C   C75       1.0  0.40026  0.55445  0.25742  1.0000
  H   H128      1.0  0.12791  0.54475  0.12626  1.0000
  H   H129      1.0  0.29849  0.56458  0.26328  1.0000
  H   H130      1.0  0.01973  0.96620  0.18296  1.0000
  H   H131      1.0  0.32262  0.66516  0.13070  1.0000
  H   H132      1.0  0.16046  0.64435  0.24662  1.0000
  H   H133      1.0  0.20353  0.87220  0.23007  1.0000
  N   N5        1.0  0.08356  0.53701  0.22970  1.0000
  H   H134      1.0  0.08411  0.96502  0.11987  1.0000
  C   C76       1.0  0.11889  0.56768  0.26225  1.0000
  H   H135      1.0  0.15342  0.83569  0.16476  1.0000
  N   N6        1.0  0.10619  0.96180  0.22249  1.0000
  H   H136      1.0  0.95401  0.61064  0.30007  1.0000
  S   S26       1.0  0.37831  0.83920  0.31454  1.0000
  H   H137      1.0  0.24094  0.69578  0.10254  1.0000
  H   H138      1.0  0.36823  0.56271  0.07935  1.0000
  H   H139      1.0  0.08912  0.58887  0.30874  1.0000
  S   S27       1.0  0.23177  0.78314  0.36036  1.0000
  H   H140      1.0  0.10331  0.77880  0.39366  1.0000
  C   C77       1.0  0.10566  0.95403  0.35237  1.0000
  C   C78       1.0  0.32023  0.90395  0.48701  1.0000
  C   C79       1.0  0.34304  0.00012  0.50642  1.0000
  C   C80       1.0  0.23846  0.58807  0.40192  1.0000
  C   C81       1.0  0.41824  0.96949  0.48049  1.0000
  S   S28       1.0  0.14727  0.53102  0.43785  1.0000
  Fe  Fe13      1.0  0.04068  0.55716  0.48030  1.0000
  H   H141      1.0  0.98181  0.74802  0.51606  1.0000
  H   H142      1.0  0.06925  0.68090  0.42508  1.0000
  H   H143      1.0  0.18948  0.01208  0.47853  1.0000
  H   H144      1.0  0.24842  0.85904  0.53223  1.0000
  C   C82       1.0  0.35833  0.64876  0.55931  1.0000
  S   S29       1.0  0.42952  0.67319  0.37455  1.0000
  C   C83       1.0  0.12179  0.67015  0.41403  1.0000
  H   H145      1.0  0.32445  0.57778  0.53314  1.0000
  H   H146      1.0  0.27614  0.53481  0.40345  1.0000
  H   H147      1.0  0.36639  0.87710  0.45426  1.0000
  C   C84       1.0  0.20922  0.71249  0.38241  1.0000
  N   N7        1.0  0.29763  0.98215  0.47276  1.0000
  C   C85       1.0  0.25794  0.64360  0.38548  1.0000
  H   H148      1.0  0.29506  0.82646  0.45799  1.0000
  C   C86       1.0  0.30466  0.00720  0.39772  1.0000
  H   H149      1.0  0.04225  0.82486  0.49220  1.0000
  C   C87       1.0  0.17041  0.60128  0.41650  1.0000
  H   H150      1.0  0.31054  0.63310  0.37551  1.0000
  H   H151      1.0  0.22626  0.91005  0.45033  1.0000
  C   C88       1.0  0.00601  0.82906  0.53561  1.0000
  C   C89       1.0  0.14116  0.72562  0.39654  1.0000
  H   H152      1.0  0.34417  0.68480  0.51277  1.0000
  C   C90       1.0  0.26860  0.87523  0.48109  1.0000
  H   H153      1.0  0.33566  0.88430  0.53977  1.0000
  H   H154      1.0  0.08724  0.93055  0.40086  1.0000
  H   H155      1.0  0.25665  0.95696  0.35260  1.0000
  H   H156      1.0  0.14142  0.60089  0.56101  1.0000
  H   H157      1.0  0.35485  0.97405  0.37466  1.0000
  S   S30       1.0  0.94938  0.65482  0.45074  1.0000
  H   H158      1.0  0.16081  0.93270  0.35321  1.0000
  C   C91       1.0  0.97164  0.78585  0.54901  1.0000
  Fe  Fe14      1.0  0.33980  0.75704  0.32422  1.0000
  H   H159      1.0  0.42670  0.99205  0.42738  1.0000
  H   H160      1.0  0.42092  0.52309  0.42664  1.0000
  C   C92       1.0  0.25267  0.00964  0.35377  1.0000
  H   H161      1.0  0.08328  0.01124  0.35234  1.0000
  S   S31       1.0  0.03392  0.93379  0.56051  1.0000
  H   H162      1.0  0.18507  0.65285  0.56213  1.0000
  H   H163      1.0  0.34201  0.98099  0.56180  1.0000
  C   C93       1.0  0.18216  0.75389  0.63620  1.0000
  C   C94       1.0  0.01066  0.72733  0.76381  1.0000
  C   C95       1.0  0.10940  0.65517  0.64882  1.0000
  H   H164      1.0  0.97072  0.77957  0.77189  1.0000
  N   N8        1.0  0.13171  0.67159  0.70758  1.0000
  H   H165      1.0  0.23548  0.64355  0.66664  1.0000
  C   C96       1.0  0.39386  0.55589  0.67961  1.0000
  H   H166      1.0  0.19862  0.00249  0.75349  1.0000
  C   C97       1.0  0.13986  0.85146  0.81280  1.0000
  C   C98       1.0  0.19272  0.68726  0.68810  1.0000
  H   H167      1.0  0.24447  0.82860  0.78752  1.0000
  H   H168      1.0  0.99218  0.70567  0.73015  1.0000
  C   C99       1.0  0.40314  0.61771  0.66893  1.0000
  H   H169      1.0  0.25281  0.54898  0.74132  1.0000
  H   H170      1.0  0.23143  0.94999  0.59736  1.0000
  C   C100      1.0  0.99326  0.87798  0.57823  1.0000
  H   H171      1.0  0.23184  0.75292  0.61467  1.0000
  H   H172      1.0  0.20671  0.57034  0.61615  1.0000
  H   H173      1.0  0.01758  0.69472  0.81446  1.0000
  H   H174      1.0  0.13102  0.84964  0.76227  1.0000
  C   C101      1.0  0.16446  0.61762  0.59497  1.0000
  H   H175      1.0  0.07986  0.62362  0.66738  1.0000
  S   S32       1.0  0.33494  0.87819  0.71086  1.0000
  H   H176      1.0  0.93607  0.92218  0.66668  1.0000
  C   C102      1.0  0.07556  0.73536  0.73288  1.0000
  H   H177      1.0  0.21124  0.69281  0.73385  1.0000
  H   H178      1.0  0.15367  0.75895  0.59350  1.0000
  H   H179      1.0  0.07411  0.70357  0.62004  1.0000
  H   H180      1.0  0.15525  0.80159  0.66066  1.0000
  H   H181      1.0  0.42412  0.62936  0.70709  1.0000
  H   H182      1.0  0.06020  0.78033  0.69134  1.0000
  C   C103      1.0  0.21308  0.00663  0.57847  1.0000
  S   S33       1.0  0.39856  0.74047  0.59231  1.0000
  C   C104      1.0  0.14553  0.61258  0.76604  1.0000
  C   C105      1.0  0.36540  0.54132  0.63073  1.0000
  Fe  Fe15      1.0  0.41461  0.91679  0.70362  1.0000
  Fe  Fe16      1.0  0.41752  0.78077  0.67737  1.0000
  C   C106      1.0  0.38586  0.66389  0.60848  1.0000
  H   H183      1.0  0.06362  0.98786  0.76619  1.0000
  Fe  Fe17      1.0  0.36578  0.82659  0.81556  1.0000
  S   S34       1.0  0.01479  0.55723  0.59194  1.0000
  H   H184      1.0  0.10151  0.59932  0.78065  1.0000
  H   H185      1.0  0.09272  0.75243  0.77215  1.0000
  H   H186      1.0  0.15396  0.62843  0.81171  1.0000
  C   C107      1.0  0.94555  0.88452  0.63369  1.0000
  C   C108      1.0  0.20508  0.54316  0.75483  1.0000
  H   H187      1.0  0.19591  0.51855  0.71678  1.0000
  H   H188      1.0  0.40882  0.51966  0.72564  1.0000
  H   H189      1.0  0.11290  0.01549  0.70259  1.0000
  H   H190      1.0  0.99487  0.01187  0.68306  1.0000
  C   C109      1.0  0.34749  0.58797  0.57067  1.0000
  S   S35       1.0  0.91816  0.31145  0.90859  1.0000
  S   S36       1.0  0.81217  0.21872  0.86500  1.0000
  Fe  Fe18      1.0  0.86838  0.34969  0.00707  1.0000
  H   H191      1.0  0.65837  0.26997  0.00995  1.0000
  C   C110      1.0  0.61073  0.31496  0.87410  1.0000
  H   H192      1.0  0.92173  0.08342  0.88631  1.0000
  H   H193      1.0  0.68474  0.07978  0.92852  1.0000
  C   C111      1.0  0.64979  0.39644  0.89765  1.0000
  H   H194      1.0  0.79146  0.09382  0.02392  1.0000
  C   C112      1.0  0.73000  0.28289  0.87005  1.0000
  C   C113      1.0  0.59693  0.38008  0.89066  1.0000
  C   C114      1.0  0.71652  0.34775  0.88736  1.0000
  Fe  Fe19      1.0  0.45590  0.26482  0.82697  1.0000
  H   H195      1.0  0.75453  0.09462  0.88486  1.0000
  H   H196      1.0  0.45237  0.03866  0.99319  1.0000
  S   S37       1.0  0.81141  0.46178  0.02055  1.0000
  H   H197      1.0  0.57046  0.30044  0.87188  1.0000
  H   H198      1.0  0.57033  0.38883  0.03916  1.0000
  C   C115      1.0  0.72501  0.06417  0.88678  1.0000
  H   H199      1.0  0.70959  0.09620  0.03729  1.0000
  H   H200      1.0  0.59057  0.13096  0.05094  1.0000
  S   S38       1.0  0.51348  0.44040  0.90235  1.0000
  H   H201      1.0  0.72507  0.16839  0.98597  1.0000
  S   S39       1.0  0.80999  0.28538  0.02744  1.0000
  C   C116      1.0  0.73737  0.12915  0.03212  1.0000
  H   H202      1.0  0.63917  0.44649  0.91094  1.0000
  H   H203      1.0  0.44072  0.07067  0.90710  1.0000
  H   H204      1.0  0.52529  0.21624  0.05299  1.0000
  H   H205      1.0  0.68743  0.21665  0.85037  1.0000
  Fe  Fe20      1.0  0.45444  0.39520  0.86430  1.0000
  Fe  Fe21      1.0  0.86684  0.23973  0.93474  1.0000
  H   H206      1.0  0.75748  0.36040  0.89281  1.0000
  C   C117      1.0  0.67714  0.26698  0.86254  1.0000
  S   S40       1.0  0.51789  0.14993  0.82902  1.0000
  H   H207      1.0  0.53913  0.32607  0.03605  1.0000
  H   H208      1.0  0.60417  0.20510  0.00648  1.0000
  C   C118      1.0  0.58069  0.18570  0.05348  1.0000
  C   C119      1.0  0.57096  0.33776  0.06440  1.0000
  C   C120      1.0  0.86983  0.49713  0.01467  1.0000
  C   C121      1.0  0.64422  0.28141  0.06254  1.0000
  H   H209      1.0  0.44343  0.15830  0.99930  1.0000
  H   H210      1.0  0.65892  0.05067  0.83068  1.0000
  H   H211      1.0  0.67654  0.30696  0.06903  1.0000
  C   C122      1.0  0.69134  0.07961  0.82073  1.0000
  H   H212      1.0  0.75095  0.39825  0.18162  1.0000
  C   C123      1.0  0.88748  0.39363  0.31512  1.0000
  H   H213      1.0  0.89517  0.07381  0.07753  1.0000
  H   H214      1.0  0.61287  0.28110  0.19429  1.0000
  H   H215      1.0  0.62198  0.13622  0.14982  1.0000
  C   C124      1.0  0.48518  0.04412  0.18046  1.0000
  H   H216      1.0  0.66588  0.20177  0.28962  1.0000
  C   C125      1.0  0.89524  0.04152  0.12554  1.0000
  H   H217      1.0  0.56024  0.02115  0.09585  1.0000
  H   H218      1.0  0.91765  0.42433  0.30877  1.0000
  H   H219      1.0  0.53927  0.41944  0.20267  1.0000
  H   H220      1.0  0.71951  0.13436  0.24212  1.0000
  C   C126      1.0  0.88103  0.02704  0.24780  1.0000
  C   C127      1.0  0.78973  0.34805  0.20414  1.0000
  H   H221      1.0  0.76550  0.18121  0.09398  1.0000
  H   H222      1.0  0.87074  0.04866  0.29418  1.0000
  C   C128      1.0  0.91275  0.37190  0.19583  1.0000
  C   C129      1.0  0.81844  0.35576  0.26540  1.0000
  S   S41       1.0  0.50526  0.10810  0.19964  1.0000
  C   C130      1.0  0.66919  0.17885  0.24381  1.0000
  H   H223      1.0  0.79068  0.47708  0.17759  1.0000
  N   N9        1.0  0.65782  0.21630  0.11396  1.0000
  C   C131      1.0  0.48686  0.45079  0.21631  1.0000
  S   S42       1.0  0.86986  0.15527  0.18466  1.0000
  H   H224      1.0  0.54714  0.34472  0.11613  1.0000
  C   C132      1.0  0.60439  0.18957  0.12022  1.0000
  N   N10       1.0  0.85747  0.40030  0.25056  1.0000
  H   H225      1.0  0.76275  0.49208  0.26097  1.0000
  H   H226      1.0  0.76510  0.31178  0.22171  1.0000
  C   C133      1.0  0.80952  0.47425  0.22653  1.0000
  C   C134      1.0  0.88236  0.06912  0.18584  1.0000
  H   H227      1.0  0.62894  0.16008  0.25197  1.0000
  H   H228      1.0  0.82959  0.32455  0.16449  1.0000
  S   S43       1.0  0.44985  0.26589  0.28648  1.0000
  H   H229      1.0  0.89274  0.39148  0.14493  1.0000
  H   H230      1.0  0.85052  0.30186  0.28902  1.0000
  H   H231      1.0  0.70121  0.25273  0.17883  1.0000
  C   C135      1.0  0.65984  0.23581  0.18132  1.0000
  H   H232      1.0  0.74088  0.11536  0.13824  1.0000
  C   C136      1.0  0.72676  0.16081  0.09725  1.0000
  H   H233      1.0  0.55863  0.22202  0.15043  1.0000
  Fe  Fe22      1.0  0.89638  0.20400  0.08265  1.0000
  C   C137      1.0  0.43750  0.42871  0.20973  1.0000
  H   H234      1.0  0.77462  0.37669  0.30271  1.0000
  C   C138      1.0  0.46806  0.51395  0.23992  1.0000
  H   H235      1.0  0.93257  0.31397  0.20195  1.0000
  H   H236      1.0  0.45149  0.38069  0.19031  1.0000
  H   H237      1.0  0.68867  0.02249  0.23280  1.0000
  H   H238      1.0  0.64117  0.33107  0.31886  1.0000
  H   H239      1.0  0.58537  0.50833  0.52563  1.0000
  Fe  Fe23      1.0  0.93442  0.15241  0.39231  1.0000
  S   S44       1.0  0.84788  0.07192  0.54483  1.0000
  H   H240      1.0  0.60762  0.47484  0.41744  1.0000
  H   H241      1.0  0.64217  0.07078  0.35628  1.0000
  H   H242      1.0  0.61908  0.31052  0.50268  1.0000
  H   H243      1.0  0.70834  0.14754  0.49834  1.0000
  H   H244      1.0  0.88336  0.30542  0.51302  1.0000
  C   C139      1.0  0.66805  0.14648  0.47534  1.0000
  C   C140      1.0  0.63078  0.10311  0.39524  1.0000
  C   C141      1.0  0.60093  0.18698  0.49598  1.0000
  H   H245      1.0  0.59565  0.04231  0.53322  1.0000
  H   H246      1.0  0.47876  0.37154  0.50350  1.0000
  H   H247      1.0  0.58884  0.21869  0.53554  1.0000
  S   S45       1.0  0.46639  0.24581  0.48047  1.0000
  C   C142      1.0  0.60271  0.36600  0.50851  1.0000
  S   S46       1.0  0.76446  0.05827  0.39421  1.0000
  C   C143      1.0  0.63646  0.35949  0.36102  1.0000
  H   H248      1.0  0.86441  0.41631  0.41868  1.0000
  H   H249      1.0  0.92390  0.33864  0.32932  1.0000
  H   H250      1.0  0.67608  0.32374  0.39520  1.0000
  H   H251      1.0  0.64950  0.37475  0.49710  1.0000
  C   C144      1.0  0.83740  0.41444  0.37769  1.0000
  H   H252      1.0  0.53036  0.41597  0.35711  1.0000
  H   H253      1.0  0.81675  0.37520  0.39809  1.0000
  H   H254      1.0  0.52509  0.14604  0.38848  1.0000
  S   S47       1.0  0.82277  0.20070  0.41685  1.0000
  C   C145      1.0  0.56433  0.14566  0.41373  1.0000
  H   H255      1.0  0.55488  0.33272  0.40834  1.0000
  C   C146      1.0  0.55580  0.48318  0.43910  1.0000
  Fe  Fe24      1.0  0.83215  0.09086  0.43462  1.0000
  C   C147      1.0  0.48085  0.42339  0.48920  1.0000
  C   C148      1.0  0.68244  0.10558  0.42414  1.0000
  C   C149      1.0  0.54931  0.18816  0.46344  1.0000
  H   H256      1.0  0.46699  0.44564  0.53718  1.0000
  N   N11       1.0  0.55063  0.41429  0.45944  1.0000
  Fe  Fe25      1.0  0.84774  0.17832  0.52487  1.0000
  C   C150      1.0  0.56470  0.38058  0.39651  1.0000
  H   H257      1.0  0.79606  0.46684  0.36706  1.0000
  C   C151      1.0  0.88237  0.31367  0.56434  1.0000
  H   H258      1.0  0.52467  0.51616  0.39645  1.0000
  H   H259      1.0  0.52370  0.02755  0.56771  1.0000
  H   H260      1.0  0.64602  0.40590  0.33781  1.0000
  H   H261      1.0  0.72004  0.42757  0.56301  1.0000
  H   H262      1.0  0.67156  0.49817  0.79484  1.0000
  H   H263      1.0  0.77769  0.45638  0.58342  1.0000
  N   N12       1.0  0.73719  0.06239  0.75685  1.0000
  S   S48       1.0  0.79300  0.25301  0.59941  1.0000
  C   C152      1.0  0.83241  0.10353  0.75373  1.0000
  H   H264      1.0  0.60995  0.16511  0.71704  1.0000
  H   H265      1.0  0.63428  0.48420  0.64733  1.0000
  S   S49       1.0  0.48607  0.34809  0.76805  1.0000
  H   H266      1.0  0.81207  0.28497  0.72316  1.0000
  C   C153      1.0  0.91853  0.34876  0.57834  1.0000
  C   C154      1.0  0.64231  0.13564  0.67619  1.0000
  H   H267      1.0  0.66545  0.16804  0.64210  1.0000
  C   C155      1.0  0.91761  0.35901  0.64495  1.0000
  H   H268      1.0  0.65569  0.13568  0.81506  1.0000
  C   C156      1.0  0.69599  0.06323  0.70352  1.0000
  C   C157      1.0  0.76451  0.11686  0.73022  1.0000
  H   H269      1.0  0.87419  0.05992  0.73088  1.0000
  C   C158      1.0  0.84315  0.29150  0.61649  1.0000
  C   C159      1.0  0.51381  0.04283  0.78025  1.0000
  H   H270      1.0  0.77330  0.12261  0.67392  1.0000
  H   H271      1.0  0.88041  0.34106  0.74894  1.0000
  C   C160      1.0  0.58192  0.36865  0.58498  1.0000
  H   H272      1.0  0.72940  0.04131  0.65868  1.0000
  H   H273      1.0  0.77711  0.46068  0.73186  1.0000
  C   C161      1.0  0.68555  0.47766  0.65364  1.0000
  H   H274      1.0  0.66862  0.02968  0.72320  1.0000
  H   H275      1.0  0.62694  0.33622  0.61392  1.0000
  H   H276      1.0  0.60874  0.12845  0.64588  1.0000
  H   H277      1.0  0.56115  0.42193  0.59821  1.0000
  H   H278      1.0  0.84204  0.15089  0.73592  1.0000
  C   C162      1.0  0.88081  0.33395  0.69726  1.0000
  H   H279      1.0  0.72743  0.16960  0.74121  1.0000
  C   C163      1.0  0.49284  0.11509  0.77281  1.0000
  H   H280      1.0  0.54478  0.34591  0.60291  1.0000
  H   H281      1.0  0.70816  0.42605  0.68636  1.0000
  C   C164      1.0  0.84229  0.30198  0.68278  1.0000
  C   C165      1.0  0.43954  0.05893  0.69594  1.0000
  C   C166      1.0  0.44941  0.15875  0.72310  1.0000
  C   C167      1.0  0.75593  0.51430  0.70260  1.0000
  H   H282      1.0  0.83368  0.09258  0.80924  1.0000
  H   H283      1.0  0.78951  0.51220  0.65530  1.0000
  H   H284      1.0  0.43555  0.21428  0.71482  1.0000
  H   H285      1.0  0.58672  0.47510  0.75754  1.0000
  C   C168      1.0  0.72340  0.47061  0.58250  1.0000
  H   H286      1.0  0.69158  0.54174  0.92472  1.0000
  H   H287      1.0  0.59598  0.91327  0.91097  1.0000
  H   H288      1.0  0.67915  0.58677  0.03057  1.0000
  H   H289      1.0  0.55940  0.85673  0.84057  1.0000
  C   C169      1.0  0.62942  0.86204  0.89843  1.0000
  C   C170      1.0  0.65150  0.76345  0.84259  1.0000
  C   C171      1.0  0.60858  0.82981  0.85873  1.0000
  H   H290      1.0  0.79437  0.60278  0.01229  1.0000
  S   S50       1.0  0.71578  0.87053  0.97368  1.0000
  C   C172      1.0  0.73763  0.76293  0.90459  1.0000
  H   H291      1.0  0.78744  0.73669  0.92254  1.0000
  H   H292      1.0  0.60561  0.75108  0.01962  1.0000
  C   C173      1.0  0.71663  0.73046  0.86472  1.0000
  H   H293      1.0  0.66604  0.65123  0.95763  1.0000
  C   C174      1.0  0.64254  0.61929  0.99212  1.0000
  H   H294      1.0  0.63168  0.52446  0.98555  1.0000
  N   N13       1.0  0.57632  0.66596  0.02513  1.0000
  H   H295      1.0  0.75053  0.67925  0.85214  1.0000
  S   S51       1.0  0.91034  0.76912  0.91967  1.0000
  H   H296      1.0  0.60494  0.59189  0.91150  1.0000
  H   H297      1.0  0.73492  0.93807  0.83396  1.0000
  Fe  Fe26      1.0  0.82494  0.82605  0.99128  1.0000
  C   C175      1.0  0.64094  0.56706  0.95127  1.0000
  C   C176      1.0  0.69352  0.82859  0.92200  1.0000
  C   C177      1.0  0.46353  0.76942  0.99515  1.0000
  H   H298      1.0  0.52199  0.56985  0.01109  1.0000
  H   H299      1.0  0.47323  0.81504  0.99852  1.0000
  C   C178      1.0  0.89379  0.59679  0.01269  1.0000
  H   H300      1.0  0.51396  0.67796  0.94589  1.0000
  H   H301      1.0  0.55407  0.73457  0.92970  1.0000
  H   H302      1.0  0.44098  0.75352  0.04489  1.0000
  C   C179      1.0  0.50049  0.59792  0.05534  1.0000
  C   C180      1.0  0.52878  0.70985  0.97111  1.0000
  S   S52       1.0  0.86606  0.90189  0.00063  1.0000
  C   C181      1.0  0.84739  0.56882  0.01335  1.0000
  H   H303      1.0  0.87613  0.65226  0.01068  1.0000
  H   H304      1.0  0.45110  0.64153  0.04396  1.0000
  H   H305      1.0  0.53272  0.93075  0.06649  1.0000
  C   C182      1.0  0.58994  0.71496  0.05853  1.0000
  H   H306      1.0  0.48184  0.94127  0.93467  1.0000
  H   H307      1.0  0.75646  0.00772  0.90106  1.0000
  C   C183      1.0  0.89363  0.95704  0.24985  1.0000
  C   C184      1.0  0.54780  0.62365  0.07854  1.0000
  H   H308      1.0  0.63606  0.63781  0.14722  1.0000
  S   S53       1.0  0.92346  0.84204  0.19165  1.0000
  H   H309      1.0  0.61510  0.91461  0.21410  1.0000
  Fe  Fe27      1.0  0.91853  0.82364  0.08805  1.0000
  H   H310      1.0  0.70933  0.86986  0.12261  1.0000
  H   H311      1.0  0.65183  0.99328  0.17841  1.0000
  C   C185      1.0  0.76052  0.79373  0.28248  1.0000
  C   C186      1.0  0.68643  0.83712  0.15626  1.0000
  S   S54       1.0  0.87035  0.75285  0.08383  1.0000
  H   H312      1.0  0.51842  0.65375  0.12061  1.0000
  H   H313      1.0  0.49031  0.56094  0.09739  1.0000
  C   C187      1.0  0.64374  0.68002  0.11051  1.0000
  C   C188      1.0  0.90839  0.97151  0.12735  1.0000
  H   H314      1.0  0.72312  0.78161  0.16212  1.0000
  S   S55       1.0  0.52878  0.54362  0.24557  1.0000
  C   C189      1.0  0.65802  0.86339  0.22511  1.0000
  H   H315      1.0  0.79493  0.58211  0.21884  1.0000
  H   H316      1.0  0.77878  0.88443  0.18405  1.0000
  N   N14       1.0  0.70777  0.86731  0.26537  1.0000
  C   C190      1.0  0.50543  0.95751  0.10927  1.0000
  H   H317      1.0  0.89275  0.92472  0.29821  1.0000
  H   H318      1.0  0.92127  0.94990  0.08071  1.0000
  H   H319      1.0  0.92290  0.67695  0.22976  1.0000
  H   H320      1.0  0.72709  0.00197  0.14970  1.0000
  H   H321      1.0  0.64077  0.71986  0.13986  1.0000
  H   H322      1.0  0.60002  0.99989  0.29086  1.0000
  H   H323      1.0  0.58910  0.57677  0.10331  1.0000
  C   C191      1.0  0.74335  0.91066  0.22582  1.0000
  H   H324      1.0  0.69524  0.65946  0.08489  1.0000
  H   H325      1.0  0.64454  0.84070  0.12970  1.0000
  H   H326      1.0  0.63462  0.82901  0.25546  1.0000
  C   C192      1.0  0.90737  0.92930  0.18946  1.0000
  H   H327      1.0  0.73634  0.75737  0.30345  1.0000
  H   H328      1.0  0.54344  0.74907  0.08641  1.0000
  C   C193      1.0  0.69942  0.98628  0.19589  1.0000
  H   H329      1.0  0.79208  0.77373  0.23619  1.0000
  H   H330      1.0  0.77704  0.91508  0.25825  1.0000
  S   S56       1.0  0.52114  0.72688  0.25298  1.0000
  Fe  Fe28      1.0  0.47238  0.65302  0.26884  1.0000
  C   C194      1.0  0.45435  0.94156  0.14739  1.0000
  C   C195      1.0  0.52092  0.00868  0.12585  1.0000
  H   H331      1.0  0.86107  0.53351  0.16024  1.0000
  C   C196      1.0  0.83712  0.53051  0.21272  1.0000
  H   H332      1.0  0.84064  0.81388  0.31491  1.0000
  H   H333      1.0  0.87284  0.52339  0.24889  1.0000
  H   H334      1.0  0.56436  0.93695  0.31983  1.0000
  S   S57       1.0  0.52823  0.77033  0.42788  1.0000
  H   H335      1.0  0.78514  0.79569  0.38427  1.0000
  H   H336      1.0  0.72208  0.58341  0.33203  1.0000
  H   H337      1.0  0.66709  0.85154  0.36913  1.0000
  C   C197      1.0  0.60218  0.95458  0.32892  1.0000
  H   H338      1.0  0.82498  0.84619  0.49704  1.0000
  C   C198      1.0  0.79935  0.90008  0.50925  1.0000
  H   H339      1.0  0.52868  0.58257  0.47314  1.0000
  C   C199      1.0  0.61362  0.71396  0.41920  1.0000
  H   H340      1.0  0.76507  0.69077  0.46316  1.0000
  C   C200      1.0  0.65997  0.72356  0.45075  1.0000
  C   C201      1.0  0.72918  0.68234  0.43979  1.0000
  Fe  Fe29      1.0  0.47197  0.75304  0.35552  1.0000
  C   C202      1.0  0.71371  0.82002  0.55314  1.0000
  H   H341      1.0  0.84648  0.72762  0.34086  1.0000
  C   C203      1.0  0.75175  0.63246  0.39593  1.0000
  C   C204      1.0  0.72179  0.93061  0.51201  1.0000
  H   H342      1.0  0.70316  0.81957  0.50125  1.0000
  C   C205      1.0  0.67325  0.89420  0.33117  1.0000
  Fe  Fe30      1.0  0.92044  0.65014  0.56285  1.0000
  H   H343      1.0  0.64162  0.76369  0.48269  1.0000
  H   H344      1.0  0.81584  0.90405  0.55644  1.0000
  H   H345      1.0  0.60056  0.65097  0.35732  1.0000
  C   C206      1.0  0.61336  0.93111  0.55793  1.0000
  C   C207      1.0  0.70514  0.62188  0.36571  1.0000
  Fe  Fe31      1.0  0.89978  0.58280  0.45462  1.0000
  C   C208      1.0  0.63616  0.66132  0.37874  1.0000
  C   C209      1.0  0.81039  0.78343  0.33359  1.0000
  S   S58       1.0  0.83779  0.58514  0.37600  1.0000
  C   C210      1.0  0.54104  0.52741  0.49590  1.0000
  H   H346      1.0  0.70805  0.93242  0.46084  1.0000
  H   H347      1.0  0.70453  0.98585  0.51887  1.0000
  H   H348      1.0  0.58639  0.97343  0.37889  1.0000
  S   S59       1.0  0.86255  0.58657  0.56409  1.0000
  H   H349      1.0  0.81846  0.93084  0.46816  1.0000
  H   H350      1.0  0.60335  0.93106  0.50556  1.0000
  H   H351      1.0  0.70482  0.91182  0.35351  1.0000
  N   N15       1.0  0.68795  0.89420  0.56631  1.0000
  H   H352      1.0  0.44639  0.98306  0.51186  1.0000
  H   H353      1.0  0.49623  0.52979  0.53017  1.0000
  H   H354      1.0  0.44050  0.91169  0.48554  1.0000
  H   H355      1.0  0.58952  0.66802  0.56658  1.0000
  H   H356      1.0  0.76891  0.79277  0.55407  1.0000
  H   H357      1.0  0.70083  0.51869  0.54570  1.0000
  C   C211      1.0  0.66151  0.88273  0.69773  1.0000
  H   H358      1.0  0.82045  0.54047  0.75170  1.0000
  H   H359      1.0  0.81776  0.88110  0.80582  1.0000
  H   H360      1.0  0.65671  0.64580  0.67089  1.0000
  C   C212      1.0  0.76623  0.56234  0.74297  1.0000
  H   H361      1.0  0.62285  0.86674  0.68882  1.0000
  H   H362      1.0  0.50235  0.95918  0.74875  1.0000
  C   C213      1.0  0.59099  0.63233  0.61495  1.0000
  H   H363      1.0  0.58489  0.90367  0.59073  1.0000
  S   S60       1.0  0.62367  0.72049  0.79677  1.0000
  Fe  Fe32      1.0  0.51577  0.77767  0.76962  1.0000
  S   S61       1.0  0.88161  0.73791  0.62412  1.0000
  H   H364      1.0  0.82696  0.98622  0.80589  1.0000
  C   C214      1.0  0.66048  0.60461  0.64279  1.0000
  N   N16       1.0  0.68444  0.53468  0.68755  1.0000
  H   H365      1.0  0.87537  0.84553  0.69082  1.0000
  C   C215      1.0  0.79401  0.99049  0.76747  1.0000
  C   C216      1.0  0.70564  0.89691  0.63435  1.0000
  H   H366      1.0  0.82734  0.97997  0.71981  1.0000
  H   H367      1.0  0.75310  0.61570  0.71465  1.0000
  H   H368      1.0  0.69800  0.60584  0.59933  1.0000
  H   H369      1.0  0.73813  0.56512  0.79367  1.0000
  C   C217      1.0  0.91155  0.84116  0.64735  1.0000
  H   H370      1.0  0.71018  0.71963  0.58575  1.0000
  H   H371      1.0  0.70422  0.94901  0.63510  1.0000
  S   S62       1.0  0.44446  0.72639  0.78267  1.0000
  C   C218      1.0  0.92510  0.79126  0.60554  1.0000
  H   H372      1.0  0.75863  0.85931  0.64252  1.0000
  C   C219      1.0  0.77299  0.92950  0.79007  1.0000
  H   H373      1.0  0.70622  0.76099  0.65448  1.0000
  S   S63       1.0  0.49499  0.82400  0.66144  1.0000
  H   H374      1.0  0.54452  0.56362  0.71599  1.0000
  H   H375      1.0  0.55017  0.66208  0.65110  1.0000
  C   C220      1.0  0.57631  0.53050  0.75742  1.0000
  H   H376      1.0  0.62858  0.58972  0.77211  1.0000
  H   H377      1.0  0.75399  0.91939  0.74785  1.0000
  H   H378      1.0  0.69462  0.84033  0.73430  1.0000
  H   H379      1.0  0.54617  0.54572  0.80568  1.0000
  H   H380      1.0  0.63302  0.78976  0.60658  1.0000
  H   H381      1.0  0.63603  0.92929  0.72410  1.0000
  C   C221      1.0  0.68821  0.77122  0.60350  1.0000
  H   H382      1.0  0.58559  0.01288  0.62287  1.0000
  S   S64       1.0  0.43881  0.87319  0.81119  1.0000
  C   C222      1.0  0.48692  0.01479  0.74203  1.0000
  H   H383      1.0  0.54863  0.00880  0.81759  1.0000
  H   H384      1.0  0.57964  0.59146  0.60176  1.0000
  C   C223      1.0  0.64222  0.53911  0.75451  1.0000
  C   C224      1.0  0.57869  0.00755  0.57149  1.0000
