data_image0
_chemical_formula_structural       C2S2HCFeS2H4CHFeS2H2CFeSCFeSNHSCH7C2HC2HFeH3C4H3C6H4C6H11CSCFeC2HNHCH2CHCHCH2C2H10CH2C2HFeHCHC3H2CSC2H2SCSHCHSCH4NHCHC2HFeH6SH4C3SH2SH2CH3CHCS2CSHCH3FeCSCFeHSNH3FeHSFeS2FeS2FeSFeS3FeS2CH2FeSFeSCFeS2FeS2FeSFeS3H2SCHSHCFeH2FeS2FeS2FeSFeS3HCHSHSHSFeS2FeS2FeSFeS3FeHNFeS2H3S2FeSFeSCSC4H2CFeSFeHCHC6H4C6H4C6H4C6H5C5H4C6H4C6H4C6H8C7H4C6H4C6H4C6H5CH3CFeHC8H3C7H5NC5H12CHCH3C3H5CH6CNC8H20NC7H18CH2CHCH4SCH4NH3CHCH4SNC6H14C2H6CH4NHFeCHC2H5CSFeH3CH6CSH2CH4C4H8C2HCHCH2SCH2FeH5NSCHCH2CH2SCH4CH9SC2SHCHCHCH2SHCHCH3CHCHFeH3C2HCS2H3CHCH7CHCNHNCH2FeHCH6CHC3H4C2NH3CNCHCH4C2H6CHC4H2C4H2NHCSH2CH2C3HCHCH4CFeH3CH3CH4CSFeH2C2HSHFeCNC3H2CH2NH2CH2C2H3CH3C2H9CH2CHCH3CH6CH2C3HCHFeHSC3H3CHSH2CHCHSCSCH2C2SHCHCH5SHFeCHCH2CHSH3CH3C3H2FeH3CNHNSFeC2H3FeCHSHSCH2C4HNCH5C3H3CH3SH2NHC2HCSCH3SHCHCHCHCH4C4H3CHCH7CH2SHCH3CHSH3SH8FeCNH3FeHCNH8C3HSH2SCFeSC2HFeH2CS2H3CH5SC2H2SCH2SHCHCHCHC2H3C3H2C4H2C2SHCHNHC2H6CHCH4CNSHCH3CH3CH2CHSCH3CHCH4CHCHCFeHFeH11C2NHFeS2FeSCFeSFeS3FeS2FeS2FeHFeS3C6H6C4H4CH3C4H2C4H6C4HCH2C4H3C2H2C2H2CH7SH3CH3NH4C2HCH2CH4CH3CH2CHNHCH2NHC2H4C3H4SH2C4H3SH4C4HCH5CH2CH6CH6C2SCH4CHC3H5CH2FeS2FeS3HFeSHFeS2FeS2FeSFeS3FeS2FeS2FeSFeS3FeS2FeS2FeS2FeS2FeHFeS3FeS2FeS2FeSFeS3FeS2FeHSCFeS2FeS2FeSFeS3HC2HCHCH3CFeS2FeS2FeSFeS3C6H3CHC4H4C6H4C3HCH7C8H4C6H4C6H4C6H4C6H4C6H4C6H4C6H4C6HNH3SC3HCSH2C6H4C5H5C6H4C6H6SCH4SCH2CH3CHCHCHCH4CHNC8H25CH6CH2CH3CHCHCSH3NC3H11NC8H17CHCHFeCH4C2H2SCFeC2H2CH5SH2NCNCH2CSHCH7CH2CH9CH6C2SH2SH2CHCH2CH2NC3H4CH4C2H3C2H8CHC3H4CNH4CHCH3C2H2CH4NHC2H5CH2CH2CH2C3H2FeC4H2CH2CH3CHCH3SCH6CNHNHCH3CHSC2HSH7C2FeH5CSNFeCH3FeHCH3CH4CH3CH4CHC3HCHCH2FeCHSHCH2C2H6CNC2H6CH3CH5CHC3H2SH2CHC2HC2HSNCH6CHCH3CFeHCHCHC2HCH3NCH6CHC2H4SC2H4C2H6NHCH2CHCH2CHC2H3CHCH2CHCSHCH2CH3SH2FeHCH3C3H4C3NCH2C2H2NHFeHCHCH2C2H2CHCHCNH4C2H5NH3CH2CH4S2H2SH2CH2CH3FeH2SH4C2H2CH2CHFeSC3HC3H3NCH3C2FeH2CFeH3CHCHCH6CSHCH5CH8CHC2NH2SH2CH5C2H2FeH3CH2C3SH3C2HCHFeS2FeS2FeSFeS3HFeS2FeS2FeS2FeS2FeSFeS2FeS2FeSHFeCFeS3C2HNCHFeSHC2HFeS2FeS2FeSFeS3H5SH4SFeH3CHC3HC2NHCFeSHCH3C2H2C2FeC6H4C7H6NCH2C6H4CH5CSH2C3H2C6H6CHSCH4C6H4C6H4C6H4C6H9SH4NC7H14NC8H20CH2SHNH7NHCSCH3C2H2CH7CHCHCH2FeH2CHC4H5C2H4SH2C3H8SHCSNC8H23CH2CH4NHCHNH5CFeH5FeCH2CSCH4C2H2C2HCHCHCH3FeHCHSCNCH3C3HCHCSC3H3CH5CH2CH7C2HNHCHCHCH2C2HFeC3H2C2H2C4HCHNH3C2HC2H3C2H2C2H4SH5SH2CH5C2HCSH3CH2CNH2C2H4C2S2HSH2SC2H2SHCHC2H3CHSH3CH2SCHC3HSH2CH2CH3NHNHCHC2HCHSHCH2FeH2SH2SH6C3FeC2HCH3FeCHFe2H4CHCHC2H4SHCH3CHC2NFeH3SH2C3H4CSHCFeH5CHCH2SHCHCFeH2CS3FeSHC4H5FeSH2FeS2FeS2FeSFeS3H5CH5CFeS2FeS2FeSFeS3H2CH2SH3CHCS3HCHSCFeSH2SHC6H5CHNCH2SH2C6H4C6H4C2HCHSFeHFeSNHCHC6H4C6H7CH4CHC5H2C6H4C7H4CHC6SH7FeH3CH2CH3CHCH3CH9CH2FeHNH3CHC2H5C3H2S2HCH2C2NCNHC5SCHCH3SH9C2H3NC8H17NC8H18CH4C2HFeNFeCFeC2H6CHCH2C2H3SH3NCH2FeH6SCS2CSH2C2HCH5CH4CH3SH4SHCHC2H4CH6Fe2HCSH3CH5SCHC2HCFeNHC3NH5SH2CHCHC2HSCH2CHSCHCHNHFeHSH2CH2C2H3CH2CHCH5C2H4FeS2FeHSFeSH2S2FeSCFeS2FeCFeSCSFeS2FeS2Fe2S3FeSFeS2FeSFeS3FeS2FeS2FeSFeS3H3FeS2H2SCSHSFeS2FeSFeS2FeS2HSCH2FeSCSC2HCHC6H5C5H3CHC6H4C6H4C6H4C6H4C6H2CHC6H4C6H8C3FeHCH3C7H4C6H7SC2H4FeHCNSH4CHNC8H20CSH10NC2HC3H7CN2H4CH4CH3FeH3CH3C2HFeNC2HSC2HNH3CH9CHC2H3C2H2CHC3HCNH4CHC2H4CH6CHCH12NH2CH2CH3C2NC8H20NC5H12CH2CHCH2SH2SCH4C2NH7SCNC8H17CSH6CHCHFeCSHCFeHCH2SNH2CHNH3CH3SH3CH3CHCSH4SCHC2HCH3C2H4C2H2FeH5C2HC3H3C2H2CH3C2H6CHCHSH2CH2CNH2C2H3CH3C2H5CHCNH4CH3CH3CHCHCHCH2NCSH2CHSCHFeHSH2CNHFeS2FeS2FeHFeS3FeS2FeSHFeSFeS2HFeS2FeS2FeSFeS3FeS2FeS2FeSFeS3HCFeSH3S2CH3CHCH4CFeC2H2CHC6H4C6H4C6H5CHCHCH2C7H4C6H7C2H3CHNH2SH3C6H5SC4H4CHC3H3C3H5SHCHSCFeH3C8H7NC8H22SCH5S2HC2H3SHCHC2HCHC3H4CH2C3SCH6CHSC2H6CHCH3CHNC8H20CH2SCH3CH2CHSC3HCHNFeCHFeHCHC3H4CHCSHCH5CH2SH2SHNCH2CH5FeH3CHFeC2H4CH3SHCHC2H5CHC2NHC2HCHCSH3CH2CH3C2H8C4HC2HCHC2HC3H4CH3CHCH3C2H2NH2CH2SHSCH3CH2NH6C2HC2HCH8CHC2NH5C2H3CH5SHCH8C4H5CH3CNCH3CH2CFeH2C2H2NH3C2H2CHCHC2HFeHCH3SCH3CHFeS2CSHFeHFeSHSHS2FeS2FeS2FeS2FeSFeS3FeS2FeS2FeSFeS3FeSNFeS2FeHFeS3Fe2S2FeS3FeS2FeS2FeSFeS3FeS2FeS2FeSFeS3HFeS2FeS2HFeS3FeSHFeS2FeSFeS3CHC3H4C7H6C2H4C2HC2H6CH2C2H4C7H4C6H4C6H5C6H4C6H4CHC7SH2C6H4C6H4C6H4C2H2C6H6CH2CHFeH2C6H4C6H5CH2NH5C2NC2H2NC7H17NC8H8C2H9CH4CH5CH2C3HCH2SNH7NC8H20NC4H12NC8H20NC8H11CHCHSH6SHCH2C2HCHCHC3H3CH4SCH3CHCHNC2H2C2H6CH2CFeH4CHFeC3HCHCH10CHCN2CH10C3H3CH2C3HNH2CH3NHC2HC2HC2H2CHCH5CH2NCHCHSHCHCSH3CHCH4C2H3CH2NHC2H2FeH6SH3CH3CH4C2HCH6CH2NH3C3H2C3HCHCH2CH4C2H2CHC2H2CH9CFeHCHSH2CHCH2CH2CHC2FeCH2CHCHSH4CNC2H7CHCH6CHCH5C2H4CH2SH2SH2CH4C2FeHSHC5NH2CHCH3FeHCH2C2H4CH2NHCHCH5SCHCHS2C2H5C2H3C2H2C2H4CSC3HSHC2HNHC2HCH2CH3CH4CH3CHC2H3CHNSH3CHCFeCHCH2C2H4CH8NH5CH11SH2C5H4CH2SCHC2HNCHC3H3CHSHCH2SCHSC2H2SHCFeHSH2FeCH3CSHCH2NC2HFeSCSHC4H7FeNCHC3H4CHCHC2H3C2H3CH2C3H5FeH2CH2C3H4SH4CSH3CHCH3C3SHC2H4NH2NCSFeHFeS2HSFeSCSH3FeS2HCHCH3C4H5CH3CHCHCH2CH4CH4CSCNC2H2CH3CHC3FeH2CH2CHCHCH2CHC2HSHC5H2C2H5SH2SCHCH8S2FeH4CHSHFeCH2CHC2HC2FeH3CH2CSH2FeHSC2H2CH5CH2NHC2HCHCH2CH2SC2HC4FeH2FeSCFeS2FeHFeS3CHCH5CHFeS2CHCSCFeSHSCHFeCHCHCH3CH3NCHCSCHCHCH2CH5CNC2HC2HC2H3C3HC2H6CH4CH3C2H7CHCH2NCH7CH5SHCHC4SH3SH2SCH3CSFeS2FeS2FeSFeS3FeS2H2C2HFeS3FeS2FeS2FeSFeS3FeS2FeS2FeHFeS3FeS2FeS2FeSFeS3HFeS2FeS2FeSFeS3CH3CHC5H3FeC2HSH2CHC2HCH3FeC6H4C6H4C6H4CH2C2H4CH3CH2CH2SH2C3H4C6H6CH2C6H9C6H4C6H6C2HC6H5NH2CH4C2H3SH3CHC2HC2H2C3HSCH2CHNHC3FeC5H4CH4C4H7C3H4CSHCHCHCHCH3NC2H5CHCH3C2NC3H7CH6CH2CHCHC3H2NFeH2CHNH8C3H3CH3CH5C3H2CNC3H2C2H2CH3NFeHC2HCH7C2H2CH5CH2C2FeH3C2H3CHC2H2S2HCSHCHSH5FeHC4Fe2HCSH7SCH2CH3CH4CH2CH3C2SHCHC2H3CFeHCH2C3H4NCH2CH4CH3NH2C2H2C2H2CHCH3CH3FeHCHCH2CHCSNHCH4CHC2HC2HCHCH3C3HFeH2SH2SHC2HCH3CSH2C2H2CH2SHCH5CH4FeHCFeHSC2HC2H3CH4SFeH4CSCFeHC3H4SH2C3HFeSC3HCH8CNS2CNH2CH2CNHC3NHNCH2CH2SCSHCH3FeH4CH3FeH2SH6CH2C2H2CSH6C2NCH2C2H2NH2SCHCH7C4NH11CH3CHCH10SH4CH4CHCH8CHS2HC2HSNC3H2NH2CHCFeH2CH4CHFeH2C2H2CH6SH2C3H2CH3CH4CH3CHCH3C3H2CH2CSH2CHC3SHC3FeH2SCNHSH2C2H3CH2CHCHC2H2SCHCH7CHCH5SHC2SHSH2
_chemical_formula_sum              "C2352 S672 H4032 Fe336 N168"
_cell_length_a       145.096
_cell_length_b       144.285
_cell_length_c       35.6582
_cell_angle_alpha    74.8893
_cell_angle_beta     74.8315
_cell_angle_gamma    99.3154

_space_group_name_H-M_alt    "P 1"
_space_group_IT_number       1

loop_
  _space_group_symop_operation_xyz
  'x, y, z'

loop_
  _atom_site_type_symbol
  _atom_site_label
  _atom_site_symmetry_multiplicity
  _atom_site_fract_x
  _atom_site_fract_y
  _atom_site_fract_z
  _atom_site_occupancy
  C   C1        1.0  0.05711  0.47621  0.09159  1.0000
  C   C2        1.0  0.01103  0.45806  0.49327  1.0000
  S   S1        1.0  0.05315  0.48463  0.85899  1.0000
  S   S2        1.0  0.08140  0.48527  0.87345  1.0000
  H   H1        1.0  0.05298  0.49812  0.77475  1.0000
  C   C3        1.0  0.07590  0.47575  0.17319  1.0000
  Fe  Fe1       1.0  0.01837  0.45506  0.33081  1.0000
  S   S3        1.0  0.01641  0.46349  0.37556  1.0000
  S   S4        1.0  0.03325  0.45209  0.30624  1.0000
  H   H2        1.0  0.04496  0.49388  0.19319  1.0000
  H   H3        1.0  0.01803  0.49273  0.63521  1.0000
  H   H4        1.0  0.00885  0.48081  0.53778  1.0000
  H   H5        1.0  0.07361  0.49026  0.14930  1.0000
  C   C4        1.0  0.12163  0.49074  0.86981  1.0000
  H   H6        1.0  0.06946  0.47437  0.11100  1.0000
  Fe  Fe2       1.0  0.02109  0.46170  0.73023  1.0000
  S   S5        1.0  0.01945  0.47238  0.67550  1.0000
  S   S6        1.0  0.03612  0.46491  0.74083  1.0000
  H   H7        1.0  0.00560  0.49733  0.58988  1.0000
  H   H8        1.0  0.12044  0.47249  0.91718  1.0000
  C   C5        1.0  0.11638  0.47235  0.89478  1.0000
  Fe  Fe3       1.0  0.01268  0.45930  0.66010  1.0000
  S   S7        1.0  0.01837  0.46213  0.59104  1.0000
  C   C6        1.0  0.09015  0.49398  0.07223  1.0000
  Fe  Fe4       1.0  0.07958  0.49040  0.92914  1.0000
  S   S8        1.0  0.01541  0.44846  0.71218  1.0000
  N   N1        1.0  0.11306  0.48177  0.88350  1.0000
  H   H9        1.0  0.05076  0.47680  0.38441  1.0000
  S   S9        1.0  0.06547  0.49454  0.92654  1.0000
  C   C7        1.0  0.01410  0.48852  0.74296  1.0000
  H   H10       1.0  0.12216  0.46181  0.86725  1.0000
  H   H11       1.0  0.09647  0.47414  0.83472  1.0000
  H   H12       1.0  0.11540  0.48978  0.94843  1.0000
  H   H13       1.0  0.13113  0.47331  0.85481  1.0000
  H   H14       1.0  0.01534  0.48141  0.74206  1.0000
  H   H15       1.0  0.04170  0.45867  0.18625  1.0000
  H   H16       1.0  0.09317  0.49168  0.09690  1.0000
  C   C8        1.0  0.00528  0.50485  0.59118  1.0000
  C   C9        1.0  0.12329  0.46997  0.85951  1.0000
  H   H17       1.0  0.04008  0.50289  0.84413  1.0000
  C   C10       1.0  0.01218  0.45722  0.56119  1.0000
  C   C11       1.0  0.01573  0.46161  0.51840  1.0000
  H   H18       1.0  0.06909  0.48697  0.09222  1.0000
  Fe  Fe5       1.0  0.08315  0.49420  0.24271  1.0000
  H   H19       1.0  0.07956  0.50234  0.98308  1.0000
  H   H20       1.0  0.02206  0.46792  0.50471  1.0000
  H   H21       1.0  0.03935  0.50280  0.57760  1.0000
  C   C12       1.0  0.05058  0.50483  0.76147  1.0000
  C   C13       1.0  0.02146  0.49069  0.36630  1.0000
  C   C14       1.0  0.02524  0.49591  0.38947  1.0000
  C   C15       1.0  0.06452  0.47948  0.11244  1.0000
  H   H22       1.0  0.11899  0.49718  0.87599  1.0000
  H   H23       1.0  0.02476  0.48501  0.35796  1.0000
  H   H24       1.0  0.03139  0.49419  0.39929  1.0000
  C   C16       1.0  0.04866  0.47927  0.82522  1.0000
  C   C17       1.0  0.05478  0.47650  0.79486  1.0000
  C   C18       1.0  0.05081  0.47221  0.76928  1.0000
  C   C19       1.0  0.04070  0.47071  0.77324  1.0000
  C   C20       1.0  0.03463  0.47372  0.80294  1.0000
  C   C21       1.0  0.03858  0.47792  0.82878  1.0000
  H   H25       1.0  0.06253  0.47751  0.79147  1.0000
  H   H26       1.0  0.05559  0.46993  0.74643  1.0000
  H   H27       1.0  0.02686  0.47266  0.80640  1.0000
  H   H28       1.0  0.03377  0.48011  0.85185  1.0000
  C   C22       1.0  0.06367  0.47166  0.28495  1.0000
  C   C23       1.0  0.05553  0.47589  0.28876  1.0000
  C   C24       1.0  0.04602  0.46998  0.29628  1.0000
  C   C25       1.0  0.04471  0.45992  0.29923  1.0000
  C   C26       1.0  0.05288  0.45584  0.29496  1.0000
  C   C27       1.0  0.06224  0.46161  0.28840  1.0000
  H   H29       1.0  0.05653  0.48361  0.28690  1.0000
  H   H30       1.0  0.03974  0.47321  0.29948  1.0000
  H   H31       1.0  0.05197  0.44810  0.29704  1.0000
  H   H32       1.0  0.05313  0.46830  0.10686  1.0000
  H   H33       1.0  0.05375  0.46220  0.36999  1.0000
  H   H34       1.0  0.03922  0.47998  0.39256  1.0000
  H   H35       1.0  0.05796  0.46372  0.17683  1.0000
  H   H36       1.0  0.00752  0.50354  0.64914  1.0000
  H   H37       1.0  0.05785  0.50475  0.69862  1.0000
  H   H38       1.0  0.05484  0.44523  0.38338  1.0000
  H   H39       1.0  0.09003  0.48048  0.05635  1.0000
  C   C28       1.0  0.10950  0.48295  0.95711  1.0000
  S   S10       1.0  0.08243  0.48278  0.98774  1.0000
  C   C29       1.0  0.08821  0.50336  0.06264  1.0000
  Fe  Fe6       1.0  0.00777  0.47091  0.33906  1.0000
  C   C30       1.0  0.02024  0.49446  0.75659  1.0000
  C   C31       1.0  0.05432  0.46955  0.18413  1.0000
  H   H40       1.0  0.03943  0.44003  0.43243  1.0000
  N   N2        1.0  0.04187  0.45570  0.42771  1.0000
  H   H41       1.0  0.04519  0.46162  0.47384  1.0000
  C   C32       1.0  0.01319  0.50564  0.38674  1.0000
  H   H42       1.0  0.05157  0.44804  0.49373  1.0000
  H   H43       1.0  0.05665  0.44459  0.43236  1.0000
  C   C33       1.0  0.04067  0.45487  0.47185  1.0000
  H   H44       1.0  0.13437  0.50066  0.81982  1.0000
  C   C34       1.0  0.04360  0.44612  0.49724  1.0000
  H   H45       1.0  0.03705  0.44754  0.39034  1.0000
  C   C35       1.0  0.04311  0.47461  0.40585  1.0000
  H   H46       1.0  0.03303  0.45481  0.48895  1.0000
  H   H47       1.0  0.04871  0.48638  0.14155  1.0000
  C   C36       1.0  0.05264  0.45822  0.40269  1.0000
  C   C37       1.0  0.05758  0.44956  0.40156  1.0000
  H   H48       1.0  0.02078  0.49592  0.58163  1.0000
  H   H49       1.0  0.06563  0.45264  0.38561  1.0000
  H   H50       1.0  0.02210  0.43587  0.44361  1.0000
  H   H51       1.0  0.05716  0.46345  0.41296  1.0000
  H   H52       1.0  0.05962  0.49493  0.13418  1.0000
  H   H53       1.0  0.04314  0.47550  0.43577  1.0000
  H   H54       1.0  0.12673  0.48939  0.88804  1.0000
  H   H55       1.0  0.02105  0.44823  0.43639  1.0000
  H   H56       1.0  0.03714  0.46417  0.37967  1.0000
  H   H57       1.0  0.13103  0.48884  0.81348  1.0000
  C   C38       1.0  0.03759  0.46407  0.41045  1.0000
  H   H58       1.0  0.03838  0.46652  0.21527  1.0000
  H   H59       1.0  0.05412  0.46899  0.21602  1.0000
  C   C39       1.0  0.08844  0.48769  0.04905  1.0000
  C   C40       1.0  0.05470  0.48760  0.15486  1.0000
  H   H60       1.0  0.04525  0.49826  0.72053  1.0000
  Fe  Fe7       1.0  0.09019  0.50109  0.83865  1.0000
  H   H61       1.0  0.01578  0.48764  0.48467  1.0000
  C   C41       1.0  0.05000  0.48892  0.19666  1.0000
  H   H62       1.0  0.10472  0.48865  0.84695  1.0000
  C   C42       1.0  0.04343  0.46649  0.18589  1.0000
  C   C43       1.0  0.02310  0.49823  0.60576  1.0000
  C   C44       1.0  0.12801  0.49457  0.82423  1.0000
  H   H63       1.0  0.08019  0.47549  0.14302  1.0000
  H   H64       1.0  0.06637  0.48348  0.20084  1.0000
  C   C45       1.0  0.10799  0.48213  0.85134  1.0000
  S   S11       1.0  0.09768  0.49798  0.19214  1.0000
  C   C46       1.0  0.06897  0.48279  0.16974  1.0000
  C   C47       1.0  0.01373  0.49318  0.35239  1.0000
  H   H65       1.0  0.04271  0.50334  0.77947  1.0000
  H   H66       1.0  0.06843  0.45825  0.28603  1.0000
  S   S12       1.0  0.01073  0.46340  0.29124  1.0000
  C   C48       1.0  0.08265  0.50003  0.00741  1.0000
  S   S13       1.0  0.00921  0.48729  0.32129  1.0000
  H   H67       1.0  0.03402  0.48969  0.59386  1.0000
  C   C49       1.0  0.00959  0.50064  0.36274  1.0000
  H   H68       1.0  0.03932  0.44431  0.53015  1.0000
  S   S14       1.0  0.07560  0.47814  0.27987  1.0000
  C   C50       1.0  0.08470  0.49072  0.01646  1.0000
  H   H69       1.0  0.04147  0.47089  0.16019  1.0000
  H   H70       1.0  0.05559  0.49253  0.20784  1.0000
  H   H71       1.0  0.02605  0.49181  0.76650  1.0000
  H   H72       1.0  0.12176  0.47235  0.83017  1.0000
  N   N3        1.0  0.06035  0.47967  0.15559  1.0000
  H   H73       1.0  0.02993  0.46304  0.42986  1.0000
  C   C51       1.0  0.03632  0.44646  0.42324  1.0000
  H   H74       1.0  0.04171  0.43918  0.49020  1.0000
  C   C52       1.0  0.10559  0.48213  0.92140  1.0000
  C   C53       1.0  0.02522  0.44296  0.44773  1.0000
  H   H75       1.0  0.09381  0.47111  0.88878  1.0000
  Fe  Fe8       1.0  0.06788  0.49077  0.86751  1.0000
  H   H76       1.0  0.02379  0.44151  0.48109  1.0000
  H   H77       1.0  0.06128  0.47686  0.05964  1.0000
  H   H78       1.0  0.12388  0.49787  0.80423  1.0000
  H   H79       1.0  0.09933  0.47543  0.93452  1.0000
  H   H80       1.0  0.05188  0.48096  0.08915  1.0000
  H   H81       1.0  0.11318  0.48326  0.82067  1.0000
  S   S15       1.0  0.08828  0.50586  0.26948  1.0000
  H   H82       1.0  0.01360  0.46171  0.46066  1.0000
  H   H83       1.0  0.07193  0.46817  0.19400  1.0000
  H   H84       1.0  0.08139  0.47860  0.18676  1.0000
  H   H85       1.0  0.10999  0.46580  0.91172  1.0000
  C   C54       1.0  0.09984  0.47282  0.85966  1.0000
  C   C55       1.0  0.03353  0.49660  0.60174  1.0000
  C   C56       1.0  0.01056  0.48791  0.51313  1.0000
  S   S16       1.0  0.07608  0.50354  0.20398  1.0000
  H   H86       1.0  0.02289  0.50528  0.66618  1.0000
  H   H87       1.0  0.04556  0.48185  0.22032  1.0000
  S   S17       1.0  0.00611  0.46092  0.77131  1.0000
  H   H88       1.0  0.10285  0.46624  0.85936  1.0000
  H   H89       1.0  0.10224  0.48852  0.91369  1.0000
  C   C57       1.0  0.02118  0.50348  0.39924  1.0000
  H   H90       1.0  0.11201  0.47634  0.97003  1.0000
  H   H91       1.0  0.10338  0.48338  0.98238  1.0000
  H   H92       1.0  0.03501  0.49557  0.63141  1.0000
  C   C58       1.0  0.00640  0.49176  0.73114  1.0000
  H   H93       1.0  0.01460  0.49364  0.52247  1.0000
  C   C59       1.0  0.01880  0.50374  0.75779  1.0000
  S   S18       1.0  0.07694  0.50612  0.82860  1.0000
  S   S19       1.0  0.00468  0.44267  0.36743  1.0000
  C   C60       1.0  0.05062  0.50503  0.71792  1.0000
  S   S20       1.0  0.08917  0.50564  0.89427  1.0000
  H   H94       1.0  0.05759  0.50545  0.82301  1.0000
  C   C61       1.0  0.00504  0.50108  0.73182  1.0000
  H   H95       1.0  0.04176  0.50611  0.97953  1.0000
  H   H96       1.0  0.00494  0.47532  0.48077  1.0000
  H   H97       1.0  0.00431  0.49787  0.47820  1.0000
  Fe  Fe9       1.0  0.00422  0.47072  0.71531  1.0000
  C   C62       1.0  0.00389  0.44919  0.57864  1.0000
  S   S21       1.0  0.10469  0.50691  0.78656  1.0000
  C   C63       1.0  0.08450  0.50636  0.03003  1.0000
  Fe  Fe10      1.0  0.08238  0.51551  0.22594  1.0000
  H   H98       1.0  0.01014  0.51420  0.74516  1.0000
  S   S22       1.0  0.07437  0.52710  0.23650  1.0000
  N   N4        1.0  0.19615  0.66294  0.45488  1.0000
  H   H99       1.0  0.15354  0.63685  0.91740  1.0000
  H   H100      1.0  0.02287  0.52751  0.99779  1.0000
  H   H101      1.0  0.14266  0.60819  0.29543  1.0000
  Fe  Fe11      1.0  0.07523  0.50939  0.88748  1.0000
  H   H102      1.0  0.24582  0.61489  0.97233  1.0000
  S   S23       1.0  0.09651  0.52093  0.17411  1.0000
  Fe  Fe12      1.0  0.15556  0.54205  0.42360  1.0000
  S   S24       1.0  0.16642  0.55659  0.38823  1.0000
  S   S25       1.0  0.15433  0.53426  0.48967  1.0000
  Fe  Fe13      1.0  0.14701  0.54186  0.35167  1.0000
  S   S26       1.0  0.15754  0.55650  0.31104  1.0000
  S   S27       1.0  0.13274  0.53506  0.34117  1.0000
  Fe  Fe14      1.0  0.16910  0.55067  0.33529  1.0000
  S   S28       1.0  0.18502  0.55323  0.29641  1.0000
  Fe  Fe15      1.0  0.15417  0.56118  0.36720  1.0000
  S   S29       1.0  0.15041  0.57558  0.36780  1.0000
  S   S30       1.0  0.15890  0.53551  0.37193  1.0000
  S   S31       1.0  0.14301  0.54713  0.40677  1.0000
  Fe  Fe16      1.0  0.17384  0.61589  0.42644  1.0000
  S   S32       1.0  0.17344  0.62577  0.36728  1.0000
  S   S33       1.0  0.17895  0.60198  0.42718  1.0000
  C   C64       1.0  0.08285  0.53759  0.04292  1.0000
  H   H103      1.0  0.14621  0.61174  0.24113  1.0000
  H   H104      1.0  0.10746  0.55146  0.05283  1.0000
  Fe  Fe17      1.0  0.15850  0.62633  0.40419  1.0000
  S   S34       1.0  0.14574  0.62572  0.37673  1.0000
  Fe  Fe18      1.0  0.02391  0.52581  0.77571  1.0000
  S   S35       1.0  0.15862  0.61573  0.46263  1.0000
  C   C65       1.0  0.10113  0.54524  0.05837  1.0000
  Fe  Fe19      1.0  0.09479  0.56667  0.31532  1.0000
  S   S36       1.0  0.09198  0.57462  0.36160  1.0000
  S   S37       1.0  0.09358  0.55025  0.33598  1.0000
  Fe  Fe20      1.0  0.10001  0.58527  0.24304  1.0000
  S   S38       1.0  0.09748  0.59499  0.28379  1.0000
  S   S39       1.0  0.10623  0.59002  0.17314  1.0000
  Fe  Fe21      1.0  0.10576  0.58638  0.32025  1.0000
  S   S40       1.0  0.11780  0.59035  0.34915  1.0000
  Fe  Fe22      1.0  0.08391  0.58250  0.32288  1.0000
  S   S41       1.0  0.06848  0.58338  0.35516  1.0000
  S   S42       1.0  0.10913  0.57753  0.27682  1.0000
  S   S43       1.0  0.08585  0.57382  0.27918  1.0000
  H   H105      1.0  0.03807  0.52645  0.31862  1.0000
  H   H106      1.0  0.05270  0.51454  0.97521  1.0000
  S   S44       1.0  0.03538  0.53951  0.73490  1.0000
  C   C66       1.0  0.00489  0.53435  0.62869  1.0000
  H   H107      1.0  0.15439  0.63421  0.96890  1.0000
  S   S45       1.0  0.07094  0.52333  0.89251  1.0000
  H   H108      1.0  0.19490  0.63033  0.90161  1.0000
  C   C67       1.0  0.21322  0.67024  0.81726  1.0000
  Fe  Fe23      1.0  0.24627  0.61434  0.19474  1.0000
  H   H109      1.0  0.03645  0.54606  0.25341  1.0000
  H   H110      1.0  0.17865  0.52547  0.76495  1.0000
  Fe  Fe24      1.0  0.16607  0.55509  0.66472  1.0000
  S   S46       1.0  0.15062  0.55381  0.70303  1.0000
  S   S47       1.0  0.17022  0.55825  0.59557  1.0000
  Fe  Fe25      1.0  0.17487  0.55759  0.73374  1.0000
  S   S48       1.0  0.15998  0.55632  0.77658  1.0000
  S   S49       1.0  0.18942  0.56000  0.74845  1.0000
  Fe  Fe26      1.0  0.15429  0.54399  0.75431  1.0000
  S   S50       1.0  0.14335  0.53069  0.80473  1.0000
  Fe  Fe27      1.0  0.15756  0.56608  0.72186  1.0000
  S   S51       1.0  0.15125  0.57915  0.72420  1.0000
  S   S52       1.0  0.16946  0.54436  0.71508  1.0000
  S   S53       1.0  0.17277  0.56823  0.68011  1.0000
  H   H111      1.0  0.23989  0.62277  0.10947  1.0000
  C   C68       1.0  0.21087  0.61116  0.81265  1.0000
  H   H112      1.0  0.06879  0.54230  0.15510  1.0000
  S   S54       1.0  0.18605  0.61183  0.72239  1.0000
  H   H113      1.0  0.09213  0.55538  0.04609  1.0000
  S   S55       1.0  0.15349  0.62677  0.85053  1.0000
  H   H114      1.0  0.11054  0.54317  0.36194  1.0000
  S   S56       1.0  0.04790  0.55137  0.79653  1.0000
  Fe  Fe28      1.0  0.09772  0.56452  0.93369  1.0000
  S   S57       1.0  0.09623  0.57473  0.87777  1.0000
  S   S58       1.0  0.10241  0.55048  0.93533  1.0000
  Fe  Fe29      1.0  0.09038  0.57631  0.98914  1.0000
  S   S59       1.0  0.08811  0.58766  0.93702  1.0000
  S   S60       1.0  0.08536  0.57330  0.05858  1.0000
  Fe  Fe30      1.0  0.08157  0.57475  0.91891  1.0000
  S   S61       1.0  0.06650  0.57227  0.90799  1.0000
  Fe  Fe31      1.0  0.10299  0.58671  0.89947  1.0000
  S   S62       1.0  0.11567  0.59809  0.84695  1.0000
  S   S63       1.0  0.08275  0.56365  0.97359  1.0000
  S   S64       1.0  0.10554  0.57624  0.95263  1.0000
  Fe  Fe32      1.0  0.24523  0.59663  0.16400  1.0000
  H   H115      1.0  0.04751  0.59649  0.40927  1.0000
  N   N5        1.0  0.05665  0.51392  0.76510  1.0000
  Fe  Fe33      1.0  0.23261  0.59444  0.25021  1.0000
  S   S65       1.0  0.24433  0.60526  0.25913  1.0000
  S   S66       1.0  0.21732  0.58869  0.29712  1.0000
  H   H116      1.0  0.04895  0.58430  0.41288  1.0000
  H   H117      1.0  0.05461  0.57343  0.46186  1.0000
  H   H118      1.0  0.02418  0.52268  0.55861  1.0000
  S   S67       1.0  0.23382  0.60421  0.18804  1.0000
  S   S68       1.0  0.24308  0.58593  0.22564  1.0000
  Fe  Fe34      1.0  0.22232  0.59453  0.95135  1.0000
  S   S69       1.0  0.21627  0.59546  0.01473  1.0000
  Fe  Fe35      1.0  0.21839  0.58777  0.87990  1.0000
  S   S70       1.0  0.20436  0.58145  0.86634  1.0000
  C   C69       1.0  0.23992  0.58983  0.04755  1.0000
  S   S71       1.0  0.21582  0.60056  0.90309  1.0000
  C   C70       1.0  0.23904  0.59319  0.08148  1.0000
  C   C71       1.0  0.23139  0.59764  0.09359  1.0000
  C   C72       1.0  0.22447  0.59844  0.07262  1.0000
  C   C73       1.0  0.22534  0.59504  0.03884  1.0000
  H   H119      1.0  0.23070  0.60032  0.11940  1.0000
  H   H120      1.0  0.21840  0.60164  0.08267  1.0000
  C   C74       1.0  0.09149  0.54855  0.07118  1.0000
  Fe  Fe36      1.0  0.23127  0.60841  0.86394  1.0000
  S   S72       1.0  0.22383  0.58104  0.93252  1.0000
  Fe  Fe37      1.0  0.03297  0.54511  0.78933  1.0000
  H   H121      1.0  0.22150  0.55274  0.13370  1.0000
  C   C75       1.0  0.11878  0.55015  0.25211  1.0000
  H   H122      1.0  0.15405  0.57623  0.80972  1.0000
  C   C76       1.0  0.06160  0.56675  0.87553  1.0000
  C   C77       1.0  0.05146  0.56545  0.88025  1.0000
  C   C78       1.0  0.04714  0.56086  0.85628  1.0000
  C   C79       1.0  0.05292  0.55755  0.82688  1.0000
  C   C80       1.0  0.06305  0.55884  0.82221  1.0000
  C   C81       1.0  0.06736  0.56336  0.84639  1.0000
  H   H123      1.0  0.04692  0.56804  0.90263  1.0000
  H   H124      1.0  0.03936  0.55995  0.86038  1.0000
  H   H125      1.0  0.06760  0.55626  0.79983  1.0000
  H   H126      1.0  0.07513  0.56422  0.84247  1.0000
  C   C82       1.0  0.14300  0.61861  0.85024  1.0000
  C   C83       1.0  0.13478  0.61434  0.88592  1.0000
  C   C84       1.0  0.12636  0.60787  0.88595  1.0000
  C   C85       1.0  0.12608  0.60576  0.85003  1.0000
  C   C86       1.0  0.13435  0.60993  0.81473  1.0000
  C   C87       1.0  0.14276  0.61626  0.81488  1.0000
  H   H127      1.0  0.13489  0.61609  0.91353  1.0000
  H   H128      1.0  0.12002  0.60470  0.91338  1.0000
  H   H129      1.0  0.13428  0.60814  0.78721  1.0000
  H   H130      1.0  0.14908  0.61929  0.78767  1.0000
  C   C88       1.0  0.19357  0.56662  0.77941  1.0000
  C   C89       1.0  0.20342  0.56772  0.77925  1.0000
  C   C90       1.0  0.20690  0.57233  0.80508  1.0000
  C   C91       1.0  0.20053  0.57577  0.83207  1.0000
  C   C92       1.0  0.19069  0.57470  0.83211  1.0000
  C   C93       1.0  0.18725  0.57026  0.80576  1.0000
  H   H131      1.0  0.20838  0.56493  0.75914  1.0000
  H   H132      1.0  0.21448  0.57309  0.80452  1.0000
  H   H133      1.0  0.18570  0.57737  0.85266  1.0000
  H   H134      1.0  0.17967  0.56952  0.80627  1.0000
  C   C94       1.0  0.17627  0.60299  0.72233  1.0000
  C   C95       1.0  0.16801  0.60559  0.71342  1.0000
  C   C96       1.0  0.16025  0.59826  0.71412  1.0000
  C   C97       1.0  0.16082  0.58838  0.72340  1.0000
  C   C98       1.0  0.16908  0.58582  0.73228  1.0000
  C   C99       1.0  0.17681  0.59311  0.73147  1.0000
  H   H135      1.0  0.16769  0.61324  0.70504  1.0000
  H   H136      1.0  0.15388  0.60025  0.70708  1.0000
  H   H137      1.0  0.16950  0.57820  0.74034  1.0000
  H   H138      1.0  0.18319  0.59106  0.73830  1.0000
  H   H139      1.0  0.18259  0.67164  0.41796  1.0000
  C   C100      1.0  0.12282  0.52026  0.75665  1.0000
  C   C101      1.0  0.13141  0.52564  0.76007  1.0000
  C   C102      1.0  0.13237  0.52484  0.79875  1.0000
  C   C103      1.0  0.12453  0.51894  0.83384  1.0000
  C   C104      1.0  0.11582  0.51385  0.83037  1.0000
  H   H140      1.0  0.25211  0.61065  0.03129  1.0000
  H   H141      1.0  0.13742  0.53011  0.73276  1.0000
  H   H142      1.0  0.12519  0.51831  0.86389  1.0000
  H   H143      1.0  0.02216  0.54320  0.53435  1.0000
  C   C105      1.0  0.07900  0.53052  0.90877  1.0000
  C   C106      1.0  0.08543  0.52647  0.92745  1.0000
  C   C107      1.0  0.09255  0.53256  0.93633  1.0000
  C   C108      1.0  0.09306  0.54267  0.92746  1.0000
  C   C109      1.0  0.08626  0.54662  0.91091  1.0000
  C   C110      1.0  0.07932  0.54058  0.90109  1.0000
  H   H144      1.0  0.08493  0.51866  0.93519  1.0000
  H   H145      1.0  0.09766  0.52942  0.94998  1.0000
  H   H146      1.0  0.08653  0.55441  0.90417  1.0000
  H   H147      1.0  0.07446  0.54378  0.88609  1.0000
  C   C111      1.0  0.05799  0.57573  0.35227  1.0000
  C   C112      1.0  0.05231  0.58017  0.33023  1.0000
  C   C113      1.0  0.04302  0.57485  0.33322  1.0000
  C   C114      1.0  0.03912  0.56502  0.35889  1.0000
  C   C115      1.0  0.04482  0.56041  0.38063  1.0000
  C   C116      1.0  0.05424  0.56577  0.37735  1.0000
  H   H148      1.0  0.05500  0.58789  0.31160  1.0000
  H   H149      1.0  0.03869  0.57848  0.31630  1.0000
  H   H150      1.0  0.04189  0.55285  0.40069  1.0000
  H   H151      1.0  0.05845  0.56235  0.39541  1.0000
  C   C117      1.0  0.10044  0.58512  0.14179  1.0000
  C   C118      1.0  0.09139  0.57807  0.15836  1.0000
  C   C119      1.0  0.08693  0.57452  0.13243  1.0000
  C   C120      1.0  0.09149  0.57788  0.08966  1.0000
  C   C121      1.0  0.10066  0.58475  0.07311  1.0000
  C   C122      1.0  0.10508  0.58837  0.09906  1.0000
  H   H152      1.0  0.08770  0.57552  0.19107  1.0000
  H   H153      1.0  0.07979  0.56932  0.14562  1.0000
  H   H154      1.0  0.10424  0.58744  0.04029  1.0000
  H   H155      1.0  0.11207  0.59384  0.08590  1.0000
  H   H156      1.0  0.10155  0.53886  0.08263  1.0000
  H   H157      1.0  0.19351  0.57003  0.09588  1.0000
  H   H158      1.0  0.23139  0.65964  0.20889  1.0000
  H   H159      1.0  0.22106  0.63048  0.70722  1.0000
  C   C123      1.0  0.15451  0.57366  0.84097  1.0000
  C   C124      1.0  0.12491  0.60030  0.35883  1.0000
  C   C125      1.0  0.12468  0.61021  0.34328  1.0000
  C   C126      1.0  0.13096  0.61783  0.34966  1.0000
  C   C127      1.0  0.13758  0.61572  0.37159  1.0000
  C   C128      1.0  0.13766  0.60581  0.38781  1.0000
  C   C129      1.0  0.13140  0.59818  0.38141  1.0000
  H   H160      1.0  0.11975  0.61201  0.32592  1.0000
  H   H161      1.0  0.13075  0.62545  0.33716  1.0000
  H   H162      1.0  0.14259  0.60405  0.40514  1.0000
  H   H163      1.0  0.13168  0.59058  0.39366  1.0000
  C   C130      1.0  0.15756  0.54107  0.52110  1.0000
  C   C131      1.0  0.16060  0.55141  0.50673  1.0000
  C   C132      1.0  0.16404  0.55659  0.53077  1.0000
  C   C133      1.0  0.16423  0.55153  0.56988  1.0000
  C   C134      1.0  0.16072  0.54122  0.58519  1.0000
  C   C135      1.0  0.15746  0.53601  0.56074  1.0000
  H   H164      1.0  0.16052  0.55541  0.47668  1.0000
  H   H165      1.0  0.16681  0.56453  0.51850  1.0000
  H   H166      1.0  0.16092  0.53721  0.61506  1.0000
  H   H167      1.0  0.15505  0.52801  0.57219  1.0000
  C   C136      1.0  0.19395  0.56316  0.29655  1.0000
  C   C137      1.0  0.20401  0.56382  0.27925  1.0000
  C   C138      1.0  0.21126  0.57181  0.27786  1.0000
  C   C139      1.0  0.20848  0.57908  0.29464  1.0000
  C   C140      1.0  0.19843  0.57837  0.31218  1.0000
  C   C141      1.0  0.19120  0.57054  0.31257  1.0000
  H   H168      1.0  0.20619  0.55810  0.26707  1.0000
  H   H169      1.0  0.21899  0.57219  0.26489  1.0000
  H   H170      1.0  0.19622  0.58396  0.32527  1.0000
  H   H171      1.0  0.18350  0.57025  0.32511  1.0000
  C   C142      1.0  0.15829  0.58231  0.38648  1.0000
  C   C143      1.0  0.16822  0.58212  0.37764  1.0000
  C   C144      1.0  0.17456  0.58805  0.39067  1.0000
  C   C145      1.0  0.17099  0.59429  0.41202  1.0000
  C   C146      1.0  0.16108  0.59452  0.42040  1.0000
  C   C147      1.0  0.15473  0.58848  0.40802  1.0000
  H   H172      1.0  0.17111  0.57770  0.35947  1.0000
  H   H173      1.0  0.18228  0.58806  0.38291  1.0000
  H   H174      1.0  0.15823  0.59928  0.43673  1.0000
  H   H175      1.0  0.14705  0.58862  0.41491  1.0000
  H   H176      1.0  0.02075  0.56395  0.53550  1.0000
  C   C148      1.0  0.02614  0.51125  0.63609  1.0000
  H   H177      1.0  0.18545  0.65438  0.82595  1.0000
  H   H178      1.0  0.15508  0.62308  0.29109  1.0000
  H   H179      1.0  0.03090  0.55182  0.57211  1.0000
  C   C149      1.0  0.05514  0.51214  0.81018  1.0000
  Fe  Fe38      1.0  0.01832  0.52234  0.43247  1.0000
  H   H180      1.0  0.09163  0.55103  0.09804  1.0000
  C   C150      1.0  0.01126  0.50837  0.61689  1.0000
  C   C151      1.0  0.06729  0.51462  0.74342  1.0000
  C   C152      1.0  0.12191  0.52160  0.25082  1.0000
  C   C153      1.0  0.11525  0.52246  0.28529  1.0000
  C   C154      1.0  0.11872  0.52654  0.31248  1.0000
  C   C155      1.0  0.12888  0.52993  0.30554  1.0000
  C   C156      1.0  0.13555  0.52922  0.27070  1.0000
  C   C157      1.0  0.13208  0.52506  0.24365  1.0000
  H   H181      1.0  0.10741  0.51987  0.29131  1.0000
  H   H182      1.0  0.11345  0.52703  0.33920  1.0000
  H   H183      1.0  0.14338  0.53176  0.26486  1.0000
  C   C158      1.0  0.02921  0.57426  0.55383  1.0000
  C   C159      1.0  0.07931  0.53328  0.26570  1.0000
  C   C160      1.0  0.08240  0.52822  0.29746  1.0000
  C   C161      1.0  0.08663  0.53342  0.31957  1.0000
  C   C162      1.0  0.08786  0.54369  0.30959  1.0000
  C   C163      1.0  0.08490  0.54868  0.27738  1.0000
  C   C164      1.0  0.08051  0.54350  0.25590  1.0000
  H   H184      1.0  0.08144  0.52030  0.30539  1.0000
  H   H185      1.0  0.08903  0.52950  0.34409  1.0000
  H   H186      1.0  0.08623  0.55658  0.26803  1.0000
  H   H187      1.0  0.07840  0.54749  0.23064  1.0000
  H   H188      1.0  0.05307  0.55068  0.20357  1.0000
  N   N6        1.0  0.14113  0.58288  0.86391  1.0000
  C   C165      1.0  0.13178  0.58112  0.89872  1.0000
  C   C166      1.0  0.13829  0.58396  0.82547  1.0000
  C   C167      1.0  0.14804  0.59237  0.86025  1.0000
  C   C168      1.0  0.13312  0.58145  0.94001  1.0000
  C   C169      1.0  0.15609  0.59789  0.81859  1.0000
  H   H189      1.0  0.12755  0.58668  0.89029  1.0000
  H   H190      1.0  0.12676  0.57378  0.90533  1.0000
  H   H191      1.0  0.13460  0.59015  0.82009  1.0000
  H   H192      1.0  0.14381  0.59788  0.86662  1.0000
  H   H193      1.0  0.15184  0.59104  0.88380  1.0000
  H   H194      1.0  0.13678  0.57576  0.95236  1.0000
  H   H195      1.0  0.13714  0.58890  0.93788  1.0000
  H   H196      1.0  0.12574  0.57987  0.96298  1.0000
  H   H197      1.0  0.13024  0.57640  0.79425  1.0000
  H   H198      1.0  0.16066  0.59316  0.80729  1.0000
  H   H199      1.0  0.01862  0.57598  0.52176  1.0000
  H   H200      1.0  0.19144  0.58587  0.43488  1.0000
  C   C170      1.0  0.20784  0.66339  0.80393  1.0000
  H   H201      1.0  0.18746  0.56347  0.39914  1.0000
  C   C171      1.0  0.07375  0.54609  0.08753  1.0000
  H   H202      1.0  0.17622  0.54926  0.83190  1.0000
  H   H203      1.0  0.06566  0.55302  0.12817  1.0000
  H   H204      1.0  0.06186  0.53988  0.32228  1.0000
  C   C172      1.0  0.04128  0.53169  0.88713  1.0000
  C   C173      1.0  0.05053  0.52248  0.33308  1.0000
  C   C174      1.0  0.10616  0.55674  0.43291  1.0000
  H   H205      1.0  0.05253  0.54318  0.35612  1.0000
  H   H206      1.0  0.18045  0.52362  0.87830  1.0000
  H   H207      1.0  0.17887  0.55917  0.44878  1.0000
  H   H208      1.0  0.19985  0.60248  0.74918  1.0000
  H   H209      1.0  0.06865  0.52634  0.06330  1.0000
  C   C175      1.0  0.21869  0.63786  0.07964  1.0000
  H   H210      1.0  0.23916  0.66001  0.12085  1.0000
  H   H211      1.0  0.17633  0.63289  0.64724  1.0000
  H   H212      1.0  0.19910  0.57591  0.40039  1.0000
  H   H213      1.0  0.08226  0.53511  0.14262  1.0000
  H   H214      1.0  0.06934  0.52143  0.16886  1.0000
  H   H215      1.0  0.18072  0.65994  0.93096  1.0000
  C   C176      1.0  0.22347  0.66315  0.33740  1.0000
  N   N7        1.0  0.10965  0.54689  0.80014  1.0000
  C   C177      1.0  0.09945  0.54110  0.80580  1.0000
  C   C178      1.0  0.10853  0.55601  0.81241  1.0000
  C   C179      1.0  0.11373  0.54046  0.82906  1.0000
  C   C180      1.0  0.11594  0.54928  0.75609  1.0000
  C   C181      1.0  0.09869  0.53084  0.79960  1.0000
  C   C182      1.0  0.10302  0.56263  0.78984  1.0000
  C   C183      1.0  0.12392  0.54500  0.83053  1.0000
  C   C184      1.0  0.12475  0.55852  0.73859  1.0000
  H   H216      1.0  0.09443  0.53991  0.83700  1.0000
  H   H217      1.0  0.09611  0.54530  0.78423  1.0000
  H   H218      1.0  0.11570  0.56081  0.80843  1.0000
  H   H219      1.0  0.10451  0.55388  0.84577  1.0000
  H   H220      1.0  0.10852  0.53794  0.86099  1.0000
  H   H221      1.0  0.11450  0.53364  0.82104  1.0000
  H   H222      1.0  0.11886  0.54283  0.75147  1.0000
  H   H223      1.0  0.11134  0.55064  0.73555  1.0000
  H   H224      1.0  0.10401  0.53111  0.77042  1.0000
  H   H225      1.0  0.09965  0.52535  0.82566  1.0000
  H   H226      1.0  0.09117  0.52800  0.79889  1.0000
  H   H227      1.0  0.10551  0.56390  0.75637  1.0000
  H   H228      1.0  0.09493  0.55939  0.80254  1.0000
  H   H229      1.0  0.10435  0.56996  0.79474  1.0000
  H   H230      1.0  0.12413  0.55183  0.83924  1.0000
  H   H231      1.0  0.12979  0.54623  0.80136  1.0000
  H   H232      1.0  0.12568  0.53960  0.85450  1.0000
  H   H233      1.0  0.13052  0.55739  0.71398  1.0000
  H   H234      1.0  0.12834  0.56014  0.76073  1.0000
  H   H235      1.0  0.12260  0.56517  0.72310  1.0000
  N   N8        1.0  0.16455  0.58888  0.56507  1.0000
  C   C185      1.0  0.15868  0.59019  0.53565  1.0000
  C   C186      1.0  0.16621  0.59825  0.57649  1.0000
  C   C187      1.0  0.15912  0.58028  0.60350  1.0000
  C   C188      1.0  0.17412  0.58683  0.54446  1.0000
  C   C189      1.0  0.15561  0.58111  0.52239  1.0000
  C   C190      1.0  0.14855  0.58046  0.62591  1.0000
  C   C191      1.0  0.18145  0.58596  0.56912  1.0000
  H   H236      1.0  0.15190  0.59253  0.54820  1.0000
  H   H237      1.0  0.16293  0.59632  0.50688  1.0000
  H   H238      1.0  0.16824  0.59701  0.60512  1.0000
  H   H239      1.0  0.15926  0.60073  0.58396  1.0000
  H   H240      1.0  0.15879  0.57309  0.59730  1.0000
  H   H241      1.0  0.16320  0.57989  0.62611  1.0000
  H   H242      1.0  0.17271  0.57972  0.53772  1.0000
  H   H243      1.0  0.17797  0.59242  0.51361  1.0000
  H   H244      1.0  0.16205  0.57982  0.50140  1.0000
  H   H245      1.0  0.15173  0.57427  0.54853  1.0000
  H   H246      1.0  0.15043  0.58262  0.50483  1.0000
  H   H247      1.0  0.14840  0.58720  0.63534  1.0000
  H   H248      1.0  0.14548  0.57399  0.65434  1.0000
  H   H249      1.0  0.14359  0.57979  0.60730  1.0000
  H   H250      1.0  0.18108  0.57806  0.58397  1.0000
  H   H251      1.0  0.18021  0.58951  0.59334  1.0000
  H   H252      1.0  0.18907  0.58960  0.54814  1.0000
  H   H253      1.0  0.00627  0.53812  0.68207  1.0000
  C   C192      1.0  0.20413  0.65532  0.33871  1.0000
  H   H254      1.0  0.21401  0.64273  0.85065  1.0000
  H   H255      1.0  0.12253  0.63329  0.74117  1.0000
  C   C193      1.0  0.05568  0.53206  0.76014  1.0000
  H   H256      1.0  0.13239  0.61672  0.72535  1.0000
  C   C194      1.0  0.19380  0.64562  0.50663  1.0000
  H   H257      1.0  0.14037  0.58840  0.31953  1.0000
  H   H258      1.0  0.22681  0.61912  0.12714  1.0000
  H   H259      1.0  0.22312  0.64358  0.08765  1.0000
  H   H260      1.0  0.20201  0.55004  0.44272  1.0000
  S   S73       1.0  0.23405  0.66456  0.04610  1.0000
  C   C195      1.0  0.17656  0.54291  0.85675  1.0000
  H   H261      1.0  0.19058  0.64739  0.53494  1.0000
  H   H262      1.0  0.20357  0.57538  0.44256  1.0000
  H   H263      1.0  0.03484  0.56005  0.49800  1.0000
  H   H264      1.0  0.17440  0.63773  0.97345  1.0000
  N   N9        1.0  0.19403  0.56150  0.44771  1.0000
  H   H265      1.0  0.18486  0.54487  0.54839  1.0000
  H   H266      1.0  0.02970  0.57342  0.42101  1.0000
  H   H267      1.0  0.06187  0.53266  0.77265  1.0000
  C   C196      1.0  0.14137  0.59028  0.28632  1.0000
  H   H268      1.0  0.17043  0.65867  0.57474  1.0000
  C   C197      1.0  0.18600  0.55837  0.43059  1.0000
  H   H269      1.0  0.23861  0.64524  0.06016  1.0000
  H   H270      1.0  0.18180  0.57500  0.44848  1.0000
  H   H271      1.0  0.02897  0.52284  0.66341  1.0000
  H   H272      1.0  0.03940  0.58859  0.39450  1.0000
  S   S74       1.0  0.01144  0.53127  0.75996  1.0000
  N   N10       1.0  0.11353  0.55724  0.18839  1.0000
  C   C198      1.0  0.11773  0.56802  0.18262  1.0000
  C   C199      1.0  0.11041  0.55183  0.23381  1.0000
  C   C200      1.0  0.10449  0.55679  0.17480  1.0000
  C   C201      1.0  0.12123  0.55345  0.16335  1.0000
  C   C202      1.0  0.09954  0.54673  0.17291  1.0000
  C   C203      1.0  0.11952  0.54207  0.17305  1.0000
  H   H273      1.0  0.11189  0.57124  0.19774  1.0000
  H   H274      1.0  0.10528  0.54447  0.24265  1.0000
  H   H275      1.0  0.10606  0.55594  0.25117  1.0000
  H   H276      1.0  0.09879  0.55923  0.19509  1.0000
  H   H277      1.0  0.10612  0.56203  0.14364  1.0000
  H   H278      1.0  0.12215  0.55660  0.13019  1.0000
  H   H279      1.0  0.11764  0.57528  0.11940  1.0000
  H   H280      1.0  0.11543  0.54637  0.28566  1.0000
  H   H281      1.0  0.09803  0.54052  0.20129  1.0000
  H   H282      1.0  0.10392  0.54504  0.14618  1.0000
  H   H283      1.0  0.09229  0.54712  0.16860  1.0000
  H   H284      1.0  0.11827  0.53978  0.14699  1.0000
  H   H285      1.0  0.11333  0.53761  0.20092  1.0000
  H   H286      1.0  0.12620  0.53977  0.17760  1.0000
  C   C204      1.0  0.19090  0.60170  0.80956  1.0000
  C   C205      1.0  0.20511  0.61701  0.83707  1.0000
  H   H287      1.0  0.18838  0.60859  0.80298  1.0000
  H   H288      1.0  0.19108  0.59935  0.84152  1.0000
  H   H289      1.0  0.18527  0.59583  0.80734  1.0000
  H   H290      1.0  0.20786  0.62512  0.82184  1.0000
  H   H291      1.0  0.20629  0.61556  0.86738  1.0000
  H   H292      1.0  0.22570  0.56461  0.13792  1.0000
  C   C206      1.0  0.16406  0.60999  0.32012  1.0000
  H   H293      1.0  0.20480  0.57227  0.05486  1.0000
  H   H294      1.0  0.17404  0.51723  0.81622  1.0000
  H   H295      1.0  0.06680  0.55682  0.32141  1.0000
  H   H296      1.0  0.16887  0.51742  0.88038  1.0000
  N   N11       1.0  0.20625  0.56867  0.15355  1.0000
  H   H297      1.0  0.06022  0.53799  0.25896  1.0000
  Fe  Fe39      1.0  0.01038  0.53695  0.81312  1.0000
  C   C207      1.0  0.05656  0.55107  0.22755  1.0000
  H   H298      1.0  0.18772  0.55672  0.15659  1.0000
  C   C208      1.0  0.17098  0.63106  0.59789  1.0000
  C   C209      1.0  0.20947  0.55915  0.15634  1.0000
  H   H299      1.0  0.04860  0.53568  0.25200  1.0000
  H   H300      1.0  0.04864  0.51505  0.93094  1.0000
  H   H301      1.0  0.06465  0.55318  0.21201  1.0000
  H   H302      1.0  0.15093  0.59884  0.33323  1.0000
  H   H303      1.0  0.08685  0.52854  0.11042  1.0000
  C   C210      1.0  0.07324  0.53286  0.03702  1.0000
  S   S75       1.0  0.16171  0.62801  0.54271  1.0000
  Fe  Fe40      1.0  0.16629  0.62889  0.47541  1.0000
  H   H304      1.0  0.05694  0.52544  0.71153  1.0000
  H   H305      1.0  0.25267  0.66187  0.80576  1.0000
  H   H306      1.0  0.23290  0.63189  0.11070  1.0000
  C   C211      1.0  0.18691  0.54646  0.51463  1.0000
  H   H307      1.0  0.17839  0.54010  0.78605  1.0000
  H   H308      1.0  0.20431  0.64093  0.28026  1.0000
  H   H309      1.0  0.10152  0.53948  0.41240  1.0000
  H   H310      1.0  0.08665  0.54396  0.01435  1.0000
  H   H311      1.0  0.06668  0.54157  0.08885  1.0000
  H   H312      1.0  0.03599  0.52442  0.90360  1.0000
  C   C212      1.0  0.07153  0.54893  0.12728  1.0000
  S   S76       1.0  0.02345  0.53500  0.45372  1.0000
  H   H313      1.0  0.06892  0.53837  0.02993  1.0000
  H   H314      1.0  0.01280  0.55932  0.49651  1.0000
  C   C213      1.0  0.02455  0.57195  0.52207  1.0000
  H   H315      1.0  0.03280  0.58221  0.54571  1.0000
  H   H316      1.0  0.08752  0.53218  0.04229  1.0000
  H   H317      1.0  0.17207  0.51909  0.94739  1.0000
  H   H318      1.0  0.14003  0.61089  0.67848  1.0000
  C   C214      1.0  0.02508  0.57200  0.45317  1.0000
  C   C215      1.0  0.21311  0.57511  0.16734  1.0000
  C   C216      1.0  0.20977  0.58409  0.17729  1.0000
  C   C217      1.0  0.22006  0.56022  0.12930  1.0000
  H   H319      1.0  0.21440  0.57068  0.19526  1.0000
  H   H320      1.0  0.22053  0.57813  0.14378  1.0000
  H   H321      1.0  0.20886  0.55529  0.18872  1.0000
  H   H322      1.0  0.21489  0.57690  0.09014  1.0000
  H   H323      1.0  0.20812  0.58896  0.15160  1.0000
  H   H324      1.0  0.20330  0.58177  0.20547  1.0000
  H   H325      1.0  0.21581  0.58860  0.18353  1.0000
  H   H326      1.0  0.22108  0.56347  0.09622  1.0000
  C   C218      1.0  0.22122  0.60010  0.75757  1.0000
  C   C219      1.0  0.12267  0.57496  0.13798  1.0000
  H   H327      1.0  0.07437  0.53056  0.72175  1.0000
  C   C220      1.0  0.23312  0.59082  0.02605  1.0000
  H   H328      1.0  0.16112  0.60411  0.82176  1.0000
  C   C221      1.0  0.08096  0.53245  0.11733  1.0000
  H   H329      1.0  0.15652  0.59025  0.26403  1.0000
  H   H330      1.0  0.16852  0.61672  0.29471  1.0000
  S   S77       1.0  0.23376  0.59619  0.83732  1.0000
  C   C222      1.0  0.13143  0.57473  0.82461  1.0000
  H   H331      1.0  0.14479  0.58607  0.79769  1.0000
  H   H332      1.0  0.13480  0.56831  0.82794  1.0000
  Fe  Fe41      1.0  0.23896  0.59058  0.89173  1.0000
  H   H333      1.0  0.19709  0.61492  0.84285  1.0000
  H   H334      1.0  0.12856  0.55619  0.16631  1.0000
  H   H335      1.0  0.12940  0.57302  0.12234  1.0000
  H   H336      1.0  0.12296  0.54524  0.23977  1.0000
  H   H337      1.0  0.12397  0.55711  0.24811  1.0000
  N   N12       1.0  0.17209  0.53327  0.85189  1.0000
  S   S78       1.0  0.23488  0.66875  0.34108  1.0000
  C   C223      1.0  0.20709  0.57428  0.11027  1.0000
  H   H338      1.0  0.23377  0.58808  0.00019  1.0000
  C   C224      1.0  0.14555  0.57417  0.87430  1.0000
  H   H339      1.0  0.14809  0.57398  0.90126  1.0000
  H   H340      1.0  0.15285  0.60127  0.79505  1.0000
  C   C225      1.0  0.17404  0.60720  0.54343  1.0000
  H   H341      1.0  0.12344  0.56885  0.19776  1.0000
  H   H342      1.0  0.12501  0.58264  0.13860  1.0000
  S   S79       1.0  0.23758  0.60351  0.91431  1.0000
  C   C226      1.0  0.02469  0.52108  0.64338  1.0000
  H   H343      1.0  0.13993  0.56699  0.88483  1.0000
  H   H344      1.0  0.12406  0.57275  0.84797  1.0000
  H   H345      1.0  0.18156  0.60598  0.53794  1.0000
  H   H346      1.0  0.17239  0.60906  0.51416  1.0000
  C   C227      1.0  0.25327  0.61351  0.96768  1.0000
  H   H347      1.0  0.21877  0.61420  0.80808  1.0000
  H   H348      1.0  0.16151  0.57784  0.84213  1.0000
  H   H349      1.0  0.20474  0.58129  0.10901  1.0000
  H   H350      1.0  0.20095  0.56105  0.09525  1.0000
  H   H351      1.0  0.19595  0.56574  0.21386  1.0000
  H   H352      1.0  0.20459  0.55380  0.14825  1.0000
  H   H353      1.0  0.17413  0.61378  0.55406  1.0000
  H   H354      1.0  0.07528  0.55296  0.06140  1.0000
  H   H355      1.0  0.19261  0.57303  0.17362  1.0000
  S   S80       1.0  0.02239  0.53062  0.83130  1.0000
  C   C228      1.0  0.20113  0.56901  0.08856  1.0000
  C   C229      1.0  0.19587  0.56662  0.18207  1.0000
  S   S81       1.0  0.16829  0.62932  0.73533  1.0000
  H   H356      1.0  0.15480  0.56580  0.84596  1.0000
  C   C230      1.0  0.20389  0.67045  0.41752  1.0000
  H   H357      1.0  0.12599  0.55458  0.32650  1.0000
  C   C231      1.0  0.11501  0.51428  0.79178  1.0000
  H   H358      1.0  0.02734  0.52736  0.61443  1.0000
  C   C232      1.0  0.18839  0.55721  0.18617  1.0000
  H   H359      1.0  0.19017  0.55042  0.20270  1.0000
  H   H360      1.0  0.20910  0.60343  0.83343  1.0000
  S   S82       1.0  0.02700  0.55912  0.36326  1.0000
  H   H361      1.0  0.18099  0.55722  0.20535  1.0000
  C   C233      1.0  0.20774  0.65059  0.36932  1.0000
  H   H362      1.0  0.24108  0.63711  0.31472  1.0000
  C   C234      1.0  0.12582  0.56216  0.32742  1.0000
  H   H363      1.0  0.13282  0.56576  0.33038  1.0000
  H   H364      1.0  0.23729  0.63046  0.25346  1.0000
  H   H365      1.0  0.12550  0.56645  0.29724  1.0000
  C   C235      1.0  0.16792  0.63557  0.56490  1.0000
  H   H366      1.0  0.24215  0.64949  0.31589  1.0000
  C   C236      1.0  0.11672  0.56231  0.36123  1.0000
  H   H367      1.0  0.11005  0.55946  0.35396  1.0000
  Fe  Fe42      1.0  0.25228  0.66417  0.91078  1.0000
  H   H368      1.0  0.10222  0.54347  0.02927  1.0000
  H   H369      1.0  0.11697  0.57024  0.35722  1.0000
  H   H370      1.0  0.24583  0.58639  0.03790  1.0000
  C   C237      1.0  0.17272  0.52435  0.88355  1.0000
  C   C238      1.0  0.24115  0.66797  0.10702  1.0000
  H   H371      1.0  0.21654  0.63062  0.10410  1.0000
  C   C239      1.0  0.04793  0.57105  0.48937  1.0000
  S   S83       1.0  0.19186  0.65124  0.33959  1.0000
  S   S84       1.0  0.18160  0.62815  0.44348  1.0000
  H   H372      1.0  0.01505  0.56059  0.44386  1.0000
  H   H373      1.0  0.15758  0.54510  0.87344  1.0000
  H   H374      1.0  0.18840  0.63300  0.94586  1.0000
  C   C240      1.0  0.05350  0.54082  0.26119  1.0000
  H   H375      1.0  0.20268  0.59538  0.79109  1.0000
  C   C241      1.0  0.21559  0.63003  0.73638  1.0000
  H   H376      1.0  0.16754  0.64609  0.95885  1.0000
  H   H377      1.0  0.16027  0.51970  0.94070  1.0000
  H   H378      1.0  0.21150  0.56972  0.37292  1.0000
  H   H379      1.0  0.22956  0.62621  0.30529  1.0000
  H   H380      1.0  0.09720  0.56577  0.45791  1.0000
  H   H381      1.0  0.25143  0.62299  0.85354  1.0000
  H   H382      1.0  0.04820  0.51146  0.70241  1.0000
  C   C242      1.0  0.15518  0.53689  0.88316  1.0000
  H   H383      1.0  0.16133  0.53696  0.82210  1.0000
  C   C243      1.0  0.04444  0.51055  0.83743  1.0000
  N   N13       1.0  0.04868  0.54041  0.30472  1.0000
  H   H384      1.0  0.18808  0.57706  0.48448  1.0000
  N   N14       1.0  0.08202  0.54096  0.08021  1.0000
  C   C244      1.0  0.23714  0.64311  0.31360  1.0000
  H   H385      1.0  0.12479  0.57026  0.40715  1.0000
  H   H386      1.0  0.04061  0.51590  0.82381  1.0000
  Fe  Fe43      1.0  0.24026  0.67065  0.97714  1.0000
  H   H387      1.0  0.20898  0.56084  0.44500  1.0000
  C   C245      1.0  0.20092  0.60252  0.77895  1.0000
  H   H388      1.0  0.21687  0.59428  0.74950  1.0000
  H   H389      1.0  0.12506  0.62200  0.69703  1.0000
  H   H390      1.0  0.01997  0.57699  0.45136  1.0000
  H   H391      1.0  0.00740  0.51029  0.56019  1.0000
  H   H392      1.0  0.12416  0.54609  0.39269  1.0000
  H   H393      1.0  0.07796  0.55394  0.12871  1.0000
  C   C246      1.0  0.10477  0.56681  0.43745  1.0000
  H   H394      1.0  0.10553  0.57221  0.40781  1.0000
  C   C247      1.0  0.23321  0.62501  0.06032  1.0000
  C   C248      1.0  0.02857  0.51289  0.52470  1.0000
  C   C249      1.0  0.18037  0.65688  0.84816  1.0000
  H   H395      1.0  0.17233  0.54397  0.88535  1.0000
  H   H396      1.0  0.13152  0.56169  0.39544  1.0000
  H   H397      1.0  0.10993  0.57009  0.45128  1.0000
  H   H398      1.0  0.24413  0.64747  0.76689  1.0000
  C   C250      1.0  0.24909  0.62937  0.85942  1.0000
  C   C251      1.0  0.15572  0.63186  0.94113  1.0000
  N   N15       1.0  0.20922  0.61116  0.77252  1.0000
  H   H399      1.0  0.22911  0.60096  0.74117  1.0000
  H   H400      1.0  0.18565  0.53300  0.80824  1.0000
  H   H401      1.0  0.07517  0.53022  0.01000  1.0000
  C   C252      1.0  0.21039  0.66368  0.30653  1.0000
  N   N16       1.0  0.11597  0.55689  0.40462  1.0000
  C   C253      1.0  0.12438  0.56217  0.41474  1.0000
  H   H402      1.0  0.22355  0.62846  0.97439  1.0000
  C   C254      1.0  0.25156  0.64225  0.02610  1.0000
  H   H403      1.0  0.16935  0.60685  0.33394  1.0000
  H   H404      1.0  0.10006  0.55388  0.42217  1.0000
  H   H405      1.0  0.12477  0.55043  0.46808  1.0000
  H   H406      1.0  0.20048  0.62210  0.77032  1.0000
  C   C255      1.0  0.06209  0.55509  0.30282  1.0000
  C   C256      1.0  0.07119  0.52437  0.13507  1.0000
  H   H407      1.0  0.22011  0.59749  0.79087  1.0000
  H   H408      1.0  0.07189  0.51815  0.12248  1.0000
  H   H409      1.0  0.17074  0.62323  0.60574  1.0000
  H   H410      1.0  0.03725  0.53749  0.87998  1.0000
  H   H411      1.0  0.06475  0.52705  0.13024  1.0000
  H   H412      1.0  0.21262  0.63671  0.73027  1.0000
  C   C257      1.0  0.18901  0.57780  0.45186  1.0000
  H   H413      1.0  0.18686  0.66167  0.51496  1.0000
  C   C258      1.0  0.21844  0.61005  0.74412  1.0000
  C   C259      1.0  0.25169  0.64383  0.88189  1.0000
  C   C260      1.0  0.01914  0.54565  0.62956  1.0000
  C   C261      1.0  0.12434  0.55826  0.45942  1.0000
  H   H414      1.0  0.10466  0.55153  0.46420  1.0000
  H   H415      1.0  0.11536  0.54215  0.44193  1.0000
  C   C262      1.0  0.14644  0.61722  0.65966  1.0000
  C   C263      1.0  0.20706  0.62064  0.75099  1.0000
  C   C264      1.0  0.01867  0.54215  0.56641  1.0000
  C   C265      1.0  0.14913  0.61149  0.26725  1.0000
  H   H416      1.0  0.00972  0.51115  0.39548  1.0000
  H   H417      1.0  0.23947  0.62196  0.04780  1.0000
  N   N17       1.0  0.03137  0.57423  0.47904  1.0000
  H   H418      1.0  0.13098  0.56268  0.46245  1.0000
  C   C266      1.0  0.10930  0.54019  0.39526  1.0000
  S   S85       1.0  0.23409  0.62450  0.82893  1.0000
  H   H419      1.0  0.20515  0.62003  0.72330  1.0000
  H   H420      1.0  0.02142  0.50967  0.52219  1.0000
  C   C267      1.0  0.16823  0.52350  0.92896  1.0000
  H   H421      1.0  0.11782  0.55906  0.48165  1.0000
  H   H422      1.0  0.21782  0.61107  0.71284  1.0000
  C   C268      1.0  0.19257  0.66736  0.48823  1.0000
  C   C269      1.0  0.04376  0.52971  0.33034  1.0000
  C   C270      1.0  0.11663  0.54635  0.40935  1.0000
  H   H423      1.0  0.16434  0.61211  0.20261  1.0000
  C   C271      1.0  0.21894  0.66727  0.84251  1.0000
  H   H424      1.0  0.03975  0.52915  0.36247  1.0000
  C   C272      1.0  0.14340  0.62708  0.64733  1.0000
  H   H425      1.0  0.20464  0.65214  0.44692  1.0000
  H   H426      1.0  0.00674  0.50947  0.83500  1.0000
  H   H427      1.0  0.03065  0.58957  0.46222  1.0000
  H   H428      1.0  0.22847  0.61876  0.00017  1.0000
  C   C273      1.0  0.04340  0.58869  0.41706  1.0000
  Fe  Fe44      1.0  0.16727  0.63212  0.79486  1.0000
  H   H429      1.0  0.22496  0.61591  0.74031  1.0000
  H   H430      1.0  0.18463  0.66094  0.86295  1.0000
  H   H431      1.0  0.22000  0.65107  0.39329  1.0000
  C   C274      1.0  0.04070  0.54597  0.30877  1.0000
  H   H432      1.0  0.23140  0.64182  0.85075  1.0000
  H   H433      1.0  0.15905  0.61226  0.34355  1.0000
  H   H434      1.0  0.21943  0.63034  0.75930  1.0000
  C   C275      1.0  0.03631  0.58516  0.46148  1.0000
  H   H435      1.0  0.06846  0.51512  0.71085  1.0000
  H   H436      1.0  0.11043  0.53257  0.40112  1.0000
  H   H437      1.0  0.14642  0.62587  0.26596  1.0000
  H   H438      1.0  0.23041  0.64086  0.34061  1.0000
  C   C276      1.0  0.19694  0.57271  0.43437  1.0000
  S   S86       1.0  0.20194  0.64443  0.79815  1.0000
  Fe  Fe45      1.0  0.18204  0.62482  0.73947  1.0000
  H   H439      1.0  0.15207  0.61771  0.67539  1.0000
  H   H440      1.0  0.16173  0.59578  0.31075  1.0000
  C   C277      1.0  0.14723  0.64065  0.72445  1.0000
  C   C278      1.0  0.15808  0.60202  0.30815  1.0000
  H   H441      1.0  0.04554  0.53094  0.85775  1.0000
  S   S87       1.0  0.18028  0.62621  0.80177  1.0000
  H   H442      1.0  0.04895  0.56458  0.51143  1.0000
  Fe  Fe46      1.0  0.01814  0.54378  0.40551  1.0000
  C   C279      1.0  0.25317  0.67141  0.70490  1.0000
  N   N18       1.0  0.13969  0.63131  0.68137  1.0000
  C   C280      1.0  0.22963  0.62942  0.27325  1.0000
  C   C281      1.0  0.21725  0.63830  0.29855  1.0000
  C   C282      1.0  0.03860  0.56779  0.47794  1.0000
  H   H443      1.0  0.21835  0.65438  0.23487  1.0000
  H   H444      1.0  0.14984  0.61548  0.63138  1.0000
  C   C283      1.0  0.12531  0.62659  0.74963  1.0000
  H   H445      1.0  0.24200  0.64804  0.24771  1.0000
  H   H446      1.0  0.05907  0.53060  0.95916  1.0000
  N   N19       1.0  0.04458  0.53186  0.95535  1.0000
  H   H447      1.0  0.03529  0.51942  0.56110  1.0000
  H   H448      1.0  0.13783  0.62595  0.63149  1.0000
  C   C284      1.0  0.18286  0.65286  0.94067  1.0000
  H   H449      1.0  0.15505  0.63585  0.67613  1.0000
  H   H450      1.0  0.19632  0.56055  0.50609  1.0000
  C   C285      1.0  0.17399  0.63649  0.62200  1.0000
  C   C286      1.0  0.14770  0.63312  0.70033  1.0000
  H   H451      1.0  0.11875  0.62042  0.76914  1.0000
  H   H452      1.0  0.14798  0.62602  0.72116  1.0000
  H   H453      1.0  0.19264  0.54249  0.50610  1.0000
  C   C287      1.0  0.13061  0.62381  0.71223  1.0000
  H   H454      1.0  0.18410  0.56062  0.50647  1.0000
  H   H455      1.0  0.03738  0.51912  0.00957  1.0000
  H   H456      1.0  0.15004  0.63235  0.62333  1.0000
  C   C288      1.0  0.13688  0.64063  0.66252  1.0000
  C   C289      1.0  0.19047  0.55776  0.49395  1.0000
  H   H457      1.0  0.18101  0.65467  0.47033  1.0000
  H   H458      1.0  0.04058  0.58768  0.48005  1.0000
  H   H459      1.0  0.13105  0.63889  0.64853  1.0000
  H   H460      1.0  0.12998  0.62735  0.76930  1.0000
  H   H461      1.0  0.18625  0.54803  0.39477  1.0000
  H   H462      1.0  0.24107  0.65258  0.87799  1.0000
  H   H463      1.0  0.22364  0.65549  0.18217  1.0000
  H   H464      1.0  0.23807  0.64136  0.96425  1.0000
  H   H465      1.0  0.05140  0.54277  0.89551  1.0000
  C   C290      1.0  0.23789  0.64007  0.85728  1.0000
  H   H466      1.0  0.04011  0.54573  0.94663  1.0000
  H   H467      1.0  0.15195  0.65053  0.63878  1.0000
  C   C291      1.0  0.16155  0.53275  0.85271  1.0000
  H   H468      1.0  0.17185  0.59770  0.22222  1.0000
  C   C292      1.0  0.22696  0.64340  0.22362  1.0000
  H   H469      1.0  0.22621  0.61460  0.26918  1.0000
  H   H470      1.0  0.04789  0.57697  0.50364  1.0000
  H   H471      1.0  0.17621  0.60297  0.25728  1.0000
  C   C293      1.0  0.20323  0.55818  0.43212  1.0000
  H   H472      1.0  0.18803  0.54274  0.44316  1.0000
  H   H473      1.0  0.21385  0.55783  0.37690  1.0000
  H   H474      1.0  0.25172  0.63561  0.04953  1.0000
  H   H475      1.0  0.04895  0.53232  0.78298  1.0000
  H   H476      1.0  0.23420  0.64384  0.20163  1.0000
  H   H477      1.0  0.20257  0.55990  0.36941  1.0000
  C   C294      1.0  0.18425  0.54774  0.42745  1.0000
  H   H478      1.0  0.17625  0.54405  0.44113  1.0000
  H   H479      1.0  0.23129  0.64642  0.77667  1.0000
  C   C295      1.0  0.03749  0.53795  0.96791  1.0000
  C   C296      1.0  0.20794  0.56166  0.38513  1.0000
  C   C297      1.0  0.16586  0.61034  0.23242  1.0000
  H   H480      1.0  0.15213  0.59745  0.22696  1.0000
  C   C298      1.0  0.17386  0.52447  0.79640  1.0000
  H   H481      1.0  0.18009  0.54338  0.50884  1.0000
  Fe  Fe47      1.0  0.02276  0.54542  0.72252  1.0000
  H   H482      1.0  0.23369  0.66447  0.75686  1.0000
  S   S88       1.0  0.19235  0.63978  0.70699  1.0000
  C   C299      1.0  0.23491  0.64638  0.27281  1.0000
  C   C300      1.0  0.05319  0.53419  0.97066  1.0000
  C   C301      1.0  0.05617  0.54419  0.32314  1.0000
  H   H483      1.0  0.14866  0.63749  0.75372  1.0000
  H   H484      1.0  0.21554  0.61864  0.28784  1.0000
  H   H485      1.0  0.02583  0.53276  0.94287  1.0000
  C   C302      1.0  0.14536  0.64896  0.62912  1.0000
  H   H486      1.0  0.05748  0.56048  0.30167  1.0000
  S   S89       1.0  0.01428  0.53136  0.38054  1.0000
  H   H487      1.0  0.24658  0.67084  0.15494  1.0000
  H   H488      1.0  0.05485  0.52243  0.30257  1.0000
  C   C303      1.0  0.24078  0.63174  0.85020  1.0000
  H   H489      1.0  0.05465  0.55722  0.23847  1.0000
  C   C304      1.0  0.02359  0.54702  0.58779  1.0000
  H   H490      1.0  0.13346  0.64394  0.68565  1.0000
  S   S90       1.0  0.17632  0.64795  0.76580  1.0000
  C   C305      1.0  0.24331  0.64609  0.87320  1.0000
  S   S91       1.0  0.16489  0.63972  0.42001  1.0000
  C   C306      1.0  0.18769  0.65830  0.44297  1.0000
  H   H491      1.0  0.14017  0.64274  0.73272  1.0000
  H   H492      1.0  0.15325  0.64748  0.70728  1.0000
  C   C307      1.0  0.22373  0.63704  0.03727  1.0000
  C   C308      1.0  0.05831  0.54528  0.95867  1.0000
  S   S92       1.0  0.02513  0.55252  0.65467  1.0000
  H   H493      1.0  0.14285  0.65590  0.62231  1.0000
  C   C309      1.0  0.02666  0.53423  0.97082  1.0000
  H   H494      1.0  0.03292  0.51870  0.96854  1.0000
  C   C310      1.0  0.04620  0.51389  0.96436  1.0000
  H   H495      1.0  0.02269  0.54003  0.97535  1.0000
  H   H496      1.0  0.05086  0.53119  0.00474  1.0000
  H   H497      1.0  0.14747  0.64723  0.59995  1.0000
  H   H498      1.0  0.03718  0.53852  0.99879  1.0000
  H   H499      1.0  0.24700  0.67155  0.69177  1.0000
  S   S93       1.0  0.24771  0.59192  0.10751  1.0000
  H   H500      1.0  0.05339  0.54959  0.97164  1.0000
  Fe  Fe48      1.0  0.18962  0.64182  0.76938  1.0000
  C   C311      1.0  0.22304  0.62117  0.26514  1.0000
  H   H501      1.0  0.05512  0.53187  0.89911  1.0000
  C   C312      1.0  0.21896  0.65724  0.85520  1.0000
  H   H502      1.0  0.21837  0.63120  0.03354  1.0000
  H   H503      1.0  0.06721  0.55638  0.27189  1.0000
  C   C313      1.0  0.01876  0.56128  0.46692  1.0000
  H   H504      1.0  0.02331  0.55580  0.46814  1.0000
  S   S94       1.0  0.11798  0.51641  0.21555  1.0000
  H   H505      1.0  0.13941  0.58319  0.28018  1.0000
  H   H506      1.0  0.22322  0.65478  0.87493  1.0000
  H   H507      1.0  0.06141  0.54874  0.92512  1.0000
  C   C314      1.0  0.23965  0.67215  0.06952  1.0000
  H   H508      1.0  0.03658  0.54442  0.34174  1.0000
  H   H509      1.0  0.01016  0.51584  0.61612  1.0000
  H   H510      1.0  0.18784  0.64186  0.49761  1.0000
  C   C315      1.0  0.04851  0.53464  0.90935  1.0000
  C   C316      1.0  0.17370  0.64645  0.61414  1.0000
  C   C317      1.0  0.03978  0.52094  0.97558  1.0000
  H   H511      1.0  0.22648  0.61943  0.06416  1.0000
  H   H512      1.0  0.18952  0.55140  0.86333  1.0000
  Fe  Fe49      1.0  0.10224  0.51056  0.21596  1.0000
  H   H513      1.0  0.16679  0.62775  0.89971  1.0000
  H   H514      1.0  0.13732  0.52444  0.21712  1.0000
  H   H515      1.0  0.13602  0.59456  0.27882  1.0000
  C   C318      1.0  0.16794  0.64561  0.55617  1.0000
  N   N20       1.0  0.22692  0.63925  0.26715  1.0000
  H   H516      1.0  0.02753  0.54815  0.29326  1.0000
  N   N21       1.0  0.15642  0.60511  0.26720  1.0000
  S   S95       1.0  0.23600  0.66125  0.94023  1.0000
  Fe  Fe50      1.0  0.17836  0.64450  0.70588  1.0000
  C   C319      1.0  0.23709  0.63411  0.98745  1.0000
  C   C320      1.0  0.23323  0.62490  0.10386  1.0000
  H   H517      1.0  0.20363  0.66587  0.78402  1.0000
  H   H518      1.0  0.20307  0.64402  0.39375  1.0000
  H   H519      1.0  0.18264  0.62320  0.92972  1.0000
  Fe  Fe51      1.0  0.17989  0.63816  0.38728  1.0000
  C   C321      1.0  0.23930  0.66127  0.76809  1.0000
  H   H520      1.0  0.04584  0.51484  0.34984  1.0000
  S   S96       1.0  0.24757  0.63062  0.16885  1.0000
  H   H521      1.0  0.22154  0.63854  0.21593  1.0000
  S   S97       1.0  0.02082  0.55199  0.77452  1.0000
  C   C322      1.0  0.23869  0.65144  0.75840  1.0000
  H   H522      1.0  0.05742  0.53894  0.73393  1.0000
  H   H523      1.0  0.22278  0.62324  0.23334  1.0000
  C   C323      1.0  0.18396  0.63838  0.89090  1.0000
  C   C324      1.0  0.21735  0.65456  0.36883  1.0000
  C   C325      1.0  0.17448  0.64393  0.94699  1.0000
  C   C326      1.0  0.05355  0.52297  0.74548  1.0000
  H   H524      1.0  0.02897  0.53590  0.29856  1.0000
  N   N22       1.0  0.17437  0.64058  0.91040  1.0000
  C   C327      1.0  0.00923  0.53590  0.58674  1.0000
  H   H525      1.0  0.14744  0.53505  0.88305  1.0000
  H   H526      1.0  0.23301  0.65362  0.27107  1.0000
  H   H527      1.0  0.04366  0.55409  0.29733  1.0000
  H   H528      1.0  0.16862  0.64451  0.85956  1.0000
  H   H529      1.0  0.16519  0.64907  0.53200  1.0000
  C   C328      1.0  0.18733  0.54439  0.85681  1.0000
  C   C329      1.0  0.17079  0.65101  0.58076  1.0000
  C   C330      1.0  0.22494  0.65380  0.21231  1.0000
  H   H530      1.0  0.22419  0.64410  0.01389  1.0000
  H   H531      1.0  0.03422  0.51192  0.62763  1.0000
  H   H532      1.0  0.24149  0.65029  0.00723  1.0000
  C   C331      1.0  0.24098  0.64340  0.03149  1.0000
  H   H533      1.0  0.21176  0.64016  0.07916  1.0000
  H   H534      1.0  0.17727  0.66228  0.82988  1.0000
  H   H535      1.0  0.20839  0.63075  0.26653  1.0000
  S   S98       1.0  0.02612  0.51031  0.42674  1.0000
  H   H536      1.0  0.08247  0.52265  0.72811  1.0000
  H   H537      1.0  0.04548  0.52108  0.75129  1.0000
  N   N23       1.0  0.23373  0.63479  0.03034  1.0000
  H   H538      1.0  0.02326  0.57231  0.58360  1.0000
  C   C332      1.0  0.17790  0.53317  0.81014  1.0000
  C   C333      1.0  0.01127  0.50707  0.74485  1.0000
  H   H539      1.0  0.18069  0.60933  0.20347  1.0000
  C   C334      1.0  0.07499  0.52355  0.74185  1.0000
  S   S99       1.0  0.17634  0.65319  0.64677  1.0000
  C   C335      1.0  0.00982  0.53918  0.65004  1.0000
  H   H540      1.0  0.04451  0.51139  0.86742  1.0000
  H   H541      1.0  0.15853  0.62677  0.23536  1.0000
  H   H542      1.0  0.15748  0.52499  0.85873  1.0000
  S   S100      1.0  0.09058  0.51179  0.08916  1.0000
  H   H543      1.0  0.18953  0.65229  0.43026  1.0000
  C   C336      1.0  0.17402  0.60464  0.22914  1.0000
  H   H544      1.0  0.23430  0.62568  0.94737  1.0000
  C   C337      1.0  0.23035  0.62626  0.97760  1.0000
  H   H545      1.0  0.15509  0.53370  0.91499  1.0000
  C   C338      1.0  0.17186  0.64814  0.87888  1.0000
  H   H546      1.0  0.23927  0.65259  0.72581  1.0000
  C   C339      1.0  0.16644  0.63106  0.92491  1.0000
  H   H547      1.0  0.16754  0.62540  0.95015  1.0000
  H   H548      1.0  0.21674  0.63339  0.32922  1.0000
  H   H549      1.0  0.21694  0.64564  0.30244  1.0000
  H   H550      1.0  0.19010  0.64511  0.87710  1.0000
  C   C340      1.0  0.20816  0.65343  0.81540  1.0000
  C   C341      1.0  0.20766  0.63465  0.28952  1.0000
  C   C342      1.0  0.15273  0.62236  0.26469  1.0000
  C   C343      1.0  0.20082  0.65484  0.47170  1.0000
  H   H551      1.0  0.03435  0.56961  0.55994  1.0000
  H   H552      1.0  0.20212  0.62945  0.31834  1.0000
  H   H553      1.0  0.15067  0.62443  0.94990  1.0000
  C   C344      1.0  0.21371  0.65041  0.84134  1.0000
  H   H554      1.0  0.18438  0.65221  0.97010  1.0000
  C   C345      1.0  0.18752  0.63076  0.91929  1.0000
  H   H555      1.0  0.06464  0.54604  0.97053  1.0000
  H   H556      1.0  0.01689  0.52051  0.65981  1.0000
  H   H557      1.0  0.08303  0.51362  0.02221  1.0000
  H   H558      1.0  0.12229  0.52061  0.72661  1.0000
  H   H559      1.0  0.18344  0.63569  0.86478  1.0000
  H   H560      1.0  0.19809  0.64012  0.51475  1.0000
  H   H561      1.0  0.24444  0.63245  0.98044  1.0000
  C   C346      1.0  0.02759  0.51625  0.56300  1.0000
  H   H562      1.0  0.16923  0.61762  0.23389  1.0000
  H   H563      1.0  0.19252  0.54523  0.82644  1.0000
  S   S101      1.0  0.25285  0.58537  0.89327  1.0000
  H   H564      1.0  0.04131  0.56723  0.44665  1.0000
  C   C347      1.0  0.03307  0.54378  0.28709  1.0000
  H   H565      1.0  0.19001  0.65325  0.91885  1.0000
  H   H566      1.0  0.25237  0.60562  0.96930  1.0000
  H   H567      1.0  0.05549  0.52395  0.35094  1.0000
  C   C348      1.0  0.15207  0.59580  0.25938  1.0000
  H   H568      1.0  0.16632  0.52429  0.79458  1.0000
  S   S102      1.0  0.02622  0.51073  0.77733  1.0000
  H   H569      1.0  0.21791  0.66955  0.42986  1.0000
  H   H570      1.0  0.03228  0.51942  0.49684  1.0000
  H   H571      1.0  0.20660  0.65769  0.48401  1.0000
  S   S103      1.0  0.25039  0.67080  0.23335  1.0000
  H   H572      1.0  0.18830  0.53838  0.88098  1.0000
  H   H573      1.0  0.16928  0.53065  0.93506  1.0000
  H   H574      1.0  0.25338  0.65173  0.14606  1.0000
  H   H575      1.0  0.16608  0.65140  0.89408  1.0000
  H   H576      1.0  0.05974  0.51818  0.81595  1.0000
  H   H577      1.0  0.19024  0.66760  0.37955  1.0000
  H   H578      1.0  0.07463  0.52413  0.77251  1.0000
  H   H579      1.0  0.23659  0.65939  0.80201  1.0000
  Fe  Fe52      1.0  0.09076  0.50809  0.15497  1.0000
  C   C349      1.0  0.18451  0.66513  0.41012  1.0000
  N   N24       1.0  0.24924  0.66860  0.75103  1.0000
  H   H580      1.0  0.20770  0.66733  0.28245  1.0000
  H   H581      1.0  0.17784  0.66085  0.40679  1.0000
  H   H582      1.0  0.19844  0.66953  0.50132  1.0000
  Fe  Fe53      1.0  0.00774  0.53147  0.49369  1.0000
  H   H583      1.0  0.20601  0.66705  0.39298  1.0000
  C   C350      1.0  0.22004  0.66754  0.30566  1.0000
  N   N25       1.0  0.02207  0.50854  0.60435  1.0000
  H   H584      1.0  0.10990  0.50929  0.85765  1.0000
  H   H585      1.0  0.06940  0.50775  0.75737  1.0000
  H   H586      1.0  0.03324  0.50755  0.52326  1.0000
  H   H587      1.0  0.17986  0.67339  0.48258  1.0000
  H   H588      1.0  0.24501  0.67585  0.79677  1.0000
  H   H589      1.0  0.21212  0.67852  0.44837  1.0000
  H   H590      1.0  0.21818  0.68095  0.39495  1.0000
  H   H591      1.0  0.24143  0.69040  0.75228  1.0000
  C   C351      1.0  0.18782  0.67610  0.47801  1.0000
  C   C352      1.0  0.24533  0.67409  0.12636  1.0000
  C   C353      1.0  0.24242  0.68243  0.05135  1.0000
  H   H592      1.0  0.21307  0.67796  0.80739  1.0000
  S   S104      1.0  0.23992  0.68475  0.93247  1.0000
  H   H593      1.0  0.24800  0.69645  0.05757  1.0000
  H   H594      1.0  0.24126  0.68571  0.02251  1.0000
  S   S105      1.0  0.22619  0.67643  0.85569  1.0000
  C   C354      1.0  0.24778  0.68440  0.10875  1.0000
  Fe  Fe54      1.0  0.24814  0.67736  0.28432  1.0000
  S   S106      1.0  0.25251  0.69319  0.24208  1.0000
  C   C355      1.0  0.24087  0.68329  0.74532  1.0000
  C   C356      1.0  0.24784  0.67774  0.76279  1.0000
  H   H595      1.0  0.19150  0.68142  0.44689  1.0000
  Fe  Fe55      1.0  0.23715  0.67534  0.89245  1.0000
  H   H596      1.0  0.23304  0.67917  0.76029  1.0000
  H   H597      1.0  0.18853  0.68053  0.49882  1.0000
  C   C357      1.0  0.24630  0.68852  0.07122  1.0000
  S   S107      1.0  0.25257  0.69245  0.13265  1.0000
  S   S108      1.0  0.25343  0.67791  0.86077  1.0000
  H   H598      1.0  0.20105  0.67670  0.40349  1.0000
  H   H599      1.0  0.24279  0.68511  0.71162  1.0000
  H   H600      1.0  0.22467  0.67415  0.28127  1.0000
  C   C358      1.0  0.21350  0.67505  0.42383  1.0000
  H   H601      1.0  0.48414  0.00895  0.49270  1.0000
  H   H602      1.0  0.47712  0.05116  0.11461  1.0000
  H   H603      1.0  0.47665  0.06203  0.22077  1.0000
  H   H604      1.0  0.47566  0.03775  0.12804  1.0000
  H   H605      1.0  0.47522  0.05312  0.17507  1.0000
  S   S109      1.0  0.49371  0.03781  0.87322  1.0000
  C   C359      1.0  0.48279  0.05472  0.17703  1.0000
  C   C360      1.0  0.48630  0.01756  0.41314  1.0000
  H   H606      1.0  0.50148  0.02314  0.41344  1.0000
  H   H607      1.0  0.49712  0.03559  0.73331  1.0000
  S   S110      1.0  0.48432  0.01704  0.74263  1.0000
  C   C361      1.0  0.48966  0.04587  0.12997  1.0000
  H   H608      1.0  0.47788  0.02644  0.51886  1.0000
  H   H609      1.0  0.49547  0.05248  0.10793  1.0000
  S   S111      1.0  0.47918  0.00957  0.29509  1.0000
  H   H610      1.0  0.48296  0.01864  0.38825  1.0000
  C   C362      1.0  0.47892  0.01883  0.52416  1.0000
  H   H611      1.0  0.48378  0.04589  0.08011  1.0000
  C   C363      1.0  0.49756  0.04892  0.17931  1.0000
  H   H612      1.0  0.49082  0.04462  0.40693  1.0000
  C   C364      1.0  0.48202  0.05740  0.21676  1.0000
  H   H613      1.0  0.47302  0.03144  0.45910  1.0000
  C   C365      1.0  0.48090  0.04513  0.11319  1.0000
  C   C366      1.0  0.48895  0.04039  0.30494  1.0000
  H   H614      1.0  0.49516  0.03579  0.43831  1.0000
  H   H615      1.0  0.49266  0.03938  0.12702  1.0000
  H   H616      1.0  0.48920  0.06187  0.21512  1.0000
  C   C367      1.0  0.48462  0.02283  0.84981  1.0000
  C   C368      1.0  0.48259  0.01796  0.82202  1.0000
  C   C369      1.0  0.48703  0.02251  0.77969  1.0000
  H   H617      1.0  0.48100  0.01925  0.88235  1.0000
  H   H618      1.0  0.50063  0.02072  0.36796  1.0000
  C   C370      1.0  0.49299  0.02624  0.28533  1.0000
  C   C371      1.0  0.48308  0.02087  0.30347  1.0000
  C   C372      1.0  0.47616  0.02527  0.32270  1.0000
  C   C373      1.0  0.47910  0.03495  0.32369  1.0000
  H   H619      1.0  0.46846  0.02135  0.33535  1.0000
  H   H620      1.0  0.47365  0.03836  0.33787  1.0000
  C   C374      1.0  0.49366  0.03193  0.76589  1.0000
  C   C375      1.0  0.49705  0.02369  0.39229  1.0000
  S   S112      1.0  0.49580  0.06562  0.00082  1.0000
  H   H621      1.0  0.48684  0.06159  0.15097  1.0000
  C   C376      1.0  0.49127  0.03223  0.83604  1.0000
  H   H622      1.0  0.49440  0.08274  0.91544  1.0000
  N   N26       1.0  0.48024  0.01990  0.44927  1.0000
  H   H623      1.0  0.48348  0.03556  0.23337  1.0000
  C   C377      1.0  0.47969  0.03058  0.43755  1.0000
  C   C378      1.0  0.46994  0.01332  0.46315  1.0000
  H   H624      1.0  0.47954  0.05076  0.24439  1.0000
  H   H625      1.0  0.49744  0.03153  0.37659  1.0000
  H   H626      1.0  0.49727  0.09529  0.88384  1.0000
  H   H627      1.0  0.49220  0.02069  0.47591  1.0000
  H   H628      1.0  0.46762  0.03919  0.23598  1.0000
  H   H629      1.0  0.46381  0.02245  0.41993  1.0000
  C   C379      1.0  0.48172  0.03653  0.20434  1.0000
  H   H630      1.0  0.47744  0.01078  0.83338  1.0000
  C   C380      1.0  0.48432  0.01700  0.48432  1.0000
  H   H631      1.0  0.46749  0.03567  0.19112  1.0000
  H   H632      1.0  0.46715  0.02673  0.23703  1.0000
  H   H633      1.0  0.47171  0.01337  0.54061  1.0000
  H   H634      1.0  0.49067  0.09163  0.93854  1.0000
  C   C381      1.0  0.47038  0.03457  0.21723  1.0000
  N   N27       1.0  0.48766  0.04640  0.17303  1.0000
  S   S113      1.0  0.49207  0.05276  0.30474  1.0000
  H   H635      1.0  0.48372  0.03028  0.19392  1.0000
  C   C382      1.0  0.49583  0.03671  0.79372  1.0000
  H   H636      1.0  0.46517  0.01444  0.49073  1.0000
  H   H637      1.0  0.47867  0.03283  0.40684  1.0000
  H   H638      1.0  0.49028  0.07220  0.07109  1.0000
  C   C383      1.0  0.49593  0.03595  0.28625  1.0000
  H   H639      1.0  0.48336  0.01771  0.54536  1.0000
  H   H640      1.0  0.49834  0.02295  0.26969  1.0000
  H   H641      1.0  0.49973  0.07786  0.11355  1.0000
  C   C384      1.0  0.46421  0.01468  0.43202  1.0000
  H   H642      1.0  0.46722  0.01189  0.40645  1.0000
  H   H643      1.0  0.49107  0.09792  0.01651  1.0000
  C   C385      1.0  0.48853  0.03843  0.43628  1.0000
  H   H644      1.0  0.48627  0.04175  0.46100  1.0000
  S   S114      1.0  0.49853  0.06572  0.88544  1.0000
  C   C386      1.0  0.49795  0.07203  0.06499  1.0000
  H   H645      1.0  0.49905  0.01735  0.88535  1.0000
  H   H646      1.0  0.49664  0.04905  0.21111  1.0000
  H   H647      1.0  0.45651  0.01012  0.44774  1.0000
  C   C387      1.0  0.49666  0.09053  0.91477  1.0000
  H   H648      1.0  0.50094  0.04392  0.78236  1.0000
  C   C388      1.0  0.50258  0.06898  0.03206  1.0000
  H   H649      1.0  0.48649  0.00963  0.42226  1.0000
  H   H650      1.0  0.49661  0.10637  0.94752  1.0000
  H   H651      1.0  0.49752  0.08940  0.00296  1.0000
  H   H652      1.0  0.50029  0.03393  0.18964  1.0000
  C   C389      1.0  0.49859  0.09722  0.00201  1.0000
  H   H653      1.0  0.50185  0.05653  0.15892  1.0000
  C   C390      1.0  0.50289  0.10471  0.95830  1.0000
  H   H654      1.0  0.50333  0.01572  0.83655  1.0000
  C   C391      1.0  0.50325  0.07513  0.08937  1.0000
  Fe  Fe56      1.0  0.50310  0.05178  0.87834  1.0000
  H   H655      1.0  0.50360  0.01624  0.65082  1.0000
  Fe  Fe57      1.0  0.50375  0.06335  0.94090  1.0000
  H   H656      1.0  0.50321  0.09866  0.02128  1.0000
  H   H657      1.0  0.50355  0.04007  0.27186  1.0000
  H   H658      1.0  0.50090  0.40192  0.06625  1.0000
  H   H659      1.0  0.48846  0.47859  0.54471  1.0000
  H   H660      1.0  0.50062  0.43801  0.32234  1.0000
  H   H661      1.0  0.48026  0.49931  0.32895  1.0000
  H   H662      1.0  0.49720  0.48240  0.46745  1.0000
  H   H663      1.0  0.48072  0.47765  0.48936  1.0000
  H   H664      1.0  0.47314  0.50550  0.40413  1.0000
  H   H665      1.0  0.49592  0.50091  0.52546  1.0000
  H   H666      1.0  0.44611  0.49875  0.03920  1.0000
  C   C392      1.0  0.48839  0.42704  0.28087  1.0000
  C   C393      1.0  0.49326  0.44022  0.13779  1.0000
  N   N28       1.0  0.47984  0.42399  0.17825  1.0000
  H   H667      1.0  0.50163  0.47458  0.86399  1.0000
  Fe  Fe58      1.0  0.47386  0.46125  0.39983  1.0000
  S   S115      1.0  0.46028  0.45804  0.38135  1.0000
  S   S116      1.0  0.47847  0.45379  0.45354  1.0000
  Fe  Fe59      1.0  0.48486  0.47779  0.32042  1.0000
  S   S117      1.0  0.47261  0.47619  0.29344  1.0000
  C   C394      1.0  0.44153  0.49555  0.32832  1.0000
  Fe  Fe60      1.0  0.46284  0.47466  0.35615  1.0000
  S   S118      1.0  0.45208  0.48422  0.36581  1.0000
  Fe  Fe61      1.0  0.47097  0.45979  0.31982  1.0000
  S   S119      1.0  0.46903  0.44901  0.28498  1.0000
  S   S120      1.0  0.47534  0.47760  0.38100  1.0000
  S   S121      1.0  0.48420  0.46166  0.34025  1.0000
  Fe  Fe62      1.0  0.47484  0.48432  0.69329  1.0000
  S   S122      1.0  0.48106  0.48511  0.62758  1.0000
  S   S123      1.0  0.47225  0.49835  0.70626  1.0000
  Fe  Fe63      1.0  0.47776  0.46337  0.72533  1.0000
  S   S124      1.0  0.48387  0.46240  0.66210  1.0000
  S   S125      1.0  0.47703  0.45182  0.78353  1.0000
  Fe  Fe64      1.0  0.49231  0.47800  0.64769  1.0000
  H   H668      1.0  0.47020  0.41004  0.22145  1.0000
  Fe  Fe65      1.0  0.47192  0.46948  0.64846  1.0000
  S   S126      1.0  0.46195  0.46508  0.61388  1.0000
  S   S127      1.0  0.48695  0.47860  0.71155  1.0000
  S   S128      1.0  0.46489  0.46910  0.71333  1.0000
  C   C395      1.0  0.47395  0.45703  0.49786  1.0000
  C   C396      1.0  0.47951  0.45718  0.52465  1.0000
  C   C397      1.0  0.47601  0.45986  0.56001  1.0000
  C   C398      1.0  0.46680  0.46207  0.56925  1.0000
  C   C399      1.0  0.46118  0.46170  0.54291  1.0000
  C   C400      1.0  0.46482  0.45936  0.50690  1.0000
  H   H669      1.0  0.48659  0.45539  0.51766  1.0000
  H   H670      1.0  0.48036  0.46007  0.58031  1.0000
  H   H671      1.0  0.45404  0.46338  0.55000  1.0000
  H   H672      1.0  0.46049  0.45921  0.48643  1.0000
  H   H673      1.0  0.50020  0.43972  0.24180  1.0000
  H   H674      1.0  0.47461  0.43736  0.17662  1.0000
  C   C401      1.0  0.49406  0.43322  0.81403  1.0000
  C   C402      1.0  0.48737  0.43928  0.81588  1.0000
  C   C403      1.0  0.48568  0.44449  0.78016  1.0000
  C   C404      1.0  0.49062  0.44348  0.74267  1.0000
  H   H675      1.0  0.40145  0.49780  0.78717  1.0000
  H   H676      1.0  0.49521  0.42914  0.84173  1.0000
  H   H677      1.0  0.48344  0.43988  0.84508  1.0000
  H   H678      1.0  0.48929  0.44731  0.71510  1.0000
  C   C405      1.0  0.47676  0.44081  0.28668  1.0000
  H   H679      1.0  0.47729  0.43205  0.22198  1.0000
  H   H680      1.0  0.46678  0.42756  0.62664  1.0000
  H   H681      1.0  0.49424  0.47392  0.91376  1.0000
  C   C406      1.0  0.47848  0.42388  0.30535  1.0000
  C   C407      1.0  0.47266  0.43071  0.30785  1.0000
  C   C408      1.0  0.49669  0.43832  0.92694  1.0000
  C   C409      1.0  0.49710  0.43723  0.74101  1.0000
  H   H682      1.0  0.47521  0.41607  0.32161  1.0000
  H   H683      1.0  0.46493  0.42816  0.32571  1.0000
  C   C410      1.0  0.44109  0.50046  0.76768  1.0000
  C   C411      1.0  0.44260  0.49141  0.76285  1.0000
  C   C412      1.0  0.45211  0.49065  0.74338  1.0000
  C   C413      1.0  0.46009  0.49898  0.72814  1.0000
  H   H684      1.0  0.50132  0.44273  0.12151  1.0000
  H   H685      1.0  0.50252  0.46766  0.69364  1.0000
  H   H686      1.0  0.43646  0.48495  0.77497  1.0000
  H   H687      1.0  0.45327  0.48361  0.74069  1.0000
  H   H688      1.0  0.49437  0.47399  0.37244  1.0000
  H   H689      1.0  0.48210  0.49417  0.79345  1.0000
  C   C414      1.0  0.43775  0.49441  0.26690  1.0000
  C   C415      1.0  0.44317  0.48721  0.26523  1.0000
  C   C416      1.0  0.44773  0.48418  0.29498  1.0000
  C   C417      1.0  0.44681  0.48824  0.32695  1.0000
  H   H690      1.0  0.45426  0.49968  0.09140  1.0000
  C   C418      1.0  0.50129  0.47901  0.36670  1.0000
  H   H691      1.0  0.44370  0.48385  0.24120  1.0000
  H   H692      1.0  0.45172  0.47849  0.29381  1.0000
  C   C419      1.0  0.47712  0.50370  0.30707  1.0000
  C   C420      1.0  0.49011  0.43509  0.38165  1.0000
  C   C421      1.0  0.43899  0.49902  0.05987  1.0000
  C   C422      1.0  0.43324  0.50371  0.03235  1.0000
  H   H693      1.0  0.46920  0.49880  0.83889  1.0000
  H   H694      1.0  0.48992  0.45183  0.24619  1.0000
  H   H695      1.0  0.44077  0.49871  0.35302  1.0000
  C   C423      1.0  0.47793  0.48434  0.48144  1.0000
  C   C424      1.0  0.46883  0.43563  0.62068  1.0000
  H   H696      1.0  0.49693  0.43125  0.94819  1.0000
  H   H697      1.0  0.43497  0.49117  0.07511  1.0000
  C   C425      1.0  0.49935  0.46054  0.91340  1.0000
  C   C426      1.0  0.49834  0.44232  0.34341  1.0000
  H   H698      1.0  0.44556  0.42291  0.73820  1.0000
  H   H699      1.0  0.49942  0.48639  0.54617  1.0000
  C   C427      1.0  0.49645  0.48186  0.52925  1.0000
  H   H700      1.0  0.47987  0.41517  0.23743  1.0000
  H   H701      1.0  0.46010  0.50049  0.42081  1.0000
  H   H702      1.0  0.47868  0.48664  0.44839  1.0000
  H   H703      1.0  0.45340  0.50178  0.83993  1.0000
  H   H704      1.0  0.47170  0.50353  0.89095  1.0000
  H   H705      1.0  0.45810  0.42345  0.72911  1.0000
  H   H706      1.0  0.44609  0.40993  0.71324  1.0000
  S   S129      1.0  0.43178  0.49763  0.22992  1.0000
  H   H707      1.0  0.44798  0.48553  0.15308  1.0000
  H   H708      1.0  0.45002  0.43344  0.63537  1.0000
  H   H709      1.0  0.39660  0.50120  0.83144  1.0000
  C   C428      1.0  0.43759  0.43418  0.68133  1.0000
  H   H710      1.0  0.43500  0.42629  0.70065  1.0000
  H   H711      1.0  0.43533  0.43900  0.69986  1.0000
  H   H712      1.0  0.43369  0.43515  0.65810  1.0000
  N   N29       1.0  0.49406  0.49622  0.47434  1.0000
  H   H713      1.0  0.48464  0.43086  0.37160  1.0000
  H   H714      1.0  0.46992  0.48223  0.49855  1.0000
  H   H715      1.0  0.46172  0.41954  0.25044  1.0000
  H   H716      1.0  0.41671  0.50284  0.73962  1.0000
  C   C429      1.0  0.49254  0.43716  0.26007  1.0000
  C   C430      1.0  0.47810  0.41409  0.21007  1.0000
  H   H717      1.0  0.49479  0.49422  0.41550  1.0000
  C   C431      1.0  0.47623  0.42278  0.14326  1.0000
  H   H718      1.0  0.46573  0.43944  0.59737  1.0000
  H   H719      1.0  0.47032  0.49839  0.30974  1.0000
  C   C432      1.0  0.49060  0.42923  0.16429  1.0000
  H   H720      1.0  0.44997  0.41855  0.66374  1.0000
  H   H721      1.0  0.50020  0.44393  0.41616  1.0000
  H   H722      1.0  0.48452  0.49583  0.83881  1.0000
  H   H723      1.0  0.43113  0.49864  0.01563  1.0000
  C   C433      1.0  0.40224  0.50389  0.80056  1.0000
  H   H724      1.0  0.45903  0.41426  0.68533  1.0000
  H   H725      1.0  0.45890  0.43420  0.76357  1.0000
  H   H726      1.0  0.47067  0.43585  0.67823  1.0000
  C   C434      1.0  0.46596  0.43862  0.65990  1.0000
  H   H727      1.0  0.48605  0.43916  0.40011  1.0000
  H   H728      1.0  0.47697  0.43810  0.60643  1.0000
  C   C435      1.0  0.43707  0.49869  0.29819  1.0000
  H   H729      1.0  0.48962  0.42805  0.08874  1.0000
  N   N30       1.0  0.44084  0.50423  0.08981  1.0000
  H   H730      1.0  0.44592  0.43942  0.73438  1.0000
  C   C436      1.0  0.48376  0.40673  0.19673  1.0000
  H   H731      1.0  0.49179  0.40993  0.18269  1.0000
  H   H732      1.0  0.42635  0.50498  0.05023  1.0000
  N   N31       1.0  0.45522  0.43532  0.68582  1.0000
  H   H733      1.0  0.49877  0.45857  0.94640  1.0000
  C   C437      1.0  0.49642  0.50031  0.42847  1.0000
  C   C438      1.0  0.46018  0.44163  0.74131  1.0000
  H   H734      1.0  0.43595  0.48740  0.16551  1.0000
  H   H735      1.0  0.47369  0.42937  0.12961  1.0000
  H   H736      1.0  0.49284  0.42963  0.40113  1.0000
  H   H737      1.0  0.49535  0.42549  0.14667  1.0000
  C   C439      1.0  0.45363  0.44170  0.71338  1.0000
  C   C440      1.0  0.44879  0.43721  0.65893  1.0000
  C   C441      1.0  0.49890  0.48777  0.48358  1.0000
  H   H738      1.0  0.48085  0.49050  0.52766  1.0000
  H   H739      1.0  0.40947  0.50527  0.80557  1.0000
  H   H740      1.0  0.47976  0.41950  0.08555  1.0000
  H   H741      1.0  0.45829  0.44659  0.75977  1.0000
  S   S130      1.0  0.49514  0.41806  0.27572  1.0000
  H   H742      1.0  0.50067  0.43626  0.71214  1.0000
  H   H743      1.0  0.46812  0.44451  0.72364  1.0000
  C   C442      1.0  0.45261  0.42468  0.71278  1.0000
  C   C443      1.0  0.42267  0.49556  0.13674  1.0000
  C   C444      1.0  0.50162  0.50371  0.69424  1.0000
  C   C445      1.0  0.44696  0.49921  0.11301  1.0000
  H   H744      1.0  0.46850  0.44686  0.64943  1.0000
  H   H745      1.0  0.49345  0.50158  0.70551  1.0000
  H   H746      1.0  0.48277  0.40044  0.22441  1.0000
  S   S131      1.0  0.49942  0.48891  0.29347  1.0000
  H   H747      1.0  0.45941  0.43120  0.22948  1.0000
  H   H748      1.0  0.43290  0.50423  0.29976  1.0000
  H   H749      1.0  0.46794  0.49506  0.39057  1.0000
  H   H750      1.0  0.48573  0.49886  0.25953  1.0000
  C   C446      1.0  0.41547  0.50513  0.70967  1.0000
  C   C447      1.0  0.46938  0.50557  0.81494  1.0000
  C   C448      1.0  0.49895  0.43217  0.77652  1.0000
  C   C449      1.0  0.46300  0.42544  0.22115  1.0000
  H   H751      1.0  0.42436  0.48864  0.13277  1.0000
  C   C450      1.0  0.44250  0.48826  0.13929  1.0000
  H   H752      1.0  0.41951  0.49404  0.17034  1.0000
  H   H753      1.0  0.44078  0.48340  0.12134  1.0000
  H   H754      1.0  0.49189  0.45715  0.91331  1.0000
  H   H755      1.0  0.45932  0.42250  0.20157  1.0000
  H   H756      1.0  0.45479  0.44959  0.69493  1.0000
  C   C451      1.0  0.48703  0.49863  0.80497  1.0000
  H   H757      1.0  0.49446  0.49730  0.79419  1.0000
  H   H758      1.0  0.49314  0.42898  0.19135  1.0000
  C   C452      1.0  0.47410  0.43014  0.19901  1.0000
  H   H759      1.0  0.48947  0.44145  0.11436  1.0000
  H   H760      1.0  0.46905  0.50313  0.78805  1.0000
  H   H761      1.0  0.49019  0.44058  0.94264  1.0000
  H   H762      1.0  0.48703  0.41507  0.11607  1.0000
  H   H763      1.0  0.45076  0.44521  0.64081  1.0000
  H   H764      1.0  0.49904  0.45536  0.38778  1.0000
  C   C453      1.0  0.48365  0.42125  0.10679  1.0000
  H   H765      1.0  0.46960  0.41645  0.15462  1.0000
  H   H766      1.0  0.49147  0.44497  0.15732  1.0000
  H   H767      1.0  0.49747  0.45169  0.85713  1.0000
  H   H768      1.0  0.47949  0.49895  0.48489  1.0000
  H   H769      1.0  0.50006  0.47559  0.53146  1.0000
  H   H770      1.0  0.49459  0.44749  0.32787  1.0000
  C   C454      1.0  0.45198  0.41655  0.69204  1.0000
  C   C455      1.0  0.48303  0.49279  0.49360  1.0000
  S   S132      1.0  0.42928  0.50133  0.79373  1.0000
  C   C456      1.0  0.49794  0.50395  0.49157  1.0000
  H   H771      1.0  0.49569  0.43667  0.89938  1.0000
  H   H772      1.0  0.41234  0.49819  0.70450  1.0000
  H   H773      1.0  0.44850  0.50302  0.13495  1.0000
  H   H774      1.0  0.41665  0.49704  0.12386  1.0000
  C   C457      1.0  0.50081  0.47188  0.89707  1.0000
  H   H775      1.0  0.48069  0.40351  0.17625  1.0000
  C   C458      1.0  0.46701  0.50221  0.39490  1.0000
  C   C459      1.0  0.48675  0.44405  0.26308  1.0000
  C   C460      1.0  0.43147  0.50483  0.11897  1.0000
  H   H776      1.0  0.45946  0.50532  0.35056  1.0000
  H   H777      1.0  0.49166  0.50531  0.42033  1.0000
  H   H778      1.0  0.48510  0.50599  0.87454  1.0000
  H   H779      1.0  0.50273  0.47130  0.42440  1.0000
  H   H780      1.0  0.50175  0.49851  0.64301  1.0000
  C   C461      1.0  0.48449  0.50595  0.26398  1.0000
  H   H781      1.0  0.48969  0.50650  0.62869  1.0000
  H   H782      1.0  0.43297  0.50679  0.14532  1.0000
  Fe  Fe66      1.0  0.47169  0.54968  0.32829  1.0000
  S   S133      1.0  0.48253  0.55325  0.36023  1.0000
  S   S134      1.0  0.45908  0.53602  0.35556  1.0000
  Fe  Fe67      1.0  0.48216  0.56911  0.33319  1.0000
  S   S135      1.0  0.48104  0.57865  0.37471  1.0000
  S   S136      1.0  0.47036  0.56533  0.30628  1.0000
  S   S137      1.0  0.41575  0.53449  0.19287  1.0000
  H   H783      1.0  0.43659  0.59804  0.67984  1.0000
  Fe  Fe68      1.0  0.42684  0.53191  0.22488  1.0000
  S   S138      1.0  0.43378  0.54501  0.23873  1.0000
  H   H784      1.0  0.28532  0.64288  0.22852  1.0000
  Fe  Fe69      1.0  0.44900  0.61533  0.40937  1.0000
  S   S139      1.0  0.44710  0.60724  0.47479  1.0000
  S   S140      1.0  0.45847  0.61304  0.35253  1.0000
  Fe  Fe70      1.0  0.43162  0.62489  0.43318  1.0000
  S   S141      1.0  0.42853  0.61761  0.50073  1.0000
  S   S142      1.0  0.41979  0.63069  0.41031  1.0000
  Fe  Fe71      1.0  0.44498  0.62152  0.48595  1.0000
  S   S143      1.0  0.45276  0.62590  0.52817  1.0000
  Fe  Fe72      1.0  0.43095  0.60414  0.48405  1.0000
  S   S144      1.0  0.42040  0.58931  0.51615  1.0000
  S   S145      1.0  0.44806  0.63003  0.41909  1.0000
  S   S146      1.0  0.43296  0.61097  0.41789  1.0000
  Fe  Fe73      1.0  0.36734  0.56741  0.38164  1.0000
  S   S147      1.0  0.36535  0.57175  0.43888  1.0000
  S   S148      1.0  0.35995  0.57131  0.33314  1.0000
  Fe  Fe74      1.0  0.38420  0.55796  0.39237  1.0000
  S   S149      1.0  0.38360  0.56140  0.45026  1.0000
  S   S150      1.0  0.39710  0.55220  0.36583  1.0000
  Fe  Fe75      1.0  0.36724  0.55658  0.46688  1.0000
  S   S151      1.0  0.36001  0.54685  0.53247  1.0000
  Fe  Fe76      1.0  0.38186  0.57622  0.41819  1.0000
  S   S152      1.0  0.38998  0.59090  0.41808  1.0000
  S   S153      1.0  0.36788  0.55171  0.41117  1.0000
  S   S154      1.0  0.38376  0.57324  0.35859  1.0000
  Fe  Fe77      1.0  0.47797  0.55221  0.96383  1.0000
  S   S155      1.0  0.48243  0.56299  0.90022  1.0000
  S   S156      1.0  0.46519  0.53897  0.98676  1.0000
  Fe  Fe78      1.0  0.48416  0.57455  0.93080  1.0000
  S   S157      1.0  0.47840  0.58834  0.91791  1.0000
  S   S158      1.0  0.47840  0.56381  0.99485  1.0000
  Fe  Fe79      1.0  0.42951  0.61859  0.76133  1.0000
  S   S159      1.0  0.44243  0.62252  0.78287  1.0000
  S   S160      1.0  0.42617  0.62460  0.70243  1.0000
  Fe  Fe80      1.0  0.41689  0.60438  0.84497  1.0000
  S   S161      1.0  0.42851  0.60681  0.87486  1.0000
  S   S162      1.0  0.40153  0.59460  0.87213  1.0000
  Fe  Fe81      1.0  0.43107  0.62294  0.83914  1.0000
  H   H785      1.0  0.40486  0.53309  0.72972  1.0000
  Fe  Fe82      1.0  0.43901  0.60614  0.81712  1.0000
  S   S163      1.0  0.44930  0.59582  0.81348  1.0000
  S   S164      1.0  0.41858  0.62043  0.81479  1.0000
  S   S165      1.0  0.42704  0.60230  0.79044  1.0000
  Fe  Fe83      1.0  0.37770  0.57600  0.73803  1.0000
  S   S166      1.0  0.37463  0.56338  0.79507  1.0000
  S   S167      1.0  0.38883  0.59041  0.72040  1.0000
  Fe  Fe84      1.0  0.36138  0.56592  0.71349  1.0000
  S   S168      1.0  0.35644  0.55249  0.76994  1.0000
  S   S169      1.0  0.35460  0.56983  0.66306  1.0000
  Fe  Fe85      1.0  0.35879  0.56338  0.80371  1.0000
  S   S170      1.0  0.35072  0.56286  0.86768  1.0000
  Fe  Fe86      1.0  0.37269  0.55363  0.75702  1.0000
  S   S171      1.0  0.37871  0.54014  0.76843  1.0000
  S   S172      1.0  0.36204  0.57668  0.74886  1.0000
  S   S173      1.0  0.37750  0.56628  0.69823  1.0000
  Fe  Fe87      1.0  0.44376  0.52920  0.83516  1.0000
  S   S174      1.0  0.43875  0.52927  0.78111  1.0000
  S   S175      1.0  0.45989  0.53449  0.82378  1.0000
  Fe  Fe88      1.0  0.42619  0.53460  0.81251  1.0000
  H   H786      1.0  0.29888  0.60350  0.31750  1.0000
  S   S176      1.0  0.43210  0.53607  0.86348  1.0000
  C   C462      1.0  0.41505  0.52061  0.06597  1.0000
  Fe  Fe89      1.0  0.31846  0.62065  0.24093  1.0000
  S   S177      1.0  0.32980  0.62720  0.17852  1.0000
  S   S178      1.0  0.30332  0.62377  0.25165  1.0000
  Fe  Fe90      1.0  0.33257  0.61099  0.27829  1.0000
  S   S179      1.0  0.34485  0.61640  0.21872  1.0000
  S   S180      1.0  0.33467  0.60318  0.33798  1.0000
  Fe  Fe91      1.0  0.34054  0.63083  0.21122  1.0000
  S   S181      1.0  0.35274  0.64491  0.18354  1.0000
  Fe  Fe92      1.0  0.33308  0.61228  0.19149  1.0000
  S   S182      1.0  0.33582  0.60507  0.14217  1.0000
  S   S183      1.0  0.32890  0.62574  0.27265  1.0000
  S   S184      1.0  0.32109  0.60540  0.25211  1.0000
  H   H787      1.0  0.29643  0.59330  0.75054  1.0000
  C   C463      1.0  0.41166  0.60514  0.63667  1.0000
  C   C464      1.0  0.28497  0.60465  0.35430  1.0000
  H   H788      1.0  0.28686  0.56386  0.19496  1.0000
  C   C465      1.0  0.41654  0.59870  0.66335  1.0000
  H   H789      1.0  0.31490  0.58610  0.36406  1.0000
  C   C466      1.0  0.29059  0.58897  0.78013  1.0000
  H   H790      1.0  0.28568  0.60227  0.78921  1.0000
  H   H791      1.0  0.46225  0.64276  0.19878  1.0000
  H   H792      1.0  0.42866  0.51101  0.10380  1.0000
  C   C467      1.0  0.30795  0.58851  0.36513  1.0000
  Fe  Fe93      1.0  0.30970  0.60465  0.98284  1.0000
  S   S185      1.0  0.31185  0.61957  0.93772  1.0000
  S   S186      1.0  0.30421  0.60398  0.04906  1.0000
  Fe  Fe94      1.0  0.31460  0.59509  0.91577  1.0000
  S   S187      1.0  0.31732  0.60941  0.86654  1.0000
  S   S188      1.0  0.31474  0.58257  0.88945  1.0000
  Fe  Fe95      1.0  0.32544  0.61613  0.90249  1.0000
  S   S189      1.0  0.34102  0.62575  0.87141  1.0000
  Fe  Fe96      1.0  0.30343  0.61108  0.90713  1.0000
  S   S190      1.0  0.29135  0.61572  0.88238  1.0000
  S   S191      1.0  0.32372  0.60157  0.94917  1.0000
  S   S192      1.0  0.30033  0.59643  0.95486  1.0000
  C   C468      1.0  0.26307  0.59396  0.89323  1.0000
  C   C469      1.0  0.26997  0.59048  0.91082  1.0000
  C   C470      1.0  0.27859  0.59706  0.90822  1.0000
  C   C471      1.0  0.28044  0.60720  0.88770  1.0000
  C   C472      1.0  0.27343  0.61070  0.87095  1.0000
  C   C473      1.0  0.26476  0.60413  0.87388  1.0000
  H   H793      1.0  0.47968  0.54477  0.07457  1.0000
  H   H794      1.0  0.28387  0.59425  0.92146  1.0000
  H   H795      1.0  0.27475  0.61853  0.85518  1.0000
  C   C474      1.0  0.49306  0.57809  0.79168  1.0000
  H   H796      1.0  0.30376  0.60635  0.76483  1.0000
  C   C475      1.0  0.34287  0.64258  0.94583  1.0000
  C   C476      1.0  0.33925  0.63560  0.92876  1.0000
  C   C477      1.0  0.34551  0.63395  0.89535  1.0000
  C   C478      1.0  0.41750  0.52256  0.73797  1.0000
  H   H797      1.0  0.42494  0.54536  0.97144  1.0000
  H   H798      1.0  0.33155  0.63168  0.94082  1.0000
  H   H799      1.0  0.28442  0.58977  0.18395  1.0000
  H   H800      1.0  0.43910  0.57861  0.96708  1.0000
  C   C479      1.0  0.32718  0.60520  0.11556  1.0000
  C   C480      1.0  0.32862  0.60157  0.08220  1.0000
  C   C481      1.0  0.32178  0.60150  0.06074  1.0000
  C   C482      1.0  0.31338  0.60495  0.07285  1.0000
  C   C483      1.0  0.31196  0.60866  0.10607  1.0000
  C   C484      1.0  0.31886  0.60882  0.12731  1.0000
  H   H801      1.0  0.33503  0.59875  0.07305  1.0000
  H   H802      1.0  0.32288  0.59852  0.03553  1.0000
  H   H803      1.0  0.30545  0.61130  0.11572  1.0000
  H   H804      1.0  0.31765  0.61157  0.15319  1.0000
  C   C485      1.0  0.35882  0.64920  0.21492  1.0000
  C   C486      1.0  0.35457  0.64602  0.25754  1.0000
  C   C487      1.0  0.35948  0.64975  0.28170  1.0000
  H   H805      1.0  0.42780  0.66806  0.97585  1.0000
  C   C488      1.0  0.38661  0.55393  0.25421  1.0000
  H   H806      1.0  0.48621  0.51204  0.49853  1.0000
  H   H807      1.0  0.34744  0.64080  0.27185  1.0000
  H   H808      1.0  0.35612  0.64735  0.31463  1.0000
  H   H809      1.0  0.42630  0.52607  0.67276  1.0000
  H   H810      1.0  0.37910  0.60512  0.34485  1.0000
  H   H811      1.0  0.36585  0.59813  0.74063  1.0000
  H   H812      1.0  0.36132  0.60794  0.75435  1.0000
  C   C489      1.0  0.27481  0.63314  0.94893  1.0000
  C   C490      1.0  0.28269  0.59493  0.78690  1.0000
  C   C491      1.0  0.27770  0.60155  0.24574  1.0000
  C   C492      1.0  0.27659  0.61081  0.24877  1.0000
  C   C493      1.0  0.28447  0.61752  0.25103  1.0000
  C   C494      1.0  0.29363  0.61523  0.24821  1.0000
  C   C495      1.0  0.29477  0.60607  0.24418  1.0000
  C   C496      1.0  0.28675  0.59915  0.24429  1.0000
  H   H813      1.0  0.44583  0.52005  0.11769  1.0000
  H   H814      1.0  0.28345  0.62448  0.25524  1.0000
  H   H815      1.0  0.30175  0.60419  0.24204  1.0000
  H   H816      1.0  0.28756  0.59190  0.24335  1.0000
  C   C497      1.0  0.39052  0.54276  0.77279  1.0000
  C   C498      1.0  0.39758  0.55137  0.74624  1.0000
  C   C499      1.0  0.40733  0.55280  0.74693  1.0000
  C   C500      1.0  0.40996  0.54573  0.77472  1.0000
  C   C501      1.0  0.40276  0.53743  0.80281  1.0000
  C   C502      1.0  0.39308  0.53587  0.80142  1.0000
  H   H817      1.0  0.39560  0.55671  0.72416  1.0000
  H   H818      1.0  0.41287  0.55930  0.72551  1.0000
  H   H819      1.0  0.40465  0.53211  0.82515  1.0000
  H   H820      1.0  0.38757  0.52927  0.82233  1.0000
  C   C503      1.0  0.34096  0.56868  0.87282  1.0000
  C   C504      1.0  0.33744  0.57195  0.84005  1.0000
  C   C505      1.0  0.32949  0.57641  0.84517  1.0000
  C   C506      1.0  0.32526  0.57789  0.88260  1.0000
  C   C507      1.0  0.32896  0.57486  0.91502  1.0000
  C   C508      1.0  0.33668  0.57009  0.91036  1.0000
  H   H821      1.0  0.34065  0.57078  0.81119  1.0000
  H   H822      1.0  0.32656  0.57862  0.82020  1.0000
  H   H823      1.0  0.32561  0.57584  0.94416  1.0000
  H   H824      1.0  0.33937  0.56750  0.93581  1.0000
  C   C509      1.0  0.39704  0.59445  0.83106  1.0000
  C   C510      1.0  0.38843  0.58751  0.83703  1.0000
  C   C511      1.0  0.38563  0.58650  0.80323  1.0000
  C   C512      1.0  0.39138  0.59247  0.76347  1.0000
  C   C513      1.0  0.39952  0.59993  0.75795  1.0000
  C   C514      1.0  0.40237  0.60087  0.79160  1.0000
  H   H825      1.0  0.38411  0.58272  0.86759  1.0000
  H   H826      1.0  0.37904  0.58107  0.80807  1.0000
  H   H827      1.0  0.40383  0.60485  0.72762  1.0000
  H   H828      1.0  0.40881  0.60650  0.78655  1.0000
  C   C515      1.0  0.47031  0.59030  0.88874  1.0000
  C   C516      1.0  0.46928  0.58505  0.86157  1.0000
  C   C517      1.0  0.46321  0.58722  0.83716  1.0000
  C   C518      1.0  0.45766  0.59423  0.84141  1.0000
  C   C519      1.0  0.45858  0.59939  0.86895  1.0000
  C   C520      1.0  0.46500  0.59754  0.89202  1.0000
  H   H829      1.0  0.47312  0.57930  0.85932  1.0000
  H   H830      1.0  0.46250  0.58317  0.81600  1.0000
  H   H831      1.0  0.45436  0.60484  0.87235  1.0000
  H   H832      1.0  0.26779  0.60938  0.06039  1.0000
  C   C521      1.0  0.46425  0.53586  0.94353  1.0000
  C   C522      1.0  0.47223  0.53951  0.90736  1.0000
  C   C523      1.0  0.47100  0.53875  0.87059  1.0000
  C   C524      1.0  0.46176  0.53425  0.87026  1.0000
  C   C525      1.0  0.45397  0.52988  0.90698  1.0000
  C   C526      1.0  0.45527  0.53058  0.94378  1.0000
  H   H833      1.0  0.47931  0.54310  0.90757  1.0000
  H   H834      1.0  0.47710  0.54195  0.84231  1.0000
  H   H835      1.0  0.44689  0.52619  0.90691  1.0000
  H   H836      1.0  0.44924  0.52738  0.97200  1.0000
  C   C527      1.0  0.35871  0.55333  0.56844  1.0000
  C   C528      1.0  0.35556  0.56210  0.56099  1.0000
  C   C529      1.0  0.35403  0.56691  0.59080  1.0000
  C   C530      1.0  0.35603  0.56323  0.62754  1.0000
  C   C531      1.0  0.35935  0.55455  0.63476  1.0000
  C   C532      1.0  0.36052  0.54953  0.60554  1.0000
  H   H837      1.0  0.35400  0.56500  0.53277  1.0000
  H   H838      1.0  0.35136  0.57355  0.58522  1.0000
  H   H839      1.0  0.36087  0.55164  0.66308  1.0000
  H   H840      1.0  0.36289  0.54271  0.61157  1.0000
  C   C533      1.0  0.35280  0.58005  0.33520  1.0000
  C   C534      1.0  0.35024  0.58444  0.30060  1.0000
  C   C535      1.0  0.34461  0.59149  0.30124  1.0000
  C   C536      1.0  0.34141  0.59410  0.33673  1.0000
  C   C537      1.0  0.34385  0.58961  0.37151  1.0000
  C   C538      1.0  0.34959  0.58266  0.37067  1.0000
  H   H841      1.0  0.35266  0.58240  0.27315  1.0000
  H   H842      1.0  0.34272  0.59486  0.27434  1.0000
  H   H843      1.0  0.34134  0.59155  0.39915  1.0000
  H   H844      1.0  0.35141  0.57922  0.39764  1.0000
  C   C539      1.0  0.44539  0.62559  0.57655  1.0000
  C   C540      1.0  0.44905  0.62378  0.60984  1.0000
  C   C541      1.0  0.44317  0.62325  0.64898  1.0000
  C   C542      1.0  0.43370  0.62479  0.65461  1.0000
  C   C543      1.0  0.43010  0.62671  0.62125  1.0000
  C   C544      1.0  0.43587  0.62700  0.58243  1.0000
  H   H845      1.0  0.45642  0.62270  0.60539  1.0000
  N   N32       1.0  0.36720  0.61753  0.31657  1.0000
  H   H846      1.0  0.42280  0.62798  0.62541  1.0000
  H   H847      1.0  0.43305  0.62855  0.55686  1.0000
  H   H848      1.0  0.38296  0.62306  0.28791  1.0000
  S   S193      1.0  0.38837  0.65758  0.04668  1.0000
  C   C545      1.0  0.28955  0.58835  0.15811  1.0000
  C   C546      1.0  0.41325  0.64422  0.36104  1.0000
  C   C547      1.0  0.29016  0.57430  0.88866  1.0000
  H   H849      1.0  0.45330  0.52881  0.06980  1.0000
  C   C548      1.0  0.45644  0.64629  0.28987  1.0000
  S   S194      1.0  0.39197  0.51949  0.27880  1.0000
  H   H850      1.0  0.30756  0.61004  0.80327  1.0000
  H   H851      1.0  0.45386  0.55594  0.97690  1.0000
  C   C549      1.0  0.41142  0.58958  0.49169  1.0000
  C   C550      1.0  0.40630  0.58083  0.48913  1.0000
  C   C551      1.0  0.39973  0.58120  0.46646  1.0000
  C   C552      1.0  0.39826  0.59027  0.44625  1.0000
  C   C553      1.0  0.40331  0.59901  0.44931  1.0000
  C   C554      1.0  0.40980  0.59865  0.47235  1.0000
  H   H852      1.0  0.40751  0.57379  0.50415  1.0000
  H   H853      1.0  0.39585  0.57444  0.46480  1.0000
  H   H854      1.0  0.40218  0.60607  0.43409  1.0000
  H   H855      1.0  0.41352  0.60544  0.47508  1.0000
  C   C555      1.0  0.39322  0.52832  0.30452  1.0000
  C   C556      1.0  0.40228  0.53506  0.29374  1.0000
  C   C557      1.0  0.40330  0.54237  0.31254  1.0000
  C   C558      1.0  0.39528  0.54298  0.34276  1.0000
  C   C559      1.0  0.38619  0.53615  0.35449  1.0000
  H   H856      1.0  0.29689  0.56582  0.82360  1.0000
  H   H857      1.0  0.40861  0.53468  0.27104  1.0000
  H   H858      1.0  0.41037  0.54760  0.30327  1.0000
  H   H859      1.0  0.29417  0.58465  0.45341  1.0000
  H   H860      1.0  0.37362  0.60660  0.75419  1.0000
  C   C560      1.0  0.47440  0.58789  0.36843  1.0000
  C   C561      1.0  0.47106  0.59157  0.40093  1.0000
  C   C562      1.0  0.46605  0.59917  0.39656  1.0000
  C   C563      1.0  0.46454  0.60332  0.35927  1.0000
  C   C564      1.0  0.46789  0.59965  0.32667  1.0000
  C   C565      1.0  0.47269  0.59188  0.33137  1.0000
  H   H861      1.0  0.47239  0.58857  0.42962  1.0000
  H   H862      1.0  0.46361  0.60198  0.42176  1.0000
  H   H863      1.0  0.46677  0.60282  0.29767  1.0000
  H   H864      1.0  0.47529  0.58915  0.30600  1.0000
  C   C566      1.0  0.45077  0.53797  0.32830  1.0000
  C   C567      1.0  0.44589  0.53024  0.31829  1.0000
  C   C568      1.0  0.44039  0.53225  0.29140  1.0000
  C   C569      1.0  0.43968  0.54196  0.27534  1.0000
  C   C570      1.0  0.44401  0.54951  0.28760  1.0000
  C   C571      1.0  0.44946  0.54748  0.31437  1.0000
  H   H865      1.0  0.44663  0.52279  0.33020  1.0000
  H   H866      1.0  0.43697  0.52637  0.28220  1.0000
  H   H867      1.0  0.44331  0.55699  0.27579  1.0000
  H   H868      1.0  0.45260  0.55329  0.32433  1.0000
  H   H869      1.0  0.35592  0.53994  0.31846  1.0000
  H   H870      1.0  0.27843  0.61881  0.02732  1.0000
  S   S195      1.0  0.41332  0.51506  0.96173  1.0000
  C   C572      1.0  0.41060  0.53047  0.45469  1.0000
  H   H871      1.0  0.44125  0.65904  0.25528  1.0000
  H   H872      1.0  0.42444  0.53678  0.68870  1.0000
  H   H873      1.0  0.25747  0.65749  0.76488  1.0000
  H   H874      1.0  0.49587  0.51720  0.44976  1.0000
  S   S196      1.0  0.43456  0.52475  0.18235  1.0000
  C   C573      1.0  0.48234  0.52601  0.34596  1.0000
  H   H875      1.0  0.28024  0.63733  0.91819  1.0000
  H   H876      1.0  0.47222  0.52529  0.77891  1.0000
  C   C574      1.0  0.48733  0.57145  0.14634  1.0000
  H   H877      1.0  0.48905  0.60227  0.83103  1.0000
  H   H878      1.0  0.25793  0.61830  0.93651  1.0000
  H   H879      1.0  0.43320  0.64813  0.29525  1.0000
  C   C575      1.0  0.40679  0.52349  0.40391  1.0000
  H   H880      1.0  0.28127  0.65156  0.09259  1.0000
  C   C576      1.0  0.48379  0.51784  0.32596  1.0000
  H   H881      1.0  0.37193  0.55799  0.30915  1.0000
  C   C577      1.0  0.35874  0.54769  0.31688  1.0000
  H   H882      1.0  0.26693  0.63109  0.03180  1.0000
  C   C578      1.0  0.25462  0.63839  0.18701  1.0000
  H   H883      1.0  0.47042  0.52601  0.29498  1.0000
  H   H884      1.0  0.49459  0.56181  0.17853  1.0000
  H   H885      1.0  0.43045  0.66692  0.71268  1.0000
  H   H886      1.0  0.48161  0.50945  0.23937  1.0000
  C   C579      1.0  0.50230  0.56497  0.40788  1.0000
  H   H887      1.0  0.40117  0.52772  0.39948  1.0000
  N   N33       1.0  0.38182  0.59213  0.57485  1.0000
  C   C580      1.0  0.38731  0.58470  0.56380  1.0000
  C   C581      1.0  0.38824  0.60239  0.55014  1.0000
  C   C582      1.0  0.37231  0.59100  0.56504  1.0000
  C   C583      1.0  0.37950  0.59037  0.62024  1.0000
  C   C584      1.0  0.38136  0.57381  0.57922  1.0000
  C   C585      1.0  0.39732  0.60565  0.56267  1.0000
  C   C586      1.0  0.37325  0.59185  0.52003  1.0000
  C   C587      1.0  0.37409  0.59748  0.63750  1.0000
  H   H888      1.0  0.39043  0.58670  0.53018  1.0000
  H   H889      1.0  0.39375  0.58482  0.57524  1.0000
  H   H890      1.0  0.38396  0.60812  0.55052  1.0000
  H   H891      1.0  0.39109  0.60306  0.51713  1.0000
  H   H892      1.0  0.36712  0.58382  0.58490  1.0000
  H   H893      1.0  0.36844  0.59668  0.57234  1.0000
  H   H894      1.0  0.37461  0.58286  0.63765  1.0000
  H   H895      1.0  0.38618  0.59019  0.63007  1.0000
  H   H896      1.0  0.37568  0.57267  0.56418  1.0000
  H   H897      1.0  0.38642  0.56911  0.57120  1.0000
  H   H898      1.0  0.37785  0.57097  0.61283  1.0000
  H   H899      1.0  0.40208  0.60036  0.56238  1.0000
  H   H900      1.0  0.40188  0.61290  0.54019  1.0000
  H   H901      1.0  0.39512  0.60674  0.59314  1.0000
  H   H902      1.0  0.36576  0.59055  0.51700  1.0000
  H   H903      1.0  0.37668  0.58622  0.50991  1.0000
  H   H904      1.0  0.37742  0.59933  0.49870  1.0000
  H   H905      1.0  0.36598  0.59443  0.64770  1.0000
  H   H906      1.0  0.37595  0.60502  0.61550  1.0000
  H   H907      1.0  0.37629  0.59839  0.66419  1.0000
  H   H908      1.0  0.45153  0.58282  0.34255  1.0000
  H   H909      1.0  0.44283  0.59346  0.41916  1.0000
  H   H910      1.0  0.44880  0.57261  0.32585  1.0000
  H   H911      1.0  0.28278  0.58828  0.46801  1.0000
  H   H912      1.0  0.28123  0.56260  0.12532  1.0000
  C   C588      1.0  0.27210  0.59209  0.13519  1.0000
  H   H913      1.0  0.46570  0.51938  0.23757  1.0000
  H   H914      1.0  0.43330  0.56120  0.00496  1.0000
  H   H915      1.0  0.31341  0.60177  0.78188  1.0000
  H   H916      1.0  0.43498  0.60627  0.62217  1.0000
  H   H917      1.0  0.29054  0.57950  0.90668  1.0000
  H   H918      1.0  0.43496  0.59949  0.28983  1.0000
  C   C589      1.0  0.42226  0.58524  0.36487  1.0000
  H   H919      1.0  0.39517  0.53071  0.45895  1.0000
  H   H920      1.0  0.43287  0.53012  0.70396  1.0000
  C   C590      1.0  0.40899  0.65252  0.96456  1.0000
  H   H921      1.0  0.27932  0.60201  0.02904  1.0000
  H   H922      1.0  0.26666  0.66588  0.69174  1.0000
  H   H923      1.0  0.41919  0.64930  0.07899  1.0000
  C   C591      1.0  0.43277  0.62579  0.31341  1.0000
  H   H924      1.0  0.43308  0.65476  0.96012  1.0000
  C   C592      1.0  0.42946  0.65404  0.84609  1.0000
  H   H925      1.0  0.29667  0.57885  0.19549  1.0000
  C   C593      1.0  0.40197  0.53555  0.45876  1.0000
  S   S197      1.0  0.49312  0.55051  0.96112  1.0000
  H   H926      1.0  0.49941  0.61257  0.79826  1.0000
  H   H927      1.0  0.42625  0.59177  0.72532  1.0000
  H   H928      1.0  0.43607  0.58594  0.70917  1.0000
  N   N34       1.0  0.30049  0.60329  0.37607  1.0000
  C   C594      1.0  0.30413  0.61445  0.36149  1.0000
  C   C595      1.0  0.30940  0.59902  0.36896  1.0000
  C   C596      1.0  0.31177  0.61875  0.37957  1.0000
  H   H929      1.0  0.30756  0.61729  0.32754  1.0000
  H   H930      1.0  0.31518  0.60380  0.33988  1.0000
  H   H931      1.0  0.31284  0.59897  0.39351  1.0000
  H   H932      1.0  0.29966  0.60157  0.43899  1.0000
  H   H933      1.0  0.31393  0.62695  0.36579  1.0000
  H   H934      1.0  0.30873  0.61710  0.41317  1.0000
  H   H935      1.0  0.31865  0.61621  0.37198  1.0000
  H   H936      1.0  0.30658  0.58846  0.33595  1.0000
  H   H937      1.0  0.28703  0.58224  0.77459  1.0000
  H   H938      1.0  0.30873  0.58704  0.76958  1.0000
  H   H939      1.0  0.30800  0.56966  0.78146  1.0000
  N   N35       1.0  0.36060  0.60066  0.83892  1.0000
  C   C597      1.0  0.35587  0.59268  0.87994  1.0000
  C   C598      1.0  0.35396  0.60767  0.83538  1.0000
  C   C599      1.0  0.37059  0.60599  0.83806  1.0000
  C   C600      1.0  0.36165  0.59572  0.80608  1.0000
  C   C601      1.0  0.36201  0.58529  0.89230  1.0000
  C   C602      1.0  0.34329  0.60309  0.83846  1.0000
  C   C603      1.0  0.37447  0.61708  0.81230  1.0000
  C   C604      1.0  0.36584  0.60265  0.76151  1.0000
  H   H940      1.0  0.35392  0.59603  0.90493  1.0000
  H   H941      1.0  0.34884  0.58811  0.88091  1.0000
  H   H942      1.0  0.35698  0.61386  0.80605  1.0000
  H   H943      1.0  0.35344  0.61127  0.85975  1.0000
  H   H944      1.0  0.37057  0.60587  0.86949  1.0000
  H   H945      1.0  0.37634  0.60214  0.82754  1.0000
  H   H946      1.0  0.36660  0.59066  0.80895  1.0000
  H   H947      1.0  0.35446  0.59089  0.80975  1.0000
  H   H948      1.0  0.35772  0.57991  0.92304  1.0000
  H   H949      1.0  0.36344  0.58085  0.87129  1.0000
  H   H950      1.0  0.36906  0.58896  0.89466  1.0000
  H   H951      1.0  0.34294  0.59922  0.81563  1.0000
  H   H952      1.0  0.33895  0.59806  0.86976  1.0000
  H   H953      1.0  0.33950  0.60915  0.83218  1.0000
  H   H954      1.0  0.37419  0.61864  0.78066  1.0000
  H   H955      1.0  0.38230  0.61959  0.81028  1.0000
  H   H956      1.0  0.37031  0.62166  0.82737  1.0000
  C   C605      1.0  0.43143  0.59077  0.69845  1.0000
  H   H957      1.0  0.30203  0.58294  0.39123  1.0000
  C   C606      1.0  0.30103  0.57170  0.79402  1.0000
  H   H958      1.0  0.42696  0.62206  0.34359  1.0000
  Fe  Fe97      1.0  0.42335  0.52031  0.89612  1.0000
  C   C607      1.0  0.49668  0.60613  0.82674  1.0000
  H   H959      1.0  0.29229  0.59787  0.83986  1.0000
  H   H960      1.0  0.43004  0.60467  0.58361  1.0000
  H   H961      1.0  0.40840  0.66545  0.75083  1.0000
  H   H962      1.0  0.44384  0.59293  0.61597  1.0000
  C   C608      1.0  0.29471  0.60004  0.42103  1.0000
  C   C609      1.0  0.28703  0.57863  0.85092  1.0000
  H   H963      1.0  0.29626  0.64461  0.07849  1.0000
  H   H964      1.0  0.44649  0.60236  0.56837  1.0000
  S   S198      1.0  0.50094  0.56144  0.03733  1.0000
  C   C610      1.0  0.25937  0.66488  0.68692  1.0000
  Fe  Fe98      1.0  0.38789  0.66494  0.98350  1.0000
  C   C611      1.0  0.44055  0.59621  0.59250  1.0000
  C   C612      1.0  0.42572  0.58603  0.67430  1.0000
  H   H965      1.0  0.41899  0.58078  0.69805  1.0000
  H   H966      1.0  0.42980  0.58106  0.66144  1.0000
  C   C613      1.0  0.29432  0.60070  0.35043  1.0000
  H   H967      1.0  0.29793  0.61804  0.36833  1.0000
  H   H968      1.0  0.29185  0.59260  0.35704  1.0000
  H   H969      1.0  0.30187  0.59282  0.85103  1.0000
  H   H970      1.0  0.27409  0.58075  0.10788  1.0000
  H   H971      1.0  0.43774  0.53415  0.00303  1.0000
  S   S199      1.0  0.25855  0.65131  0.90179  1.0000
  H   H972      1.0  0.43833  0.59073  0.57778  1.0000
  H   H973      1.0  0.27617  0.59081  0.81418  1.0000
  N   N36       1.0  0.42298  0.59312  0.64233  1.0000
  C   C614      1.0  0.30359  0.58194  0.79964  1.0000
  N   N37       1.0  0.29494  0.58612  0.81429  1.0000
  C   C615      1.0  0.43197  0.60050  0.61026  1.0000
  H   H974      1.0  0.29270  0.56603  0.08501  1.0000
  H   H975      1.0  0.27111  0.56836  0.16994  1.0000
  C   C616      1.0  0.39043  0.56244  0.26923  1.0000
  S   S200      1.0  0.42229  0.54741  0.77346  1.0000
  H   H976      1.0  0.27997  0.59639  0.76008  1.0000
  C   C617      1.0  0.29852  0.59496  0.82633  1.0000
  H   H977      1.0  0.28620  0.58559  0.42185  1.0000
  H   H978      1.0  0.28421  0.60652  0.97372  1.0000
  H   H979      1.0  0.47395  0.54510  0.19534  1.0000
  H   H980      1.0  0.45929  0.57403  0.13234  1.0000
  H   H981      1.0  0.42242  0.58310  0.60660  1.0000
  H   H982      1.0  0.28931  0.60455  0.42757  1.0000
  H   H983      1.0  0.29687  0.57172  0.77202  1.0000
  C   C618      1.0  0.28929  0.58900  0.44169  1.0000
  H   H984      1.0  0.41706  0.61035  0.60769  1.0000
  H   H985      1.0  0.43181  0.52776  0.95298  1.0000
  C   C619      1.0  0.41768  0.58735  0.62121  1.0000
  H   H986      1.0  0.28000  0.60220  0.38637  1.0000
  H   H987      1.0  0.28328  0.57240  0.84293  1.0000
  H   H988      1.0  0.42085  0.60372  0.67520  1.0000
  H   H989      1.0  0.41615  0.59244  0.59547  1.0000
  H   H990      1.0  0.41060  0.59353  0.69107  1.0000
  H   H991      1.0  0.28677  0.61284  0.34115  1.0000
  H   H992      1.0  0.28076  0.60168  0.33624  1.0000
  H   H993      1.0  0.40584  0.60049  0.63005  1.0000
  H   H994      1.0  0.38001  0.53645  0.37853  1.0000
  C   C620      1.0  0.50123  0.54095  0.86885  1.0000
  H   H995      1.0  0.26759  0.63444  0.94714  1.0000
  H   H996      1.0  0.26204  0.59905  0.02399  1.0000
  H   H997      1.0  0.40902  0.57346  0.67063  1.0000
  H   H998      1.0  0.28095  0.58198  0.86218  1.0000
  H   H999      1.0  0.40802  0.60968  0.65381  1.0000
  H   H1000     1.0  0.48994  0.52140  0.29658  1.0000
  C   C621      1.0  0.36858  0.62469  0.24034  1.0000
  C   C622      1.0  0.38518  0.52879  0.33542  1.0000
  S   S201      1.0  0.25781  0.60760  0.16540  1.0000
  H   H1001     1.0  0.49039  0.51397  0.66084  1.0000
  H   H1002     1.0  0.30814  0.58144  0.82048  1.0000
  S   S202      1.0  0.26791  0.59268  0.24490  1.0000
  H   H1003     1.0  0.40795  0.65435  0.03762  1.0000
  H   H1004     1.0  0.46598  0.56176  0.16603  1.0000
  C   C623      1.0  0.40786  0.57980  0.64854  1.0000
  H   H1005     1.0  0.29828  0.62775  0.11576  1.0000
  C   C624      1.0  0.48585  0.57538  0.10863  1.0000
  H   H1006     1.0  0.40932  0.53149  0.68138  1.0000
  H   H1007     1.0  0.42837  0.57332  0.95633  1.0000
  C   C625      1.0  0.30625  0.60369  0.79162  1.0000
  H   H1008     1.0  0.44238  0.51902  0.04992  1.0000
  H   H1009     1.0  0.41969  0.56346  0.86317  1.0000
  N   N38       1.0  0.43222  0.58476  0.36983  1.0000
  C   C626      1.0  0.45991  0.55878  0.15543  1.0000
  C   C627      1.0  0.45941  0.56752  0.12118  1.0000
  C   C628      1.0  0.46595  0.54360  0.21127  1.0000
  H   H1010     1.0  0.45301  0.55704  0.18155  1.0000
  H   H1011     1.0  0.46436  0.54977  0.22301  1.0000
  H   H1012     1.0  0.46402  0.53699  0.23877  1.0000
  H   H1013     1.0  0.43445  0.57722  0.32384  1.0000
  C   C629      1.0  0.42136  0.66590  0.96577  1.0000
  H   H1014     1.0  0.44631  0.57064  0.37991  1.0000
  H   H1015     1.0  0.40252  0.58318  0.66515  1.0000
  H   H1016     1.0  0.35557  0.54816  0.34810  1.0000
  H   H1017     1.0  0.41045  0.57801  0.90091  1.0000
  C   C630      1.0  0.43637  0.57685  0.94299  1.0000
  C   C631      1.0  0.39480  0.66536  0.06703  1.0000
  H   H1018     1.0  0.45179  0.53961  0.20349  1.0000
  H   H1019     1.0  0.46597  0.56978  0.09345  1.0000
  H   H1020     1.0  0.45250  0.56589  0.11366  1.0000
  C   C632      1.0  0.43550  0.57670  0.35410  1.0000
  C   C633      1.0  0.44609  0.57571  0.35094  1.0000
  H   H1021     1.0  0.42266  0.58717  0.33213  1.0000
  H   H1022     1.0  0.42332  0.55770  0.95606  1.0000
  H   H1023     1.0  0.41515  0.56985  0.37186  1.0000
  H   H1024     1.0  0.26959  0.61267  0.25063  1.0000
  H   H1025     1.0  0.38824  0.56930  0.25721  1.0000
  H   H1026     1.0  0.44940  0.57549  0.90212  1.0000
  H   H1027     1.0  0.43837  0.56904  0.89925  1.0000
  H   H1028     1.0  0.43718  0.58405  0.91977  1.0000
  C   C634      1.0  0.28007  0.56577  0.20981  1.0000
  H   H1029     1.0  0.37452  0.59510  0.32856  1.0000
  C   C635      1.0  0.45965  0.54145  0.18419  1.0000
  C   C636      1.0  0.41398  0.57560  0.38688  1.0000
  C   C637      1.0  0.44144  0.59810  0.29918  1.0000
  H   H1030     1.0  0.43066  0.56936  0.37433  1.0000
  H   H1031     1.0  0.40686  0.57721  0.38477  1.0000
  H   H1032     1.0  0.44454  0.59273  0.28563  1.0000
  H   H1033     1.0  0.44717  0.60523  0.28561  1.0000
  C   C638      1.0  0.44212  0.57055  0.92140  1.0000
  N   N39       1.0  0.46142  0.54957  0.14455  1.0000
  H   H1034     1.0  0.45228  0.53801  0.13214  1.0000
  H   H1035     1.0  0.45450  0.56488  0.86509  1.0000
  H   H1036     1.0  0.45996  0.57018  0.99427  1.0000
  H   H1037     1.0  0.26917  0.62489  0.07749  1.0000
  C   C639      1.0  0.42834  0.66037  0.34956  1.0000
  H   H1038     1.0  0.47703  0.55437  0.13124  1.0000
  C   C640      1.0  0.43911  0.59484  0.34612  1.0000
  H   H1039     1.0  0.41958  0.59121  0.37582  1.0000
  H   H1040     1.0  0.44632  0.59539  0.35127  1.0000
  H   H1041     1.0  0.41307  0.57255  0.41988  1.0000
  C   C641      1.0  0.26541  0.65117  0.21647  1.0000
  C   C642      1.0  0.37007  0.55070  0.30465  1.0000
  H   H1042     1.0  0.41882  0.55023  0.00919  1.0000
  H   H1043     1.0  0.37126  0.64381  0.03402  1.0000
  C   C643      1.0  0.45378  0.54615  0.12592  1.0000
  H   H1044     1.0  0.46070  0.53440  0.17858  1.0000
  H   H1045     1.0  0.44656  0.54749  0.14080  1.0000
  H   H1046     1.0  0.43614  0.60063  0.35722  1.0000
  H   H1047     1.0  0.36658  0.59749  0.37011  1.0000
  N   N40       1.0  0.44342  0.56114  0.94797  1.0000
  H   H1048     1.0  0.45931  0.56640  0.93197  1.0000
  C   C644      1.0  0.42711  0.52577  0.98431  1.0000
  C   C645      1.0  0.43102  0.58244  0.41502  1.0000
  H   H1049     1.0  0.42774  0.57440  0.43167  1.0000
  H   H1050     1.0  0.44649  0.58242  0.41302  1.0000
  H   H1051     1.0  0.28760  0.65587  0.16259  1.0000
  H   H1052     1.0  0.42783  0.63596  0.95843  1.0000
  H   H1053     1.0  0.44858  0.64707  0.35049  1.0000
  C   C646      1.0  0.45322  0.57014  0.98507  1.0000
  H   H1054     1.0  0.43846  0.58223  0.46075  1.0000
  H   H1055     1.0  0.29729  0.57231  0.88055  1.0000
  C   C647      1.0  0.42567  0.52923  0.69821  1.0000
  H   H1056     1.0  0.44693  0.56787  0.01370  1.0000
  H   H1057     1.0  0.45413  0.57789  0.96635  1.0000
  C   C648      1.0  0.42494  0.55221  0.97996  1.0000
  H   H1058     1.0  0.28477  0.56721  0.90849  1.0000
  H   H1059     1.0  0.34925  0.62332  0.12465  1.0000
  C   C649      1.0  0.28675  0.56898  0.10082  1.0000
  C   C650      1.0  0.47178  0.55148  0.11691  1.0000
  C   C651      1.0  0.44032  0.58531  0.42694  1.0000
  H   H1060     1.0  0.42576  0.58633  0.42934  1.0000
  H   H1061     1.0  0.29672  0.58280  0.09162  1.0000
  Fe  Fe99      1.0  0.42254  0.52592  0.15419  1.0000
  C   C652      1.0  0.43475  0.55617  0.98649  1.0000
  C   C653      1.0  0.45268  0.56306  0.95962  1.0000
  C   C654      1.0  0.43044  0.52942  0.01244  1.0000
  C   C655      1.0  0.45626  0.55037  0.07893  1.0000
  H   H1062     1.0  0.47324  0.55743  0.08763  1.0000
  H   H1063     1.0  0.45867  0.55852  0.06669  1.0000
  C   C656      1.0  0.29129  0.57667  0.11812  1.0000
  H   H1064     1.0  0.43803  0.55237  0.91336  1.0000
  H   H1065     1.0  0.36197  0.60350  0.30797  1.0000
  C   C657      1.0  0.27028  0.61649  0.03462  1.0000
  H   H1066     1.0  0.38083  0.57283  0.20627  1.0000
  H   H1067     1.0  0.48944  0.59186  0.79331  1.0000
  H   H1068     1.0  0.44957  0.54808  0.07064  1.0000
  C   C658      1.0  0.26573  0.62375  0.05409  1.0000
  H   H1069     1.0  0.48716  0.53634  0.72439  1.0000
  C   C659      1.0  0.44452  0.55395  0.92384  1.0000
  H   H1070     1.0  0.43638  0.54985  0.00712  1.0000
  H   H1071     1.0  0.29588  0.57311  0.13496  1.0000
  H   H1072     1.0  0.50377  0.59500  0.70864  1.0000
  S   S203      1.0  0.48123  0.57459  0.18909  1.0000
  C   C660      1.0  0.42442  0.52701  0.05295  1.0000
  H   H1073     1.0  0.43104  0.55250  0.36207  1.0000
  H   H1074     1.0  0.43973  0.64477  0.76450  1.0000
  H   H1075     1.0  0.40332  0.65637  0.97592  1.0000
  H   H1076     1.0  0.28428  0.59130  0.08750  1.0000
  H   H1077     1.0  0.46198  0.54724  0.06280  1.0000
  H   H1078     1.0  0.42761  0.54592  0.41515  1.0000
  C   C661      1.0  0.49422  0.51347  0.48295  1.0000
  N   N41       1.0  0.29307  0.64422  0.14224  1.0000
  H   H1079     1.0  0.36538  0.62972  0.22087  1.0000
  N   N42       1.0  0.28410  0.58081  0.14390  1.0000
  H   H1080     1.0  0.36812  0.61788  0.23127  1.0000
  C   C662      1.0  0.47473  0.54237  0.10682  1.0000
  H   H1081     1.0  0.46841  0.53646  0.10986  1.0000
  H   H1082     1.0  0.47915  0.53934  0.12601  1.0000
  H   H1083     1.0  0.37818  0.52346  0.34461  1.0000
  C   C663      1.0  0.45361  0.55726  0.88491  1.0000
  H   H1084     1.0  0.45796  0.51884  0.09307  1.0000
  S   S204      1.0  0.40324  0.66803  0.23708  1.0000
  C   C664      1.0  0.27885  0.58608  0.11674  1.0000
  C   C665      1.0  0.27640  0.57287  0.17988  1.0000
  H   H1085     1.0  0.37441  0.60954  0.27852  1.0000
  S   S205      1.0  0.42896  0.53239  0.08548  1.0000
  H   H1086     1.0  0.44488  0.54670  0.94332  1.0000
  H   H1087     1.0  0.29247  0.59564  0.13347  1.0000
  H   H1088     1.0  0.26871  0.59551  0.11230  1.0000
  H   H1089     1.0  0.26592  0.58738  0.16282  1.0000
  H   H1090     1.0  0.27716  0.63637  0.97081  1.0000
  H   H1091     1.0  0.49503  0.52523  0.88734  1.0000
  H   H1092     1.0  0.27160  0.57628  0.19926  1.0000
  C   C666      1.0  0.36885  0.60800  0.30900  1.0000
  C   C667      1.0  0.37248  0.60117  0.34020  1.0000
  Fe  Fe100     1.0  0.48271  0.56680  0.25014  1.0000
  H   H1093     1.0  0.27621  0.59823  0.14234  1.0000
  H   H1094     1.0  0.46046  0.55661  0.89268  1.0000
  H   H1095     1.0  0.45272  0.55222  0.86653  1.0000
  H   H1096     1.0  0.26705  0.60332  0.96973  1.0000
  H   H1097     1.0  0.41165  0.63261  0.87904  1.0000
  C   C668      1.0  0.26812  0.60461  0.99786  1.0000
  S   S206      1.0  0.43288  0.63561  0.86521  1.0000
  N   N43       1.0  0.26766  0.61500  0.99783  1.0000
  Fe  Fe101     1.0  0.37309  0.66382  0.93670  1.0000
  C   C669      1.0  0.28271  0.63776  0.15935  1.0000
  H   H1098     1.0  0.47761  0.51962  0.74308  1.0000
  H   H1099     1.0  0.42423  0.53851  0.35158  1.0000
  H   H1100     1.0  0.30063  0.65770  0.14877  1.0000
  Fe  Fe102     1.0  0.39509  0.66849  0.89252  1.0000
  H   H1101     1.0  0.43637  0.52268  0.42773  1.0000
  C   C670      1.0  0.41026  0.64732  0.74293  1.0000
  H   H1102     1.0  0.44756  0.65651  0.30803  1.0000
  H   H1103     1.0  0.39738  0.57307  0.87909  1.0000
  H   H1104     1.0  0.41789  0.63487  0.00197  1.0000
  C   C671      1.0  0.40775  0.57271  0.80007  1.0000
  H   H1105     1.0  0.42654  0.65131  0.92833  1.0000
  H   H1106     1.0  0.35519  0.61756  0.29105  1.0000
  H   H1107     1.0  0.37639  0.62848  0.23325  1.0000
  H   H1108     1.0  0.36553  0.62024  0.13519  1.0000
  C   C672      1.0  0.41555  0.57624  0.87605  1.0000
  H   H1109     1.0  0.41315  0.54197  0.36952  1.0000
  H   H1110     1.0  0.40738  0.63798  0.36543  1.0000
  H   H1111     1.0  0.27721  0.64230  0.15889  1.0000
  C   C673      1.0  0.42796  0.65091  0.37476  1.0000
  H   H1112     1.0  0.39398  0.56329  0.92505  1.0000
  H   H1113     1.0  0.42225  0.64395  0.78441  1.0000
  H   H1114     1.0  0.43050  0.63890  0.00027  1.0000
  H   H1115     1.0  0.44602  0.62181  0.67455  1.0000
  C   C674      1.0  0.42045  0.64279  0.38029  1.0000
  H   H1116     1.0  0.40366  0.57743  0.81397  1.0000
  C   C675      1.0  0.41769  0.51956  0.99683  1.0000
  C   C676      1.0  0.42200  0.65374  0.04595  1.0000
  C   C677      1.0  0.37697  0.62390  0.31276  1.0000
  H   H1117     1.0  0.29158  0.65950  0.05051  1.0000
  C   C678      1.0  0.35415  0.65283  0.05985  1.0000
  H   H1118     1.0  0.42290  0.66146  0.76460  1.0000
  C   C679      1.0  0.36257  0.62235  0.28579  1.0000
  H   H1119     1.0  0.40075  0.63775  0.00920  1.0000
  H   H1120     1.0  0.40737  0.64644  0.77625  1.0000
  Fe  Fe103     1.0  0.26582  0.67230  0.23535  1.0000
  C   C680      1.0  0.42298  0.66230  0.73260  1.0000
  H   H1121     1.0  0.37891  0.62133  0.34136  1.0000
  S   S207      1.0  0.50007  0.57484  0.92509  1.0000
  H   H1122     1.0  0.43339  0.64993  0.39022  1.0000
  C   C681      1.0  0.29846  0.58605  0.17137  1.0000
  H   H1123     1.0  0.45124  0.65076  0.22260  1.0000
  H   H1124     1.0  0.35319  0.60941  0.36248  1.0000
  C   C682      1.0  0.41499  0.64048  0.86863  1.0000
  C   C683      1.0  0.42529  0.63947  0.98232  1.0000
  H   H1125     1.0  0.36312  0.61106  0.38263  1.0000
  H   H1126     1.0  0.41981  0.55304  0.39523  1.0000
  H   H1127     1.0  0.33884  0.62319  0.03083  1.0000
  H   H1128     1.0  0.28092  0.63373  0.19244  1.0000
  H   H1129     1.0  0.29732  0.63263  0.18126  1.0000
  H   H1130     1.0  0.33792  0.64399  0.97100  1.0000
  C   C684      1.0  0.49366  0.51374  0.62926  1.0000
  N   N44       1.0  0.41766  0.65476  0.97941  1.0000
  C   C685      1.0  0.36001  0.61481  0.35918  1.0000
  C   C686      1.0  0.40375  0.64155  0.97571  1.0000
  H   H1131     1.0  0.36039  0.63782  0.85421  1.0000
  H   H1132     1.0  0.41036  0.51867  0.09735  1.0000
  H   H1133     1.0  0.35153  0.62761  0.00171  1.0000
  H   H1134     1.0  0.41104  0.64309  0.03859  1.0000
  H   H1135     1.0  0.39735  0.64112  0.96409  1.0000
  H   H1136     1.0  0.41462  0.54609  0.90554  1.0000
  C   C687      1.0  0.42522  0.64384  0.85927  1.0000
  H   H1137     1.0  0.35539  0.65866  0.07435  1.0000
  H   H1138     1.0  0.39913  0.63444  0.74919  1.0000
  H   H1139     1.0  0.40437  0.57669  0.62874  1.0000
  C   C688      1.0  0.34635  0.62483  0.03354  1.0000
  H   H1140     1.0  0.41573  0.57643  0.78791  1.0000
  H   H1141     1.0  0.36103  0.62938  0.28929  1.0000
  H   H1142     1.0  0.34740  0.61773  0.05090  1.0000
  H   H1143     1.0  0.38170  0.63911  0.26932  1.0000
  H   H1144     1.0  0.38283  0.63824  0.31815  1.0000
  C   C689      1.0  0.30042  0.63827  0.15039  1.0000
  H   H1145     1.0  0.30908  0.63804  0.08986  1.0000
  C   C690      1.0  0.45241  0.65204  0.31870  1.0000
  C   C691      1.0  0.34707  0.63278  0.05491  1.0000
  C   C692      1.0  0.37795  0.63520  0.30256  1.0000
  H   H1146     1.0  0.26867  0.58263  0.92617  1.0000
  H   H1147     1.0  0.41293  0.54520  0.85801  1.0000
  S   S208      1.0  0.37475  0.66088  0.29505  1.0000
  H   H1148     1.0  0.42926  0.52870  0.45778  1.0000
  H   H1149     1.0  0.40582  0.53595  0.90544  1.0000
  C   C693      1.0  0.40590  0.56210  0.82901  1.0000
  H   H1150     1.0  0.49022  0.58435  0.84003  1.0000
  C   C694      1.0  0.42363  0.66084  0.84144  1.0000
  C   C695      1.0  0.36872  0.65657  0.26352  1.0000
  H   H1151     1.0  0.39861  0.56425  0.25889  1.0000
  C   C696      1.0  0.40913  0.54404  0.89065  1.0000
  C   C697      1.0  0.42563  0.65314  0.68200  1.0000
  H   H1152     1.0  0.41008  0.63142  0.75623  1.0000
  S   S209      1.0  0.43562  0.51354  0.87232  1.0000
  N   N45       1.0  0.35623  0.63501  0.06690  1.0000
  C   C698      1.0  0.47944  0.51719  0.83875  1.0000
  H   H1153     1.0  0.39501  0.54581  0.88704  1.0000
  H   H1154     1.0  0.37397  0.62726  0.03989  1.0000
  H   H1155     1.0  0.35711  0.61967  0.08761  1.0000
  H   H1156     1.0  0.26298  0.66298  0.17177  1.0000
  H   H1157     1.0  0.37102  0.63741  0.31238  1.0000
  H   H1158     1.0  0.41443  0.66968  0.69582  1.0000
  C   C699      1.0  0.37030  0.63049  0.01788  1.0000
  H   H1159     1.0  0.37612  0.63394  0.98763  1.0000
  C   C700      1.0  0.40089  0.54962  0.89649  1.0000
  H   H1160     1.0  0.41252  0.55951  0.81691  1.0000
  H   H1161     1.0  0.39768  0.54808  0.93018  1.0000
  H   H1162     1.0  0.39991  0.55729  0.82348  1.0000
  C   C701      1.0  0.35550  0.63907  0.88006  1.0000
  Fe  Fe104     1.0  0.40700  0.51978  0.23877  1.0000
  H   H1163     1.0  0.29856  0.64451  0.21542  1.0000
  C   C702      1.0  0.37956  0.53811  0.22405  1.0000
  H   H1164     1.0  0.47948  0.53173  0.32856  1.0000
  C   C703      1.0  0.35282  0.64782  0.93012  1.0000
  H   H1165     1.0  0.38267  0.55310  0.89868  1.0000
  C   C704      1.0  0.41418  0.65119  0.02566  1.0000
  C   C705      1.0  0.37258  0.55721  0.22936  1.0000
  H   H1166     1.0  0.28347  0.57236  0.07743  1.0000
  C   C706      1.0  0.35674  0.62333  0.37313  1.0000
  H   H1167     1.0  0.41546  0.58080  0.84612  1.0000
  H   H1168     1.0  0.42309  0.57860  0.87750  1.0000
  H   H1169     1.0  0.43734  0.65669  0.83880  1.0000
  N   N46       1.0  0.40391  0.56066  0.87410  1.0000
  C   C707      1.0  0.36451  0.62755  0.11949  1.0000
  H   H1170     1.0  0.39727  0.66651  0.15848  1.0000
  H   H1171     1.0  0.49559  0.54205  0.89264  1.0000
  H   H1172     1.0  0.30883  0.62812  0.13235  1.0000
  H   H1173     1.0  0.40508  0.57237  0.77383  1.0000
  H   H1174     1.0  0.42230  0.65561  0.62475  1.0000
  H   H1175     1.0  0.38662  0.56326  0.85093  1.0000
  C   C708      1.0  0.38576  0.56119  0.88407  1.0000
  H   H1176     1.0  0.40439  0.51205  0.04767  1.0000
  C   C709      1.0  0.44102  0.63301  0.31890  1.0000
  C   C710      1.0  0.41342  0.65754  0.85098  1.0000
  H   H1177     1.0  0.36513  0.62443  0.01478  1.0000
  H   H1178     1.0  0.36230  0.63116  0.14326  1.0000
  H   H1179     1.0  0.35100  0.62011  0.40373  1.0000
  H   H1180     1.0  0.36289  0.62819  0.37724  1.0000
  S   S210      1.0  0.27228  0.65915  0.23442  1.0000
  C   C711      1.0  0.39552  0.56489  0.89138  1.0000
  C   C712      1.0  0.47261  0.51977  0.28498  1.0000
  H   H1181     1.0  0.35331  0.62770  0.35268  1.0000
  H   H1182     1.0  0.27384  0.61999  0.93180  1.0000
  H   H1183     1.0  0.38798  0.65577  0.12946  1.0000
  H   H1184     1.0  0.37136  0.65853  0.16374  1.0000
  C   C713      1.0  0.41309  0.56502  0.88234  1.0000
  C   C714      1.0  0.36540  0.63851  0.02991  1.0000
  H   H1185     1.0  0.41286  0.65705  0.66346  1.0000
  H   H1186     1.0  0.40123  0.64473  0.87139  1.0000
  H   H1187     1.0  0.37170  0.63213  0.09707  1.0000
  H   H1188     1.0  0.38015  0.56478  0.89797  1.0000
  H   H1189     1.0  0.36384  0.64280  0.00249  1.0000
  H   H1190     1.0  0.37207  0.56942  0.25697  1.0000
  N   N47       1.0  0.37562  0.55078  0.26232  1.0000
  H   H1191     1.0  0.43842  0.65713  0.75157  1.0000
  C   C715      1.0  0.35640  0.62600  0.09938  1.0000
  H   H1192     1.0  0.44936  0.62779  0.25188  1.0000
  H   H1193     1.0  0.41254  0.56144  0.91482  1.0000
  C   C716      1.0  0.40909  0.64733  0.86468  1.0000
  H   H1194     1.0  0.40859  0.63754  0.96013  1.0000
  C   C717      1.0  0.39858  0.66861  0.12576  1.0000
  H   H1195     1.0  0.25707  0.62655  0.23154  1.0000
  H   H1196     1.0  0.42574  0.63868  0.74481  1.0000
  C   C718      1.0  0.35918  0.64594  0.89759  1.0000
  H   H1197     1.0  0.34036  0.63049  0.08235  1.0000
  C   C719      1.0  0.39330  0.66257  0.10931  1.0000
  C   C720      1.0  0.42588  0.65047  0.96089  1.0000
  H   H1198     1.0  0.34908  0.64045  0.11519  1.0000
  H   H1199     1.0  0.41613  0.53461  0.46452  1.0000
  H   H1200     1.0  0.46656  0.63189  0.21346  1.0000
  C   C721      1.0  0.42118  0.66179  0.33002  1.0000
  H   H1201     1.0  0.45870  0.65730  0.32021  1.0000
  C   C722      1.0  0.37301  0.65969  0.22092  1.0000
  H   H1202     1.0  0.27724  0.59405  0.99979  1.0000
  H   H1203     1.0  0.46578  0.60167  0.91283  1.0000
  C   C723      1.0  0.29355  0.65191  0.16400  1.0000
  H   H1204     1.0  0.43352  0.65722  0.67046  1.0000
  C   C724      1.0  0.30422  0.63278  0.12001  1.0000
  S   S211      1.0  0.49458  0.57190  0.27519  1.0000
  H   H1205     1.0  0.49473  0.52877  0.74227  1.0000
  C   C725      1.0  0.41361  0.65368  0.33597  1.0000
  H   H1206     1.0  0.40319  0.51732  0.35852  1.0000
  H   H1207     1.0  0.45650  0.62755  0.28550  1.0000
  C   C726      1.0  0.45429  0.63265  0.26197  1.0000
  H   H1208     1.0  0.29307  0.65441  0.22197  1.0000
  H   H1209     1.0  0.42429  0.66660  0.63976  1.0000
  H   H1210     1.0  0.28264  0.62186  0.95702  1.0000
  S   S212      1.0  0.38467  0.65561  0.94483  1.0000
  H   H1211     1.0  0.42914  0.62969  0.29255  1.0000
  H   H1212     1.0  0.48128  0.58059  0.10583  1.0000
  Fe  Fe105     1.0  0.42452  0.51043  0.22591  1.0000
  H   H1213     1.0  0.43615  0.53497  0.40363  1.0000
  C   C727      1.0  0.36803  0.65606  0.19670  1.0000
  H   H1214     1.0  0.43733  0.63739  0.33651  1.0000
  H   H1215     1.0  0.40589  0.65189  0.72868  1.0000
  H   H1216     1.0  0.40975  0.63733  0.70530  1.0000
  C   C728      1.0  0.29584  0.64969  0.09705  1.0000
  C   C729      1.0  0.42274  0.52366  0.41451  1.0000
  C   C730      1.0  0.42612  0.64585  0.75104  1.0000
  H   H1217     1.0  0.48514  0.57491  0.79713  1.0000
  H   H1218     1.0  0.44426  0.62854  0.34013  1.0000
  H   H1219     1.0  0.36684  0.64996  0.88523  1.0000
  H   H1220     1.0  0.44169  0.64035  0.23363  1.0000
  C   C731      1.0  0.29257  0.64804  0.20995  1.0000
  C   C732      1.0  0.44509  0.64524  0.24849  1.0000
  C   C733      1.0  0.41918  0.53932  0.37936  1.0000
  N   N48       1.0  0.44902  0.63948  0.28001  1.0000
  C   C734      1.0  0.49333  0.56481  0.14971  1.0000
  H   H1221     1.0  0.46102  0.64200  0.30464  1.0000
  H   H1222     1.0  0.28384  0.63197  0.10657  1.0000
  C   C735      1.0  0.43758  0.65111  0.26255  1.0000
  C   C736      1.0  0.28014  0.62974  0.13994  1.0000
  H   H1223     1.0  0.42705  0.66871  0.82998  1.0000
  H   H1224     1.0  0.41123  0.65540  0.93070  1.0000
  N   N49       1.0  0.42114  0.65228  0.72636  1.0000
  H   H1225     1.0  0.34636  0.63948  0.03305  1.0000
  Fe  Fe106     1.0  0.49408  0.56313  0.98685  1.0000
  H   H1226     1.0  0.30717  0.64312  0.15091  1.0000
  C   C737      1.0  0.27495  0.62214  0.95830  1.0000
  H   H1227     1.0  0.40787  0.52302  0.47854  1.0000
  C   C738      1.0  0.26166  0.65504  0.18505  1.0000
  H   H1228     1.0  0.26660  0.63786  0.25769  1.0000
  H   H1229     1.0  0.46967  0.64170  0.23297  1.0000
  C   C739      1.0  0.49402  0.58726  0.80631  1.0000
  C   C740      1.0  0.42096  0.65849  0.65125  1.0000
  H   H1230     1.0  0.28117  0.56886  0.23426  1.0000
  H   H1231     1.0  0.48885  0.57547  0.04585  1.0000
  C   C741      1.0  0.50093  0.53141  0.86572  1.0000
  H   H1232     1.0  0.28172  0.62271  0.15544  1.0000
  C   C742      1.0  0.46370  0.63770  0.22466  1.0000
  H   H1233     1.0  0.46165  0.65195  0.26132  1.0000
  C   C743      1.0  0.27782  0.60178  0.00035  1.0000
  N   N50       1.0  0.41500  0.52947  0.41306  1.0000
  H   H1234     1.0  0.43204  0.65082  0.24617  1.0000
  H   H1235     1.0  0.27214  0.62829  0.14367  1.0000
  H   H1236     1.0  0.40805  0.65470  0.32118  1.0000
  H   H1237     1.0  0.42614  0.52292  0.38393  1.0000
  C   C744      1.0  0.35541  0.64312  0.08626  1.0000
  C   C745      1.0  0.40438  0.52754  0.71333  1.0000
  H   H1238     1.0  0.30341  0.65464  0.08585  1.0000
  H   H1239     1.0  0.37706  0.55736  0.19859  1.0000
  H   H1240     1.0  0.36539  0.53796  0.26223  1.0000
  H   H1241     1.0  0.45916  0.51057  0.85915  1.0000
  H   H1242     1.0  0.36210  0.64530  0.09486  1.0000
  N   N51       1.0  0.40776  0.51865  0.73293  1.0000
  H   H1243     1.0  0.38929  0.54761  0.26920  1.0000
  H   H1244     1.0  0.37374  0.53496  0.28909  1.0000
  H   H1245     1.0  0.40018  0.53708  0.48846  1.0000
  C   C746      1.0  0.43713  0.65018  0.74382  1.0000
  H   H1246     1.0  0.36775  0.57086  0.21488  1.0000
  H   H1247     1.0  0.35593  0.55284  0.29626  1.0000
  C   C747      1.0  0.48768  0.50978  0.78741  1.0000
  H   H1248     1.0  0.36491  0.55399  0.23105  1.0000
  H   H1249     1.0  0.39944  0.51833  0.79341  1.0000
  H   H1250     1.0  0.34658  0.65206  0.05788  1.0000
  H   H1251     1.0  0.49461  0.52947  0.59781  1.0000
  S   S213      1.0  0.41258  0.51122  0.19626  1.0000
  S   S214      1.0  0.35689  0.65687  0.95121  1.0000
  H   H1252     1.0  0.37677  0.53025  0.22668  1.0000
  H   H1253     1.0  0.43416  0.66665  0.34535  1.0000
  S   S215      1.0  0.41801  0.51750  0.27215  1.0000
  H   H1254     1.0  0.42057  0.51657  0.75239  1.0000
  H   H1255     1.0  0.38735  0.53894  0.22328  1.0000
  C   C748      1.0  0.37316  0.54026  0.26139  1.0000
  H   H1256     1.0  0.44176  0.65131  0.71209  1.0000
  H   H1257     1.0  0.50238  0.60505  0.74968  1.0000
  C   C749      1.0  0.37348  0.56816  0.22699  1.0000
  H   H1258     1.0  0.30472  0.58643  0.14477  1.0000
  H   H1259     1.0  0.35957  0.65545  0.02879  1.0000
  H   H1260     1.0  0.37919  0.54273  0.19460  1.0000
  Fe  Fe107     1.0  0.38945  0.67226  0.26556  1.0000
  H   H1261     1.0  0.37227  0.54560  0.32816  1.0000
  H   H1262     1.0  0.28882  0.66224  0.09746  1.0000
  S   S216      1.0  0.40655  0.66636  0.84053  1.0000
  H   H1263     1.0  0.39068  0.55605  0.22086  1.0000
  H   H1264     1.0  0.42905  0.65207  0.03212  1.0000
  H   H1265     1.0  0.38805  0.56015  0.30318  1.0000
  H   H1266     1.0  0.47739  0.52298  0.37811  1.0000
  C   C750      1.0  0.45848  0.50806  0.73171  1.0000
  C   C751      1.0  0.41168  0.51690  0.03781  1.0000
  H   H1267     1.0  0.41373  0.51424  0.37028  1.0000
  H   H1268     1.0  0.44800  0.51579  0.75460  1.0000
  C   C752      1.0  0.28890  0.65606  0.08438  1.0000
  H   H1269     1.0  0.47930  0.52354  0.25775  1.0000
  H   H1270     1.0  0.47365  0.52121  0.84632  1.0000
  C   C753      1.0  0.40729  0.63707  0.73783  1.0000
  H   H1271     1.0  0.49806  0.51878  0.49488  1.0000
  Fe  Fe108     1.0  0.49396  0.55567  0.30030  1.0000
  S   S217      1.0  0.48312  0.55088  0.26999  1.0000
  C   C754      1.0  0.26376  0.64088  0.23318  1.0000
  C   C755      1.0  0.40989  0.52029  0.36543  1.0000
  C   C756      1.0  0.39383  0.52547  0.71068  1.0000
  H   H1272     1.0  0.25955  0.60691  0.86000  1.0000
  C   C757      1.0  0.46593  0.50926  0.35638  1.0000
  C   C758      1.0  0.46418  0.51544  0.27059  1.0000
  C   C759      1.0  0.25725  0.61578  0.00134  1.0000
  H   H1273     1.0  0.49165  0.52101  0.57031  1.0000
  H   H1274     1.0  0.49624  0.60913  0.85271  1.0000
  H   H1275     1.0  0.41561  0.66928  0.98027  1.0000
  N   N52       1.0  0.47485  0.51263  0.31862  1.0000
  C   C760      1.0  0.42466  0.54800  0.38948  1.0000
  H   H1276     1.0  0.42597  0.64578  0.67803  1.0000
  H   H1277     1.0  0.39280  0.53229  0.69071  1.0000
  H   H1278     1.0  0.30117  0.59184  0.18398  1.0000
  C   C761      1.0  0.49771  0.56201  0.11564  1.0000
  C   C762      1.0  0.49012  0.57250  0.07469  1.0000
  Fe  Fe109     1.0  0.42977  0.51401  0.81979  1.0000
  H   H1279     1.0  0.48959  0.52981  0.34650  1.0000
  H   H1280     1.0  0.50144  0.59401  0.85940  1.0000
  C   C763      1.0  0.49600  0.56573  0.07827  1.0000
  Fe  Fe110     1.0  0.49781  0.56216  0.89982  1.0000
  H   H1281     1.0  0.45701  0.51626  0.28826  1.0000
  H   H1282     1.0  0.41458  0.52660  0.33818  1.0000
  H   H1283     1.0  0.38015  0.66489  0.20669  1.0000
  C   C764      1.0  0.49064  0.52193  0.60096  1.0000
  H   H1284     1.0  0.42332  0.66164  0.04464  1.0000
  C   C765      1.0  0.43151  0.52790  0.42686  1.0000
  H   H1285     1.0  0.41652  0.52698  0.75948  1.0000
  C   C766      1.0  0.45120  0.52085  0.08811  1.0000
  H   H1286     1.0  0.46365  0.51570  0.36432  1.0000
  H   H1287     1.0  0.40278  0.51661  0.43018  1.0000
  H   H1288     1.0  0.49691  0.57979  0.75869  1.0000
  H   H1289     1.0  0.48672  0.51248  0.34540  1.0000
  H   H1290     1.0  0.43547  0.61985  0.30293  1.0000
  H   H1291     1.0  0.26113  0.63374  0.88117  1.0000
  C   C767      1.0  0.48773  0.53097  0.75187  1.0000
  S   S218      1.0  0.41658  0.51926  0.84690  1.0000
  H   H1292     1.0  0.48657  0.52270  0.83027  1.0000
  C   C768      1.0  0.41559  0.66864  0.72589  1.0000
  H   H1293     1.0  0.38821  0.52377  0.74107  1.0000
  H   H1294     1.0  0.41931  0.51596  0.43594  1.0000
  H   H1295     1.0  0.48264  0.52127  0.61453  1.0000
  H   H1296     1.0  0.25533  0.64220  0.99484  1.0000
  H   H1297     1.0  0.40377  0.54272  0.43421  1.0000
  C   C769      1.0  0.47856  0.52213  0.76916  1.0000
  H   H1298     1.0  0.46455  0.51458  0.71923  1.0000
  H   H1299     1.0  0.27444  0.55859  0.22450  1.0000
  H   H1300     1.0  0.49569  0.57216  0.80965  1.0000
  H   H1301     1.0  0.48807  0.53503  0.77421  1.0000
  H   H1302     1.0  0.27143  0.66693  0.77065  1.0000
  H   H1303     1.0  0.49899  0.54427  0.38200  1.0000
  H   H1304     1.0  0.49175  0.51059  0.26028  1.0000
  H   H1305     1.0  0.26082  0.66717  0.65323  1.0000
  C   C770      1.0  0.44687  0.51465  0.06467  1.0000
  H   H1306     1.0  0.43051  0.66832  0.90196  1.0000
  C   C771      1.0  0.25628  0.64867  0.17033  1.0000
  C   C772      1.0  0.25836  0.63448  0.21846  1.0000
  N   N53       1.0  0.47874  0.51350  0.80350  1.0000
  H   H1307     1.0  0.50230  0.55683  0.11846  1.0000
  H   H1308     1.0  0.45318  0.51462  0.03891  1.0000
  S   S219      1.0  0.37557  0.67215  0.97954  1.0000
  H   H1309     1.0  0.45828  0.51424  0.80785  1.0000
  H   H1310     1.0  0.49849  0.55704  0.42417  1.0000
  C   C773      1.0  0.40027  0.51325  0.77469  1.0000
  H   H1311     1.0  0.41108  0.51674  0.67307  1.0000
  H   H1312     1.0  0.39238  0.51947  0.69736  1.0000
  H   H1313     1.0  0.47889  0.51300  0.90231  1.0000
  H   H1314     1.0  0.43783  0.51076  0.00874  1.0000
  H   H1315     1.0  0.49643  0.56897  0.40586  1.0000
  C   C774      1.0  0.26624  0.67135  0.76232  1.0000
  C   C775      1.0  0.40845  0.51210  0.70593  1.0000
  H   H1316     1.0  0.39287  0.51070  0.77228  1.0000
  H   H1317     1.0  0.49432  0.51394  0.79136  1.0000
  Fe  Fe111     1.0  0.25496  0.59756  0.22897  1.0000
  H   H1318     1.0  0.25772  0.62059  0.07045  1.0000
  H   H1319     1.0  0.25639  0.62327  0.00136  1.0000
  H   H1320     1.0  0.41860  0.67118  0.90646  1.0000
  C   C776      1.0  0.42482  0.67130  0.91912  1.0000
  H   H1321     1.0  0.48952  0.51120  0.75377  1.0000
  H   H1322     1.0  0.50082  0.57847  0.33534  1.0000
  C   C777      1.0  0.25610  0.66430  0.77189  1.0000
  C   C778      1.0  0.47871  0.50933  0.87864  1.0000
  C   C779      1.0  0.44906  0.50877  0.75173  1.0000
  S   S220      1.0  0.25650  0.67243  0.95140  1.0000
  H   H1323     1.0  0.25567  0.65690  0.69911  1.0000
  H   H1324     1.0  0.25592  0.64877  0.03028  1.0000
  H   H1325     1.0  0.42269  0.50843  0.68508  1.0000
  C   C780      1.0  0.45962  0.50836  0.83131  1.0000
  C   C781      1.0  0.25457  0.63545  0.87502  1.0000
  H   H1326     1.0  0.46333  0.50752  0.27319  1.0000
  C   C782      1.0  0.50373  0.59917  0.82740  1.0000
  H   H1327     1.0  0.40101  0.50746  0.71127  1.0000
  Fe  Fe112     1.0  0.41571  0.75753  0.29970  1.0000
  S   S221      1.0  0.42631  0.77277  0.27147  1.0000
  S   S222      1.0  0.41939  0.74264  0.30114  1.0000
  Fe  Fe113     1.0  0.39809  0.76565  0.32824  1.0000
  S   S223      1.0  0.40694  0.78141  0.30181  1.0000
  S   S224      1.0  0.38170  0.76209  0.36012  1.0000
  Fe  Fe114     1.0  0.41415  0.77706  0.24763  1.0000
  S   S225      1.0  0.41504  0.78601  0.18404  1.0000
  Fe  Fe115     1.0  0.41841  0.77623  0.32823  1.0000
  S   S226      1.0  0.42312  0.78441  0.37061  1.0000
  S   S227      1.0  0.40427  0.76177  0.27183  1.0000
  S   S228      1.0  0.40888  0.76054  0.35850  1.0000
  H   H1328     1.0  0.38192  0.68176  0.15178  1.0000
  Fe  Fe116     1.0  0.40637  0.68245  0.18729  1.0000
  S   S229      1.0  0.39212  0.68607  0.21331  1.0000
  S   S230      1.0  0.41217  0.68520  0.11917  1.0000
  Fe  Fe117     1.0  0.40016  0.69406  0.24651  1.0000
  S   S231      1.0  0.39774  0.70955  0.24221  1.0000
  S   S232      1.0  0.41467  0.69139  0.21635  1.0000
  Fe  Fe118     1.0  0.34205  0.74543  0.27718  1.0000
  S   S233      1.0  0.32937  0.74569  0.32866  1.0000
  S   S234      1.0  0.35517  0.73928  0.28126  1.0000
  Fe  Fe119     1.0  0.33444  0.75629  0.21154  1.0000
  S   S235      1.0  0.32129  0.75773  0.25742  1.0000
  S   S236      1.0  0.33882  0.76212  0.14274  1.0000
  Fe  Fe120     1.0  0.33194  0.76168  0.29097  1.0000
  S   S237      1.0  0.33288  0.77576  0.31022  1.0000
  Fe  Fe121     1.0  0.31996  0.74167  0.29052  1.0000
  S   S238      1.0  0.34510  0.76145  0.24169  1.0000
  S   S239      1.0  0.33261  0.74019  0.24253  1.0000
  Fe  Fe122     1.0  0.33448  0.73333  0.95729  1.0000
  S   S240      1.0  0.33002  0.73487  0.90072  1.0000
  S   S241      1.0  0.34750  0.72729  0.96564  1.0000
  Fe  Fe123     1.0  0.31817  0.74190  0.99654  1.0000
  S   S242      1.0  0.31246  0.74447  0.94262  1.0000
  H   H1329     1.0  0.26299  0.72179  0.02867  1.0000
  Fe  Fe124     1.0  0.31421  0.72916  0.94265  1.0000
  C   C783      1.0  0.38527  0.77382  0.90728  1.0000
  Fe  Fe125     1.0  0.32864  0.75000  0.90501  1.0000
  S   S243      1.0  0.33670  0.76351  0.84890  1.0000
  S   S244      1.0  0.31905  0.72644  0.99886  1.0000
  S   S245      1.0  0.33402  0.74861  0.95898  1.0000
  C   C784      1.0  0.28240  0.75943  0.26832  1.0000
  C   C785      1.0  0.27451  0.76159  0.24778  1.0000
  H   H1330     1.0  0.41180  0.80533  0.26893  1.0000
  N   N54       1.0  0.43404  0.83610  0.65658  1.0000
  C   C786      1.0  0.40893  0.82303  0.78942  1.0000
  H   H1331     1.0  0.28956  0.69620  0.96888  1.0000
  Fe  Fe126     1.0  0.38655  0.68393  0.92498  1.0000
  S   S246      1.0  0.38426  0.69933  0.92073  1.0000
  H   H1332     1.0  0.28816  0.74456  0.35075  1.0000
  C   C787      1.0  0.28717  0.71322  0.25498  1.0000
  C   C788      1.0  0.40261  0.82588  0.47658  1.0000
  H   H1333     1.0  0.37160  0.67921  0.05586  1.0000
  Fe  Fe127     1.0  0.39172  0.75546  0.00158  1.0000
  S   S247      1.0  0.40221  0.76837  0.00413  1.0000
  S   S248      1.0  0.37552  0.75476  0.02399  1.0000
  Fe  Fe128     1.0  0.40784  0.74560  0.97116  1.0000
  S   S249      1.0  0.41985  0.75783  0.97010  1.0000
  S   S250      1.0  0.41181  0.73164  0.96143  1.0000
  Fe  Fe129     1.0  0.40958  0.75703  0.03069  1.0000
  S   S251      1.0  0.41464  0.75525  0.08601  1.0000
  Fe  Fe130     1.0  0.41162  0.76829  0.94315  1.0000
  S   S252      1.0  0.41755  0.78286  0.89087  1.0000
  S   S253      1.0  0.39822  0.74407  0.03387  1.0000
  S   S254      1.0  0.40044  0.75610  0.93853  1.0000
  H   H1334     1.0  0.36842  0.77634  0.31743  1.0000
  H   H1335     1.0  0.37588  0.83472  0.51736  1.0000
  H   H1336     1.0  0.35333  0.77456  0.40258  1.0000
  H   H1337     1.0  0.29328  0.73755  0.01026  1.0000
  H   H1338     1.0  0.33308  0.72357  0.16630  1.0000
  S   S255      1.0  0.45420  0.82117  0.37471  1.0000
  H   H1339     1.0  0.31192  0.69413  0.16676  1.0000
  H   H1340     1.0  0.26741  0.75594  0.26352  1.0000
  H   H1341     1.0  0.36564  0.82277  0.91318  1.0000
  H   H1342     1.0  0.43751  0.82289  0.31468  1.0000
  S   S256      1.0  0.37832  0.82337  0.82970  1.0000
  Fe  Fe131     1.0  0.36731  0.80914  0.40858  1.0000
  H   H1343     1.0  0.37370  0.70670  0.02025  1.0000
  H   H1344     1.0  0.31519  0.70642  0.20367  1.0000
  H   H1345     1.0  0.38246  0.77908  0.21482  1.0000
  C   C789      1.0  0.33498  0.80148  0.54660  1.0000
  H   H1346     1.0  0.26692  0.70383  0.00140  1.0000
  C   C790      1.0  0.34299  0.79639  0.48868  1.0000
  C   C791      1.0  0.40323  0.70348  0.04756  1.0000
  C   C792      1.0  0.37436  0.70965  0.04544  1.0000
  H   H1347     1.0  0.40358  0.70045  0.02186  1.0000
  C   C793      1.0  0.30622  0.69765  0.18018  1.0000
  C   C794      1.0  0.32594  0.71229  0.12455  1.0000
  N   N55       1.0  0.38156  0.72155  0.38402  1.0000
  H   H1348     1.0  0.39103  0.70523  0.41054  1.0000
  C   C795      1.0  0.33386  0.72003  0.08649  1.0000
  Fe  Fe132     1.0  0.36610  0.81768  0.80737  1.0000
  S   S257      1.0  0.27957  0.70791  0.23000  1.0000
  H   H1349     1.0  0.40975  0.70235  0.05729  1.0000
  C   C796      1.0  0.37278  0.83136  0.55022  1.0000
  H   H1350     1.0  0.29460  0.72581  0.88933  1.0000
  H   H1351     1.0  0.33295  0.77208  0.91574  1.0000
  H   H1352     1.0  0.32817  0.73343  0.17729  1.0000
  C   C797      1.0  0.34058  0.78081  0.33558  1.0000
  C   C798      1.0  0.26819  0.72673  0.09038  1.0000
  H   H1353     1.0  0.31286  0.72742  0.16443  1.0000
  H   H1354     1.0  0.40850  0.81627  0.98509  1.0000
  C   C799      1.0  0.40371  0.80757  0.62905  1.0000
  C   C800      1.0  0.28593  0.74702  0.23274  1.0000
  Fe  Fe133     1.0  0.38592  0.81607  0.43077  1.0000
  C   C801      1.0  0.42880  0.79143  0.88124  1.0000
  C   C802      1.0  0.43145  0.80040  0.84904  1.0000
  C   C803      1.0  0.44001  0.80769  0.84154  1.0000
  C   C804      1.0  0.44617  0.80601  0.86562  1.0000
  C   C805      1.0  0.44362  0.79697  0.89745  1.0000
  C   C806      1.0  0.43492  0.78974  0.90552  1.0000
  H   H1355     1.0  0.42682  0.80171  0.82983  1.0000
  H   H1356     1.0  0.44192  0.81453  0.81669  1.0000
  H   H1357     1.0  0.44834  0.79559  0.91621  1.0000
  H   H1358     1.0  0.43297  0.78286  0.93037  1.0000
  C   C807      1.0  0.31958  0.72530  0.14967  1.0000
  C   C808      1.0  0.39209  0.70834  0.93119  1.0000
  C   C809      1.0  0.38908  0.71689  0.93563  1.0000
  C   C810      1.0  0.39509  0.72417  0.94446  1.0000
  C   C811      1.0  0.40419  0.72296  0.94861  1.0000
  C   C812      1.0  0.40720  0.71445  0.94390  1.0000
  C   C813      1.0  0.40116  0.70713  0.93545  1.0000
  H   H1359     1.0  0.38209  0.71790  0.93232  1.0000
  H   H1360     1.0  0.39271  0.73071  0.94801  1.0000
  H   H1361     1.0  0.41425  0.71349  0.94693  1.0000
  H   H1362     1.0  0.40357  0.70060  0.93189  1.0000
  H   H1363     1.0  0.47338  0.83448  0.66543  1.0000
  H   H1364     1.0  0.36280  0.79828  0.25017  1.0000
  N   N56       1.0  0.39582  0.81217  0.61738  1.0000
  C   C814      1.0  0.34793  0.78272  0.81711  1.0000
  H   H1365     1.0  0.39294  0.78968  0.19499  1.0000
  H   H1366     1.0  0.40410  0.71160  0.03679  1.0000
  C   C815      1.0  0.35521  0.73456  0.98350  1.0000
  C   C816      1.0  0.35141  0.74017  0.00758  1.0000
  C   C817      1.0  0.35767  0.74615  0.02071  1.0000
  C   C818      1.0  0.36778  0.74665  0.00946  1.0000
  C   C819      1.0  0.37158  0.74090  0.98606  1.0000
  C   C820      1.0  0.36528  0.73480  0.97338  1.0000
  H   H1367     1.0  0.34363  0.73990  0.01627  1.0000
  H   H1368     1.0  0.35467  0.75052  0.03916  1.0000
  H   H1369     1.0  0.37938  0.74120  0.97745  1.0000
  H   H1370     1.0  0.36828  0.73045  0.95490  1.0000
  C   C821      1.0  0.29310  0.71144  0.93087  1.0000
  H   H1371     1.0  0.36699  0.75592  0.86755  1.0000
  H   H1372     1.0  0.27825  0.72787  0.29223  1.0000
  H   H1373     1.0  0.37480  0.79150  0.89545  1.0000
  H   H1374     1.0  0.38684  0.78193  0.89417  1.0000
  H   H1375     1.0  0.37056  0.80762  0.26176  1.0000
  C   C822      1.0  0.37776  0.71063  0.40751  1.0000
  S   S258      1.0  0.31068  0.74367  0.05750  1.0000
  H   H1376     1.0  0.36098  0.76485  0.84376  1.0000
  H   H1377     1.0  0.41651  0.82166  0.36854  1.0000
  C   C823      1.0  0.47958  0.82485  0.93785  1.0000
  C   C824      1.0  0.31124  0.71688  0.11204  1.0000
  C   C825      1.0  0.40599  0.81051  0.97186  1.0000
  H   H1378     1.0  0.30153  0.72602  0.13350  1.0000
  H   H1379     1.0  0.27898  0.74600  0.22480  1.0000
  C   C826      1.0  0.33092  0.75687  0.11978  1.0000
  C   C827      1.0  0.33439  0.75819  0.07775  1.0000
  C   C828      1.0  0.32822  0.75419  0.05847  1.0000
  C   C829      1.0  0.31848  0.74897  0.08091  1.0000
  C   C830      1.0  0.31494  0.74778  0.12292  1.0000
  C   C831      1.0  0.32121  0.75156  0.14250  1.0000
  H   H1380     1.0  0.34188  0.76232  0.06003  1.0000
  H   H1381     1.0  0.33097  0.75536  0.02607  1.0000
  H   H1382     1.0  0.38504  0.77767  0.28641  1.0000
  H   H1383     1.0  0.31852  0.75050  0.17499  1.0000
  H   H1384     1.0  0.43608  0.81854  0.91738  1.0000
  H   H1385     1.0  0.33489  0.82873  0.82875  1.0000
  C   C832      1.0  0.39379  0.80890  0.58282  1.0000
  H   H1386     1.0  0.35480  0.70521  0.01075  1.0000
  S   S259      1.0  0.36231  0.82296  0.41377  1.0000
  C   C833      1.0  0.44154  0.83158  0.67222  1.0000
  H   H1387     1.0  0.35776  0.78246  0.55630  1.0000
  H   H1388     1.0  0.48222  0.81744  0.89030  1.0000
  H   H1389     1.0  0.29639  0.74264  0.28163  1.0000
  H   H1390     1.0  0.41274  0.68662  0.03714  1.0000
  C   C834      1.0  0.43207  0.79445  0.37139  1.0000
  C   C835      1.0  0.43043  0.79751  0.40654  1.0000
  C   C836      1.0  0.43705  0.80565  0.40817  1.0000
  C   C837      1.0  0.44554  0.81078  0.37479  1.0000
  C   C838      1.0  0.44723  0.80766  0.33977  1.0000
  C   C839      1.0  0.44054  0.79962  0.33791  1.0000
  H   H1391     1.0  0.42391  0.79362  0.43264  1.0000
  H   H1392     1.0  0.43563  0.80788  0.43540  1.0000
  H   H1393     1.0  0.45379  0.81151  0.31381  1.0000
  H   H1394     1.0  0.44197  0.79737  0.31072  1.0000
  C   C840      1.0  0.41520  0.77788  0.15488  1.0000
  C   C841      1.0  0.41783  0.76901  0.16825  1.0000
  C   C842      1.0  0.41763  0.76222  0.14662  1.0000
  C   C843      1.0  0.41486  0.76423  0.11118  1.0000
  C   C844      1.0  0.41232  0.77317  0.09717  1.0000
  C   C845      1.0  0.41249  0.78001  0.11910  1.0000
  H   H1395     1.0  0.42020  0.76741  0.19508  1.0000
  H   H1396     1.0  0.41973  0.75542  0.15744  1.0000
  H   H1397     1.0  0.41033  0.77483  0.06944  1.0000
  H   H1398     1.0  0.41051  0.78690  0.10851  1.0000
  C   C846      1.0  0.36239  0.74548  0.30398  1.0000
  C   C847      1.0  0.35845  0.75089  0.32880  1.0000
  C   C848      1.0  0.36435  0.75575  0.34691  1.0000
  C   C849      1.0  0.37429  0.75556  0.33886  1.0000
  C   C850      1.0  0.37818  0.75014  0.31411  1.0000
  C   C851      1.0  0.37221  0.74499  0.29721  1.0000
  H   H1399     1.0  0.35083  0.75121  0.33452  1.0000
  H   H1400     1.0  0.36122  0.75976  0.36674  1.0000
  H   H1401     1.0  0.38569  0.74962  0.30909  1.0000
  H   H1402     1.0  0.37523  0.74067  0.27871  1.0000
  C   C852      1.0  0.41354  0.73367  0.28315  1.0000
  C   C853      1.0  0.41528  0.72415  0.29247  1.0000
  C   C854      1.0  0.41062  0.71672  0.27971  1.0000
  C   C855      1.0  0.40416  0.71875  0.25740  1.0000
  C   C856      1.0  0.40254  0.72832  0.24743  1.0000
  C   C857      1.0  0.40720  0.73575  0.26021  1.0000
  H   H1403     1.0  0.42022  0.72248  0.30994  1.0000
  H   H1404     1.0  0.41197  0.70941  0.28752  1.0000
  H   H1405     1.0  0.39757  0.73000  0.23013  1.0000
  H   H1406     1.0  0.40588  0.74306  0.25228  1.0000
  H   H1407     1.0  0.37380  0.68950  0.01145  1.0000
  H   H1408     1.0  0.33717  0.72661  0.09341  1.0000
  H   H1409     1.0  0.39236  0.80070  0.59043  1.0000
  H   H1410     1.0  0.28102  0.70190  0.31378  1.0000
  H   H1411     1.0  0.38701  0.68525  0.05487  1.0000
  S   S260      1.0  0.30585  0.72904  0.31802  1.0000
  H   H1412     1.0  0.30201  0.69263  0.21174  1.0000
  H   H1413     1.0  0.35554  0.67885  0.94198  1.0000
  H   H1414     1.0  0.29586  0.71283  0.15405  1.0000
  H   H1415     1.0  0.38392  0.77170  0.94087  1.0000
  N   N57       1.0  0.36716  0.77150  0.90615  1.0000
  C   C858      1.0  0.35898  0.76311  0.90914  1.0000
  C   C859      1.0  0.36474  0.77322  0.94721  1.0000
  C   C860      1.0  0.37667  0.76824  0.89737  1.0000
  C   C861      1.0  0.36757  0.78040  0.87173  1.0000
  C   C862      1.0  0.36050  0.75913  0.87232  1.0000
  C   C863      1.0  0.35514  0.77655  0.96034  1.0000
  C   C864      1.0  0.37425  0.79044  0.86649  1.0000
  H   H1416     1.0  0.35767  0.75667  0.93682  1.0000
  H   H1417     1.0  0.35190  0.76535  0.91270  1.0000
  H   H1418     1.0  0.37068  0.77882  0.94890  1.0000
  H   H1419     1.0  0.36421  0.76636  0.97174  1.0000
  H   H1420     1.0  0.37540  0.76029  0.91525  1.0000
  H   H1421     1.0  0.37949  0.76875  0.86450  1.0000
  H   H1422     1.0  0.37007  0.77910  0.84172  1.0000
  H   H1423     1.0  0.36008  0.78150  0.87371  1.0000
  H   H1424     1.0  0.35396  0.75305  0.87869  1.0000
  H   H1425     1.0  0.35447  0.77809  0.98975  1.0000
  H   H1426     1.0  0.35514  0.78347  0.93766  1.0000
  H   H1427     1.0  0.34849  0.77067  0.96619  1.0000
  H   H1428     1.0  0.38175  0.79160  0.84508  1.0000
  H   H1429     1.0  0.37102  0.79650  0.85332  1.0000
  N   N58       1.0  0.37690  0.75466  0.14562  1.0000
  C   C865      1.0  0.36827  0.74695  0.14720  1.0000
  C   C866      1.0  0.38613  0.75231  0.12334  1.0000
  C   C867      1.0  0.37617  0.76460  0.12113  1.0000
  C   C868      1.0  0.37634  0.75434  0.18889  1.0000
  C   C869      1.0  0.35796  0.74865  0.16389  1.0000
  C   C870      1.0  0.38730  0.74184  0.14244  1.0000
  C   C871      1.0  0.38462  0.77360  0.11277  1.0000
  C   C872      1.0  0.38612  0.75821  0.19619  1.0000
  H   H1430     1.0  0.36898  0.74630  0.11611  1.0000
  H   H1431     1.0  0.36806  0.73949  0.16692  1.0000
  H   H1432     1.0  0.39291  0.75759  0.12056  1.0000
  H   H1433     1.0  0.38645  0.75312  0.09104  1.0000
  H   H1434     1.0  0.37555  0.76437  0.09081  1.0000
  H   H1435     1.0  0.36936  0.76649  0.13682  1.0000
  H   H1436     1.0  0.37093  0.75840  0.20076  1.0000
  H   H1437     1.0  0.37344  0.74654  0.20966  1.0000
  H   H1438     1.0  0.35226  0.74187  0.16929  1.0000
  H   H1439     1.0  0.35684  0.75015  0.19345  1.0000
  H   H1440     1.0  0.35659  0.75472  0.14127  1.0000
  H   H1441     1.0  0.38575  0.73982  0.17604  1.0000
  H   H1442     1.0  0.38252  0.73619  0.13526  1.0000
  H   H1443     1.0  0.39502  0.74158  0.12886  1.0000
  H   H1444     1.0  0.38334  0.78022  0.09260  1.0000
  H   H1445     1.0  0.39189  0.77279  0.09624  1.0000
  H   H1446     1.0  0.38471  0.77524  0.14136  1.0000
  H   H1447     1.0  0.38446  0.76147  0.22142  1.0000
  H   H1448     1.0  0.39180  0.76397  0.16982  1.0000
  H   H1449     1.0  0.38933  0.75199  0.20763  1.0000
  C   C873      1.0  0.46987  0.83315  0.61139  1.0000
  H   H1450     1.0  0.47452  0.82280  0.96974  1.0000
  H   H1451     1.0  0.33097  0.72244  0.06064  1.0000
  S   S261      1.0  0.46790  0.83987  0.42071  1.0000
  H   H1452     1.0  0.38124  0.81327  0.64890  1.0000
  N   N59       1.0  0.34839  0.83594  0.88956  1.0000
  H   H1453     1.0  0.39463  0.69054  0.09715  1.0000
  H   H1454     1.0  0.38478  0.71266  0.07681  1.0000
  H   H1455     1.0  0.36163  0.68779  0.95949  1.0000
  H   H1456     1.0  0.32956  0.70981  0.14803  1.0000
  H   H1457     1.0  0.29471  0.72589  0.20124  1.0000
  H   H1458     1.0  0.34978  0.80252  0.47734  1.0000
  H   H1459     1.0  0.34504  0.78962  0.58502  1.0000
  N   N60       1.0  0.35600  0.70424  0.91231  1.0000
  H   H1460     1.0  0.43401  0.82693  0.35809  1.0000
  C   C874      1.0  0.34770  0.70904  0.90722  1.0000
  S   S262      1.0  0.45209  0.83504  0.76688  1.0000
  C   C875      1.0  0.36469  0.70797  0.87357  1.0000
  H   H1461     1.0  0.34991  0.69425  0.00073  1.0000
  H   H1462     1.0  0.35044  0.69144  0.89625  1.0000
  H   H1463     1.0  0.39614  0.82644  0.66219  1.0000
  C   C876      1.0  0.36944  0.71923  0.85812  1.0000
  C   C877      1.0  0.35166  0.70246  0.98926  1.0000
  H   H1464     1.0  0.48740  0.83368  0.85311  1.0000
  H   H1465     1.0  0.27220  0.71661  0.96884  1.0000
  C   C878      1.0  0.35387  0.82785  0.89338  1.0000
  H   H1466     1.0  0.47015  0.82897  0.87773  1.0000
  H   H1467     1.0  0.41916  0.80733  0.60866  1.0000
  H   H1468     1.0  0.37075  0.70441  0.87786  1.0000
  H   H1469     1.0  0.36294  0.70569  0.84819  1.0000
  H   H1470     1.0  0.26951  0.67589  0.72962  1.0000
  H   H1471     1.0  0.36865  0.69311  0.11389  1.0000
  H   H1472     1.0  0.36598  0.68817  0.90651  1.0000
  C   C879      1.0  0.35935  0.68680  0.93317  1.0000
  H   H1473     1.0  0.33841  0.71246  0.86922  1.0000
  C   C880      1.0  0.37607  0.69304  0.11640  1.0000
  H   H1474     1.0  0.46961  0.81386  0.92401  1.0000
  C   C881      1.0  0.43105  0.83139  0.62705  1.0000
  H   H1475     1.0  0.48826  0.83760  0.97223  1.0000
  H   H1476     1.0  0.37559  0.72089  0.87045  1.0000
  Fe  Fe134     1.0  0.37696  0.83016  0.71821  1.0000
  H   H1477     1.0  0.37239  0.72185  0.82411  1.0000
  H   H1478     1.0  0.37111  0.80883  0.21022  1.0000
  C   C882      1.0  0.34120  0.77536  0.85218  1.0000
  H   H1479     1.0  0.39209  0.77166  0.89395  1.0000
  C   C883      1.0  0.26545  0.71479  0.03458  1.0000
  C   C884      1.0  0.29934  0.72273  0.29205  1.0000
  C   C885      1.0  0.38894  0.78277  0.22080  1.0000
  C   C886      1.0  0.28767  0.70147  0.94618  1.0000
  H   H1480     1.0  0.29217  0.75792  0.32680  1.0000
  H   H1481     1.0  0.40392  0.82952  0.31881  1.0000
  H   H1482     1.0  0.47897  0.80942  0.94185  1.0000
  H   H1483     1.0  0.25796  0.67910  0.69129  1.0000
  H   H1484     1.0  0.34875  0.82054  0.91305  1.0000
  C   C887      1.0  0.43863  0.82021  0.69178  1.0000
  C   C888      1.0  0.33379  0.80171  0.59062  1.0000
  H   H1485     1.0  0.29272  0.75403  0.16663  1.0000
  H   H1486     1.0  0.28125  0.70611  0.01807  1.0000
  H   H1487     1.0  0.44382  0.83879  0.57108  1.0000
  H   H1488     1.0  0.30010  0.75558  0.25958  1.0000
  S   S263      1.0  0.37951  0.83540  0.64938  1.0000
  H   H1489     1.0  0.44871  0.83360  0.64749  1.0000
  H   H1490     1.0  0.43638  0.82769  0.57130  1.0000
  C   C889      1.0  0.28270  0.71484  0.88761  1.0000
  C   C890      1.0  0.35226  0.69320  0.92245  1.0000
  C   C891      1.0  0.40841  0.83183  0.49148  1.0000
  H   H1491     1.0  0.37687  0.69751  0.13714  1.0000
  H   H1492     1.0  0.43732  0.81629  0.67005  1.0000
  H   H1493     1.0  0.44482  0.81787  0.70136  1.0000
  H   H1494     1.0  0.39399  0.70165  0.10835  1.0000
  H   H1495     1.0  0.39081  0.74063  0.39305  1.0000
  H   H1496     1.0  0.28322  0.70400  0.10354  1.0000
  H   H1497     1.0  0.42921  0.82361  0.46874  1.0000
  H   H1498     1.0  0.37664  0.72251  0.29400  1.0000
  S   S264      1.0  0.45694  0.81514  0.85705  1.0000
  H   H1499     1.0  0.38516  0.73164  0.32252  1.0000
  C   C892      1.0  0.32610  0.72567  0.17737  1.0000
  S   S265      1.0  0.39929  0.81143  0.44100  1.0000
  N   N61       1.0  0.41904  0.72465  0.12221  1.0000
  C   C893      1.0  0.42380  0.72646  0.15350  1.0000
  C   C894      1.0  0.41816  0.71391  0.12486  1.0000
  C   C895      1.0  0.40895  0.72672  0.13322  1.0000
  C   C896      1.0  0.42545  0.73162  0.08063  1.0000
  C   C897      1.0  0.42433  0.73670  0.15973  1.0000
  C   C898      1.0  0.42793  0.71073  0.11507  1.0000
  C   C899      1.0  0.40098  0.72112  0.12026  1.0000
  C   C900      1.0  0.42228  0.73064  0.04357  1.0000
  H   H1500     1.0  0.41984  0.72078  0.18410  1.0000
  H   H1501     1.0  0.43152  0.72573  0.14529  1.0000
  H   H1502     1.0  0.41432  0.71178  0.10419  1.0000
  H   H1503     1.0  0.41344  0.70906  0.15617  1.0000
  H   H1504     1.0  0.40571  0.72489  0.16693  1.0000
  H   H1505     1.0  0.40947  0.73474  0.12060  1.0000
  H   H1506     1.0  0.42571  0.73944  0.07954  1.0000
  H   H1507     1.0  0.43331  0.73137  0.07443  1.0000
  H   H1508     1.0  0.42933  0.74278  0.13223  1.0000
  H   H1509     1.0  0.41699  0.73828  0.16848  1.0000
  H   H1510     1.0  0.42733  0.73684  0.18532  1.0000
  H   H1511     1.0  0.43160  0.71092  0.13858  1.0000
  H   H1512     1.0  0.42632  0.70290  0.11549  1.0000
  H   H1513     1.0  0.43303  0.71517  0.08410  1.0000
  H   H1514     1.0  0.39853  0.71321  0.13944  1.0000
  H   H1515     1.0  0.40342  0.72180  0.08737  1.0000
  H   H1516     1.0  0.39442  0.72421  0.12603  1.0000
  H   H1517     1.0  0.41657  0.73475  0.03964  1.0000
  H   H1518     1.0  0.41965  0.72290  0.04490  1.0000
  H   H1519     1.0  0.42877  0.73379  0.01534  1.0000
  H   H1520     1.0  0.33406  0.80673  0.46992  1.0000
  H   H1521     1.0  0.30564  0.73394  0.23296  1.0000
  H   H1522     1.0  0.36766  0.77028  0.26345  1.0000
  C   C901      1.0  0.33816  0.77766  0.88857  1.0000
  H   H1523     1.0  0.34670  0.77604  0.55180  1.0000
  H   H1524     1.0  0.33138  0.77878  0.61233  1.0000
  C   C902      1.0  0.42152  0.81958  0.91443  1.0000
  H   H1525     1.0  0.42218  0.81176  0.36877  1.0000
  H   H1526     1.0  0.41724  0.81929  0.58927  1.0000
  H   H1527     1.0  0.38620  0.80107  0.28979  1.0000
  H   H1528     1.0  0.36638  0.78173  0.23132  1.0000
  N   N62       1.0  0.31687  0.71556  0.14230  1.0000
  H   H1529     1.0  0.36005  0.71634  0.40956  1.0000
  C   C903      1.0  0.37351  0.68744  0.04409  1.0000
  H   H1530     1.0  0.39673  0.73946  0.34343  1.0000
  N   N63       1.0  0.38411  0.69765  0.07553  1.0000
  H   H1531     1.0  0.38570  0.80347  0.22272  1.0000
  H   H1532     1.0  0.39788  0.80956  0.97896  1.0000
  H   H1533     1.0  0.40467  0.83003  0.94756  1.0000
  H   H1534     1.0  0.30460  0.71051  0.19885  1.0000
  H   H1535     1.0  0.26718  0.72735  0.12153  1.0000
  C   C904      1.0  0.28637  0.70886  0.29601  1.0000
  Fe  Fe135     1.0  0.36703  0.82074  0.47071  1.0000
  H   H1536     1.0  0.30742  0.74375  0.14044  1.0000
  H   H1537     1.0  0.38980  0.71177  0.02710  1.0000
  H   H1538     1.0  0.36755  0.70659  0.07214  1.0000
  H   H1539     1.0  0.30146  0.75231  0.19429  1.0000
  H   H1540     1.0  0.38690  0.82025  0.55552  1.0000
  Fe  Fe136     1.0  0.25591  0.68642  0.19143  1.0000
  C   C905      1.0  0.38371  0.70816  0.05647  1.0000
  H   H1541     1.0  0.32353  0.77035  0.59987  1.0000
  H   H1542     1.0  0.40524  0.82613  0.57388  1.0000
  C   C906      1.0  0.29053  0.71813  0.90151  1.0000
  S   S266      1.0  0.26350  0.67805  0.28896  1.0000
  C   C907      1.0  0.33608  0.79997  0.46477  1.0000
  H   H1543     1.0  0.29525  0.76211  0.19429  1.0000
  H   H1544     1.0  0.40258  0.73795  0.38195  1.0000
  H   H1545     1.0  0.40083  0.79437  0.00274  1.0000
  H   H1546     1.0  0.39739  0.79630  0.38197  1.0000
  C   C908      1.0  0.34250  0.79106  0.33004  1.0000
  C   C909      1.0  0.37022  0.80337  0.24016  1.0000
  H   H1547     1.0  0.34312  0.76702  0.36683  1.0000
  H   H1548     1.0  0.34081  0.70515  0.93333  1.0000
  C   C910      1.0  0.38377  0.69169  0.04663  1.0000
  C   C911      1.0  0.30035  0.72694  0.25067  1.0000
  H   H1549     1.0  0.37398  0.78194  0.36087  1.0000
  C   C912      1.0  0.35031  0.77922  0.38237  1.0000
  H   H1550     1.0  0.39346  0.78948  0.26154  1.0000
  C   C913      1.0  0.38646  0.78486  0.26211  1.0000
  H   H1551     1.0  0.39398  0.77773  0.22099  1.0000
  C   C914      1.0  0.38067  0.78802  0.34283  1.0000
  H   H1552     1.0  0.38169  0.79253  0.36305  1.0000
  H   H1553     1.0  0.31027  0.71036  0.10100  1.0000
  H   H1554     1.0  0.41363  0.83609  0.89669  1.0000
  Fe  Fe137     1.0  0.46012  0.83611  0.48873  1.0000
  H   H1555     1.0  0.42658  0.81256  0.96530  1.0000
  C   C915      1.0  0.36835  0.78230  0.29066  1.0000
  H   H1556     1.0  0.38719  0.78491  0.33653  1.0000
  S   S267      1.0  0.37096  0.80652  0.46754  1.0000
  C   C916      1.0  0.36473  0.77694  0.26315  1.0000
  N   N64       1.0  0.37813  0.78980  0.27205  1.0000
  C   C917      1.0  0.40638  0.81907  0.45932  1.0000
  H   H1557     1.0  0.38853  0.69617  0.01498  1.0000
  H   H1558     1.0  0.39504  0.79776  0.94378  1.0000
  H   H1559     1.0  0.37501  0.71775  0.03344  1.0000
  C   C918      1.0  0.42503  0.83438  0.69248  1.0000
  C   C919      1.0  0.39071  0.72519  0.39412  1.0000
  C   C920      1.0  0.39378  0.69810  0.08432  1.0000
  H   H1560     1.0  0.29142  0.71035  0.34660  1.0000
  C   C921      1.0  0.37956  0.79471  0.30349  1.0000
  H   H1561     1.0  0.36245  0.78562  0.30396  1.0000
  C   C922      1.0  0.34455  0.77491  0.36192  1.0000
  S   S268      1.0  0.35802  0.81958  0.53507  1.0000
  C   C923      1.0  0.37850  0.79784  0.23448  1.0000
  C   C924      1.0  0.27979  0.69821  0.93260  1.0000
  C   C925      1.0  0.29137  0.72936  0.02392  1.0000
  H   H1562     1.0  0.28517  0.72295  0.98551  1.0000
  H   H1563     1.0  0.37823  0.79497  0.20875  1.0000
  H   H1564     1.0  0.35655  0.77451  0.27525  1.0000
  C   C926      1.0  0.41596  0.81825  0.45681  1.0000
  H   H1565     1.0  0.31546  0.72330  0.08427  1.0000
  H   H1566     1.0  0.32334  0.73140  0.12018  1.0000
  H   H1567     1.0  0.37323  0.79785  0.31429  1.0000
  H   H1568     1.0  0.30090  0.69809  0.16281  1.0000
  H   H1569     1.0  0.32769  0.80152  0.54192  1.0000
  C   C927      1.0  0.27725  0.70487  0.90302  1.0000
  H   H1570     1.0  0.29766  0.71955  0.10223  1.0000
  H   H1571     1.0  0.40078  0.79296  0.90460  1.0000
  C   C928      1.0  0.30101  0.71889  0.12706  1.0000
  H   H1572     1.0  0.32391  0.70569  0.11503  1.0000
  H   H1573     1.0  0.32206  0.72106  0.20965  1.0000
  H   H1574     1.0  0.35916  0.72863  0.40703  1.0000
  H   H1575     1.0  0.33022  0.80775  0.59542  1.0000
  H   H1576     1.0  0.35029  0.78102  0.78881  1.0000
  H   H1577     1.0  0.33941  0.79569  0.31007  1.0000
  H   H1578     1.0  0.36735  0.69001  0.06015  1.0000
  C   C929      1.0  0.34167  0.78727  0.88953  1.0000
  C   C930      1.0  0.43954  0.83123  0.59084  1.0000
  H   H1579     1.0  0.40734  0.80086  0.02744  1.0000
  N   N65       1.0  0.41092  0.81396  0.92599  1.0000
  H   H1580     1.0  0.32914  0.79478  0.61447  1.0000
  C   C931      1.0  0.40536  0.79970  0.36546  1.0000
  H   H1581     1.0  0.40807  0.79498  0.34729  1.0000
  C   C932      1.0  0.40565  0.67727  0.09974  1.0000
  H   H1582     1.0  0.34105  0.80354  0.59532  1.0000
  C   C933      1.0  0.31074  0.70784  0.18261  1.0000
  H   H1583     1.0  0.37810  0.80951  0.59438  1.0000
  H   H1584     1.0  0.33915  0.78901  0.91765  1.0000
  C   C934      1.0  0.40728  0.80052  0.99673  1.0000
  C   C935      1.0  0.29233  0.71366  0.31450  1.0000
  H   H1585     1.0  0.33997  0.80880  0.52622  1.0000
  Fe  Fe138     1.0  0.45399  0.83028  0.41914  1.0000
  C   C936      1.0  0.37564  0.68224  0.13972  1.0000
  C   C937      1.0  0.35158  0.79227  0.81826  1.0000
  C   C938      1.0  0.34841  0.79462  0.85444  1.0000
  H   H1586     1.0  0.35670  0.79786  0.79095  1.0000
  H   H1587     1.0  0.36440  0.72632  0.36072  1.0000
  C   C939      1.0  0.36391  0.72424  0.39349  1.0000
  C   C940      1.0  0.36413  0.82376  0.56696  1.0000
  H   H1588     1.0  0.39755  0.81736  0.91560  1.0000
  H   H1589     1.0  0.32442  0.78557  0.53786  1.0000
  C   C941      1.0  0.35235  0.78950  0.37628  1.0000
  C   C942      1.0  0.33070  0.78389  0.54846  1.0000
  C   C943      1.0  0.42150  0.81865  0.34804  1.0000
  C   C944      1.0  0.40668  0.81035  0.33803  1.0000
  H   H1590     1.0  0.40901  0.79945  0.38925  1.0000
  C   C945      1.0  0.42330  0.81075  0.29439  1.0000
  H   H1591     1.0  0.42411  0.80410  0.31610  1.0000
  N   N66       1.0  0.33885  0.79317  0.53489  1.0000
  H   H1592     1.0  0.33997  0.71666  0.07544  1.0000
  H   H1593     1.0  0.37084  0.70736  0.40309  1.0000
  H   H1594     1.0  0.41408  0.80964  0.56777  1.0000
  C   C946      1.0  0.41059  0.80557  0.90803  1.0000
  C   C947      1.0  0.34842  0.79540  0.34986  1.0000
  H   H1595     1.0  0.41412  0.79849  0.98334  1.0000
  C   C948      1.0  0.41715  0.82572  0.28530  1.0000
  C   C949      1.0  0.41990  0.80762  0.26095  1.0000
  H   H1596     1.0  0.41425  0.79999  0.92121  1.0000
  H   H1597     1.0  0.40858  0.82538  0.64158  1.0000
  H   H1598     1.0  0.37682  0.73511  0.38268  1.0000
  C   C950      1.0  0.34725  0.79149  0.55127  1.0000
  C   C951      1.0  0.28226  0.72485  0.01394  1.0000
  H   H1599     1.0  0.36992  0.71387  0.34316  1.0000
  H   H1600     1.0  0.37823  0.79568  0.64704  1.0000
  C   C952      1.0  0.37407  0.72701  0.39886  1.0000
  C   C953      1.0  0.37744  0.71754  0.32193  1.0000
  H   H1601     1.0  0.41890  0.81295  0.44371  1.0000
  H   H1602     1.0  0.28084  0.72007  0.86470  1.0000
  H   H1603     1.0  0.37508  0.79633  0.69790  1.0000
  H   H1604     1.0  0.31974  0.78110  0.60847  1.0000
  S   S269      1.0  0.30277  0.71507  0.95058  1.0000
  H   H1605     1.0  0.35339  0.81377  0.62315  1.0000
  H   H1606     1.0  0.38088  0.71190  0.31168  1.0000
  H   H1607     1.0  0.42293  0.81366  0.23109  1.0000
  H   H1608     1.0  0.42254  0.80099  0.25731  1.0000
  H   H1609     1.0  0.33303  0.77844  0.53316  1.0000
  S   S270      1.0  0.44709  0.82537  0.48782  1.0000
  H   H1610     1.0  0.40261  0.81405  0.35816  1.0000
  H   H1611     1.0  0.42837  0.80690  0.92486  1.0000
  C   C954      1.0  0.36251  0.82936  0.91076  1.0000
  H   H1612     1.0  0.39168  0.72226  0.32680  1.0000
  H   H1613     1.0  0.37573  0.70943  0.44111  1.0000
  H   H1614     1.0  0.27882  0.73101  0.00370  1.0000
  H   H1615     1.0  0.37281  0.72609  0.43199  1.0000
  H   H1616     1.0  0.27804  0.71757  0.10144  1.0000
  C   C955      1.0  0.35209  0.78332  0.54078  1.0000
  C   C956      1.0  0.38432  0.72366  0.33827  1.0000
  H   H1617     1.0  0.43102  0.81523  0.27864  1.0000
  C   C957      1.0  0.40556  0.82090  0.90603  1.0000
  S   S271      1.0  0.37592  0.81450  0.75452  1.0000
  H   H1618     1.0  0.35314  0.79849  0.53987  1.0000
  H   H1619     1.0  0.43212  0.81768  0.71982  1.0000
  H   H1620     1.0  0.39715  0.80423  0.89006  1.0000
  C   C958      1.0  0.32615  0.77839  0.59490  1.0000
  H   H1621     1.0  0.40252  0.80993  0.31619  1.0000
  H   H1622     1.0  0.38809  0.70549  0.36405  1.0000
  C   C959      1.0  0.38494  0.70414  0.39744  1.0000
  N   N67       1.0  0.41717  0.81638  0.31636  1.0000
  H   H1623     1.0  0.42659  0.82363  0.64325  1.0000
  H   H1624     1.0  0.40084  0.83456  0.90378  1.0000
  C   C960      1.0  0.29416  0.72232  0.23265  1.0000
  C   C961      1.0  0.42838  0.81392  0.93182  1.0000
  H   H1625     1.0  0.29040  0.72808  0.05665  1.0000
  H   H1626     1.0  0.34987  0.80329  0.34483  1.0000
  H   H1627     1.0  0.35601  0.78530  0.50749  1.0000
  H   H1628     1.0  0.29286  0.71116  0.05537  1.0000
  C   C962      1.0  0.36012  0.81960  0.60986  1.0000
  C   C963      1.0  0.42180  0.82428  0.47116  1.0000
  S   S272      1.0  0.36004  0.79451  0.40170  1.0000
  S   S273      1.0  0.35276  0.80658  0.85712  1.0000
  H   H1629     1.0  0.38423  0.80893  0.54494  1.0000
  S   S274      1.0  0.39621  0.68046  0.30175  1.0000
  H   H1630     1.0  0.41483  0.80838  0.87471  1.0000
  H   H1631     1.0  0.29780  0.72669  0.01042  1.0000
  S   S275      1.0  0.26745  0.70114  0.88417  1.0000
  C   C964      1.0  0.40021  0.79988  0.91226  1.0000
  C   C965      1.0  0.38522  0.81211  0.56926  1.0000
  H   H1632     1.0  0.32936  0.79409  0.47160  1.0000
  H   H1633     1.0  0.42491  0.82245  0.88046  1.0000
  S   S276      1.0  0.38290  0.81758  0.37139  1.0000
  H   H1634     1.0  0.40821  0.82260  0.87228  1.0000
  C   C966      1.0  0.37334  0.83068  0.61889  1.0000
  H   H1635     1.0  0.28767  0.73970  0.23609  1.0000
  C   C967      1.0  0.27192  0.71740  0.08836  1.0000
  C   C968      1.0  0.40659  0.83182  0.79343  1.0000
  H   H1636     1.0  0.34521  0.79023  0.47816  1.0000
  H   H1637     1.0  0.43191  0.83328  0.31215  1.0000
  H   H1638     1.0  0.38854  0.81046  0.68096  1.0000
  C   C969      1.0  0.42461  0.82830  0.79945  1.0000
  H   H1639     1.0  0.28353  0.73055  0.33019  1.0000
  S   S277      1.0  0.40083  0.81474  0.77770  1.0000
  H   H1640     1.0  0.34005  0.80197  0.43143  1.0000
  H   H1641     1.0  0.42204  0.82619  0.92495  1.0000
  H   H1642     1.0  0.41525  0.83553  0.32399  1.0000
  C   C970      1.0  0.41788  0.82118  0.79305  1.0000
  H   H1643     1.0  0.43148  0.82684  0.80255  1.0000
  H   H1644     1.0  0.34924  0.71674  0.90828  1.0000
  S   S278      1.0  0.27165  0.68741  0.18876  1.0000
  C   C971      1.0  0.39532  0.73646  0.37689  1.0000
  H   H1645     1.0  0.36142  0.71490  0.93929  1.0000
  C   C972      1.0  0.29435  0.75430  0.19515  1.0000
  C   C973      1.0  0.45996  0.82954  0.93369  1.0000
  C   C974      1.0  0.38137  0.79783  0.66964  1.0000
  H   H1646     1.0  0.38622  0.79298  0.67770  1.0000
  S   S279      1.0  0.36629  0.83305  0.76999  1.0000
  H   H1647     1.0  0.27571  0.69052  0.94482  1.0000
  H   H1648     1.0  0.38921  0.72300  0.42795  1.0000
  C   C975      1.0  0.35930  0.70672  0.94598  1.0000
  H   H1649     1.0  0.26089  0.72621  0.08563  1.0000
  H   H1650     1.0  0.34318  0.70201  0.86442  1.0000
  C   C976      1.0  0.27595  0.74168  0.30515  1.0000
  H   H1651     1.0  0.34546  0.82456  0.83433  1.0000
  H   H1652     1.0  0.36161  0.81972  0.66870  1.0000
  H   H1653     1.0  0.27987  0.76041  0.29902  1.0000
  N   N68       1.0  0.27471  0.71605  0.04663  1.0000
  H   H1654     1.0  0.41845  0.67610  0.72746  1.0000
  N   N69       1.0  0.28456  0.74940  0.27226  1.0000
  H   H1655     1.0  0.40285  0.67641  0.00870  1.0000
  C   C977      1.0  0.29395  0.74947  0.28290  1.0000
  H   H1656     1.0  0.27705  0.76222  0.21483  1.0000
  C   C978      1.0  0.38671  0.80891  0.65443  1.0000
  C   C979      1.0  0.47747  0.81597  0.92216  1.0000
  H   H1657     1.0  0.41965  0.81432  0.79045  1.0000
  C   C980      1.0  0.40232  0.82791  0.63373  1.0000
  H   H1658     1.0  0.34521  0.69031  0.94836  1.0000
  S   S280      1.0  0.39928  0.67732  0.93192  1.0000
  H   H1659     1.0  0.38093  0.69620  0.41159  1.0000
  C   C981      1.0  0.36476  0.82297  0.63577  1.0000
  H   H1660     1.0  0.39672  0.72177  0.38215  1.0000
  H   H1661     1.0  0.33487  0.82526  0.90062  1.0000
  Fe  Fe139     1.0  0.38808  0.82142  0.77377  1.0000
  H   H1662     1.0  0.47187  0.82616  0.61369  1.0000
  H   H1663     1.0  0.36885  0.67926  0.16679  1.0000
  S   S281      1.0  0.38240  0.83019  0.43734  1.0000
  H   H1664     1.0  0.27307  0.76884  0.24931  1.0000
  H   H1665     1.0  0.35100  0.71450  0.84013  1.0000
  S   S282      1.0  0.46686  0.83190  0.53978  1.0000
  H   H1666     1.0  0.27058  0.72616  0.34255  1.0000
  H   H1667     1.0  0.40163  0.79940  0.63568  1.0000
  H   H1668     1.0  0.47211  0.83902  0.96349  1.0000
  H   H1669     1.0  0.27391  0.74379  0.33355  1.0000
  H   H1670     1.0  0.28919  0.76553  0.25125  1.0000
  H   H1671     1.0  0.36612  0.70431  0.94762  1.0000
  C   C982      1.0  0.27732  0.73104  0.31773  1.0000
  C   C983      1.0  0.27817  0.70665  0.04920  1.0000
  C   C984      1.0  0.39910  0.82332  0.60328  1.0000
  Fe  Fe140     1.0  0.26817  0.69336  0.24214  1.0000
  C   C985      1.0  0.46674  0.83755  0.57847  1.0000
  C   C986      1.0  0.40629  0.83092  0.91450  1.0000
  H   H1672     1.0  0.39309  0.82666  0.59663  1.0000
  C   C987      1.0  0.41800  0.83098  0.48894  1.0000
  H   H1673     1.0  0.39514  0.82635  0.47976  1.0000
  H   H1674     1.0  0.40038  0.81186  0.55489  1.0000
  H   H1675     1.0  0.37537  0.67728  0.12077  1.0000
  Fe  Fe141     1.0  0.37836  0.83129  0.38017  1.0000
  C   C988      1.0  0.41406  0.81127  0.59651  1.0000
  H   H1676     1.0  0.40449  0.80860  0.65807  1.0000
  Fe  Fe142     1.0  0.45840  0.83083  0.81825  1.0000
  Fe  Fe143     1.0  0.41027  0.67720  0.26917  1.0000
  H   H1677     1.0  0.34480  0.70498  0.99048  1.0000
  H   H1678     1.0  0.36421  0.72372  0.86637  1.0000
  H   H1679     1.0  0.26609  0.71088  0.11092  1.0000
  H   H1680     1.0  0.41346  0.82391  0.26347  1.0000
  C   C989      1.0  0.29361  0.75071  0.32489  1.0000
  H   H1681     1.0  0.27182  0.70004  0.06592  1.0000
  C   C990      1.0  0.26613  0.71155  0.99610  1.0000
  H   H1682     1.0  0.30092  0.75056  0.32909  1.0000
  C   C991      1.0  0.34503  0.70944  0.86781  1.0000
  C   C992      1.0  0.28608  0.70513  0.07022  1.0000
  H   H1683     1.0  0.42131  0.82634  0.70615  1.0000
  H   H1684     1.0  0.26568  0.67638  0.78122  1.0000
  H   H1685     1.0  0.28823  0.69824  0.06732  1.0000
  H   H1686     1.0  0.35709  0.82693  0.86308  1.0000
  S   S283      1.0  0.45104  0.83984  0.85333  1.0000
  H   H1687     1.0  0.42616  0.83528  0.61309  1.0000
  C   C993      1.0  0.43180  0.82588  0.33158  1.0000
  H   H1688     1.0  0.40543  0.83703  0.50509  1.0000
  H   H1689     1.0  0.26927  0.74116  0.29532  1.0000
  H   H1690     1.0  0.42480  0.82991  0.26588  1.0000
  C   C994      1.0  0.40728  0.67994  0.05740  1.0000
  H   H1691     1.0  0.48703  0.82535  0.94140  1.0000
  C   C995      1.0  0.37729  0.83485  0.57605  1.0000
  C   C996      1.0  0.41190  0.83289  0.30293  1.0000
  N   N70       1.0  0.47902  0.83465  0.91137  1.0000
  Fe  Fe144     1.0  0.44097  0.83875  0.47611  1.0000
  H   H1692     1.0  0.40475  0.83609  0.61936  1.0000
  H   H1693     1.0  0.44458  0.82685  0.60082  1.0000
  H   H1694     1.0  0.34282  0.83015  0.95600  1.0000
  S   S284      1.0  0.38320  0.67615  0.88112  1.0000
  H   H1695     1.0  0.42820  0.67924  0.91318  1.0000
  H   H1696     1.0  0.45465  0.82476  0.92484  1.0000
  C   C997      1.0  0.46991  0.83355  0.89857  1.0000
  C   C998      1.0  0.34191  0.83078  0.83513  1.0000
  C   C999      1.0  0.48794  0.83833  0.87332  1.0000
  H   H1697     1.0  0.27352  0.73359  0.06818  1.0000
  H   H1698     1.0  0.49479  0.83759  0.88110  1.0000
  H   H1699     1.0  0.46040  0.82484  0.96273  1.0000
  H   H1700     1.0  0.34648  0.83760  0.80999  1.0000
  C   C1000     1.0  0.33959  0.83239  0.87736  1.0000
  S   S285      1.0  0.39002  0.83689  0.73367  1.0000
  H   H1701     1.0  0.45686  0.83576  0.93973  1.0000
  C   C1001     1.0  0.47070  0.83784  0.64089  1.0000
  Fe  Fe145     1.0  0.25621  0.68612  0.90459  1.0000
  H   H1702     1.0  0.36015  0.82995  0.94203  1.0000
  H   H1703     1.0  0.39964  0.83324  0.79171  1.0000
  H   H1704     1.0  0.40976  0.83445  0.69756  1.0000
  H   H1705     1.0  0.25917  0.71166  0.98863  1.0000
  H   H1706     1.0  0.32928  0.83696  0.94419  1.0000
  C   C1002     1.0  0.34507  0.83741  0.93103  1.0000
  H   H1707     1.0  0.44319  0.83459  0.69610  1.0000
  C   C1003     1.0  0.42232  0.83722  0.80213  1.0000
  H   H1708     1.0  0.36857  0.83587  0.89014  1.0000
  H   H1709     1.0  0.25924  0.70928  0.06014  1.0000
  S   S286      1.0  0.42531  0.83841  0.50727  1.0000
  H   H1710     1.0  0.42719  0.83656  0.71724  1.0000
  C   C1004     1.0  0.41331  0.83892  0.79938  1.0000
  H   H1711     1.0  0.25498  0.68335  0.75251  1.0000
  C   C1005     1.0  0.41709  0.83981  0.68362  1.0000
  Fe  Fe146     1.0  0.37943  0.83854  0.78869  1.0000
  H   H1712     1.0  0.33470  0.83754  0.87687  1.0000
  H   H1713     1.0  0.41250  0.83953  0.27734  1.0000
  C   C1006     1.0  0.40171  0.67413  0.04121  1.0000
  S   S287      1.0  0.42212  0.67372  0.29761  1.0000
  S   S288      1.0  0.46328  0.96997  0.43640  1.0000
  S   S289      1.0  0.45871  0.96069  0.34588  1.0000
  Fe  Fe147     1.0  0.47841  0.97984  0.40422  1.0000
  S   S290      1.0  0.49159  0.97567  0.41899  1.0000
  H   H1714     1.0  0.45793  0.92281  0.04457  1.0000
  C   C1007     1.0  0.44450  0.92087  0.49670  1.0000
  C   C1008     1.0  0.46414  0.84657  0.57604  1.0000
  C   C1009     1.0  0.45664  0.91891  0.81906  1.0000
  C   C1010     1.0  0.44099  0.85322  0.66200  1.0000
  H   H1715     1.0  0.48435  0.85342  0.53855  1.0000
  H   H1716     1.0  0.49729  0.96415  0.81751  1.0000
  H   H1717     1.0  0.42761  0.99013  0.69194  1.0000
  H   H1718     1.0  0.48166  0.96726  0.83257  1.0000
  H   H1719     1.0  0.50266  0.89714  0.19792  1.0000
  Fe  Fe148     1.0  0.49488  0.92864  0.29722  1.0000
  S   S291      1.0  0.47982  0.93149  0.30949  1.0000
  H   H1720     1.0  0.50094  0.94347  0.84676  1.0000
  H   H1721     1.0  0.40355  0.86173  0.46444  1.0000
  Fe  Fe149     1.0  0.42642  0.92130  0.27709  1.0000
  S   S292      1.0  0.43828  0.92108  0.22252  1.0000
  S   S293      1.0  0.42549  0.93422  0.30302  1.0000
  Fe  Fe150     1.0  0.41525  0.89976  0.29169  1.0000
  S   S294      1.0  0.42653  0.89791  0.23934  1.0000
  S   S295      1.0  0.40161  0.88780  0.33487  1.0000
  Fe  Fe151     1.0  0.43749  0.90589  0.26184  1.0000
  S   S296      1.0  0.45086  0.90065  0.26906  1.0000
  Fe  Fe152     1.0  0.42625  0.91321  0.20444  1.0000
  S   S297      1.0  0.42820  0.91830  0.13613  1.0000
  S   S298      1.0  0.42630  0.90642  0.31741  1.0000
  S   S299      1.0  0.41427  0.91474  0.25576  1.0000
  H   H1722     1.0  0.45879  0.93988  0.37872  1.0000
  H   H1723     1.0  0.46906  0.91773  0.11749  1.0000
  H   H1724     1.0  0.43202  0.92462  0.43181  1.0000
  H   H1725     1.0  0.35946  0.84374  0.82990  1.0000
  H   H1726     1.0  0.45327  0.94457  0.89498  1.0000
  C   C1011     1.0  0.45579  0.92921  0.09351  1.0000
  H   H1727     1.0  0.49357  0.97725  0.29568  1.0000
  H   H1728     1.0  0.40228  0.87012  0.41924  1.0000
  H   H1729     1.0  0.43546  0.91893  0.37284  1.0000
  H   H1730     1.0  0.45049  0.92339  0.88971  1.0000
  H   H1731     1.0  0.44414  0.86109  0.64261  1.0000
  C   C1012     1.0  0.38718  0.89662  0.26368  1.0000
  Fe  Fe153     1.0  0.42288  0.91333  0.87100  1.0000
  S   S300      1.0  0.42847  0.91240  0.92445  1.0000
  S   S301      1.0  0.42793  0.92768  0.81703  1.0000
  Fe  Fe154     1.0  0.41437  0.89043  0.89587  1.0000
  S   S302      1.0  0.41954  0.88811  0.95134  1.0000
  S   S303      1.0  0.40962  0.87572  0.88283  1.0000
  Fe  Fe155     1.0  0.41414  0.90123  0.96165  1.0000
  S   S304      1.0  0.40687  0.89926  0.02908  1.0000
  Fe  Fe156     1.0  0.43336  0.89940  0.91113  1.0000
  S   S305      1.0  0.44812  0.89665  0.90963  1.0000
  S   S306      1.0  0.40779  0.90299  0.90893  1.0000
  S   S307      1.0  0.42891  0.90094  0.85489  1.0000
  H   H1732     1.0  0.43928  0.89720  0.11088  1.0000
  H   H1733     1.0  0.44108  0.85299  0.91464  1.0000
  C   C1013     1.0  0.46981  0.99113  0.57975  1.0000
  H   H1734     1.0  0.46737  0.93223  0.77939  1.0000
  H   H1735     1.0  0.33548  0.84383  0.96913  1.0000
  S   S308      1.0  0.38067  0.85266  0.80812  1.0000
  H   H1736     1.0  0.49905  0.00534  0.45935  1.0000
  H   H1737     1.0  0.38390  0.84084  0.56270  1.0000
  H   H1738     1.0  0.50147  0.86913  0.53561  1.0000
  C   C1014     1.0  0.48924  0.95728  0.30854  1.0000
  H   H1739     1.0  0.44662  0.98864  0.69159  1.0000
  C   C1015     1.0  0.49103  0.84808  0.46800  1.0000
  S   S309      1.0  0.45851  0.85814  0.76849  1.0000
  S   S310      1.0  0.43033  0.84632  0.81020  1.0000
  S   S311      1.0  0.46812  0.86056  0.86368  1.0000
  H   H1740     1.0  0.45325  0.89223  0.15533  1.0000
  C   C1016     1.0  0.50068  0.99220  0.77120  1.0000
  H   H1741     1.0  0.49173  0.85456  0.86196  1.0000
  S   S312      1.0  0.49101  0.90349  0.98533  1.0000
  C   C1017     1.0  0.47282  0.86966  0.49255  1.0000
  Fe  Fe157     1.0  0.48934  0.91883  0.95904  1.0000
  S   S313      1.0  0.47478  0.92269  0.97578  1.0000
  H   H1742     1.0  0.49692  0.95604  0.54943  1.0000
  H   H1743     1.0  0.46532  0.86724  0.49080  1.0000
  S   S314      1.0  0.49719  0.92029  0.89399  1.0000
  H   H1744     1.0  0.47688  0.95350  0.89920  1.0000
  C   C1018     1.0  0.47684  0.87045  0.86670  1.0000
  C   C1019     1.0  0.48631  0.87443  0.83826  1.0000
  C   C1020     1.0  0.49312  0.88179  0.84366  1.0000
  C   C1021     1.0  0.49054  0.88546  0.87695  1.0000
  C   C1022     1.0  0.48098  0.88163  0.90489  1.0000
  C   C1023     1.0  0.47425  0.87412  0.90001  1.0000
  H   H1745     1.0  0.48847  0.87175  0.81247  1.0000
  H   H1746     1.0  0.46957  0.84079  0.87940  1.0000
  H   H1747     1.0  0.47884  0.88432  0.93071  1.0000
  H   H1748     1.0  0.46695  0.87114  0.92229  1.0000
  H   H1749     1.0  0.45536  0.93378  0.79467  1.0000
  C   C1024     1.0  0.46765  0.98643  0.52095  1.0000
  H   H1750     1.0  0.47970  0.96600  0.62764  1.0000
  N   N71       1.0  0.48964  0.86491  0.47891  1.0000
  C   C1025     1.0  0.49427  0.87594  0.46102  1.0000
  H   H1751     1.0  0.35577  0.85875  0.81262  1.0000
  H   H1752     1.0  0.48546  0.93617  0.82539  1.0000
  S   S315      1.0  0.50252  0.92687  0.96931  1.0000
  H   H1753     1.0  0.41154  0.84581  0.80153  1.0000
  H   H1754     1.0  0.48217  0.92285  0.84190  1.0000
  C   C1026     1.0  0.40156  0.86954  0.86135  1.0000
  C   C1027     1.0  0.40212  0.85999  0.85929  1.0000
  C   C1028     1.0  0.39587  0.85475  0.84303  1.0000
  C   C1029     1.0  0.38895  0.85898  0.82832  1.0000
  C   C1030     1.0  0.38835  0.86849  0.83058  1.0000
  C   C1031     1.0  0.39461  0.87374  0.84678  1.0000
  H   H1755     1.0  0.40743  0.85661  0.87033  1.0000
  H   H1756     1.0  0.39635  0.84741  0.84216  1.0000
  H   H1757     1.0  0.38304  0.87188  0.81952  1.0000
  H   H1758     1.0  0.39402  0.88104  0.84808  1.0000
  C   C1032     1.0  0.45480  0.90291  0.93361  1.0000
  C   C1033     1.0  0.45087  0.90891  0.95539  1.0000
  C   C1034     1.0  0.45696  0.91495  0.96900  1.0000
  C   C1035     1.0  0.46687  0.91475  0.96167  1.0000
  C   C1036     1.0  0.47057  0.90826  0.94223  1.0000
  C   C1037     1.0  0.46457  0.90239  0.92804  1.0000
  H   H1759     1.0  0.44324  0.90907  0.96098  1.0000
  H   H1760     1.0  0.45398  0.91981  0.98474  1.0000
  H   H1761     1.0  0.47811  0.90786  0.93710  1.0000
  H   H1762     1.0  0.46760  0.89766  0.91161  1.0000
  C   C1038     1.0  0.46537  0.85146  0.60454  1.0000
  C   C1039     1.0  0.44108  0.91505  0.38026  1.0000
  H   H1763     1.0  0.43762  0.90859  0.40842  1.0000
  C   C1040     1.0  0.49940  0.98569  0.42321  1.0000
  H   H1764     1.0  0.47188  0.92035  0.06375  1.0000
  S   S316      1.0  0.48734  0.99786  0.69146  1.0000
  Fe  Fe158     1.0  0.47428  0.99168  0.67513  1.0000
  H   H1765     1.0  0.43738  0.93618  0.47141  1.0000
  Fe  Fe159     1.0  0.49975  0.90532  0.92023  1.0000
  S   S317      1.0  0.50264  0.92484  0.34393  1.0000
  N   N72       1.0  0.45708  0.91122  0.09901  1.0000
  H   H1766     1.0  0.40632  0.90748  0.19547  1.0000
  C   C1041     1.0  0.49509  0.95680  0.84129  1.0000
  H   H1767     1.0  0.47063  0.98421  0.49457  1.0000
  C   C1042     1.0  0.42291  0.91229  0.10640  1.0000
  C   C1043     1.0  0.41638  0.90289  0.12347  1.0000
  C   C1044     1.0  0.41169  0.89885  0.09922  1.0000
  C   C1045     1.0  0.41376  0.90398  0.05741  1.0000
  C   C1046     1.0  0.42074  0.91311  0.03987  1.0000
  C   C1047     1.0  0.42522  0.91727  0.06434  1.0000
  H   H1768     1.0  0.41485  0.89881  0.15534  1.0000
  H   H1769     1.0  0.40645  0.89171  0.11270  1.0000
  H   H1770     1.0  0.42236  0.91717  0.00784  1.0000
  H   H1771     1.0  0.43031  0.92451  0.05073  1.0000
  C   C1048     1.0  0.39797  0.87569  0.33257  1.0000
  C   C1049     1.0  0.40298  0.87264  0.30055  1.0000
  C   C1050     1.0  0.39949  0.86308  0.29902  1.0000
  C   C1051     1.0  0.39110  0.85644  0.32981  1.0000
  C   C1052     1.0  0.38635  0.85937  0.36264  1.0000
  C   C1053     1.0  0.38971  0.86899  0.36373  1.0000
  H   H1772     1.0  0.40936  0.87772  0.27640  1.0000
  H   H1773     1.0  0.40318  0.86087  0.27345  1.0000
  H   H1774     1.0  0.37987  0.85436  0.38644  1.0000
  H   H1775     1.0  0.38582  0.87127  0.38872  1.0000
  H   H1776     1.0  0.50142  0.87700  0.35254  1.0000
  H   H1777     1.0  0.50104  0.97332  0.85826  1.0000
  H   H1778     1.0  0.49305  0.96583  0.52090  1.0000
  C   C1054     1.0  0.50007  0.88412  0.24925  1.0000
  H   H1779     1.0  0.49721  0.97084  0.61638  1.0000
  H   H1780     1.0  0.45590  0.91692  0.79173  1.0000
  H   H1781     1.0  0.49149  0.97010  0.34709  1.0000
  H   H1782     1.0  0.43883  0.91250  0.46299  1.0000
  C   C1055     1.0  0.45254  0.89797  0.17042  1.0000
  H   H1783     1.0  0.47518  0.85528  0.49330  1.0000
  C   C1056     1.0  0.49530  0.88972  0.34915  1.0000
  C   C1057     1.0  0.49477  0.87960  0.35524  1.0000
  C   C1058     1.0  0.47765  0.88636  0.36082  1.0000
  C   C1059     1.0  0.48670  0.89305  0.35223  1.0000
  C   C1060     1.0  0.46866  0.84713  0.63706  1.0000
  H   H1784     1.0  0.47105  0.88904  0.36287  1.0000
  H   H1785     1.0  0.48703  0.90078  0.34844  1.0000
  C   C1061     1.0  0.47178  0.92288  0.29848  1.0000
  C   C1062     1.0  0.47242  0.91303  0.30645  1.0000
  C   C1063     1.0  0.46591  0.90620  0.29777  1.0000
  C   C1064     1.0  0.45876  0.90920  0.28102  1.0000
  C   C1065     1.0  0.45803  0.91902  0.27371  1.0000
  C   C1066     1.0  0.46455  0.92585  0.28226  1.0000
  H   H1786     1.0  0.47782  0.91065  0.31995  1.0000
  H   H1787     1.0  0.46635  0.89857  0.30448  1.0000
  H   H1788     1.0  0.45250  0.92142  0.26123  1.0000
  H   H1789     1.0  0.46406  0.93347  0.27585  1.0000
  C   C1067     1.0  0.43583  0.97526  0.73431  1.0000
  C   C1068     1.0  0.44397  0.95809  0.81537  1.0000
  C   C1069     1.0  0.44687  0.95477  0.78156  1.0000
  C   C1070     1.0  0.44204  0.94534  0.78282  1.0000
  C   C1071     1.0  0.43453  0.93900  0.81828  1.0000
  C   C1072     1.0  0.43197  0.94213  0.85274  1.0000
  C   C1073     1.0  0.43662  0.95165  0.85113  1.0000
  H   H1790     1.0  0.48434  0.95513  0.34079  1.0000
  H   H1791     1.0  0.44403  0.94300  0.75596  1.0000
  H   H1792     1.0  0.42615  0.93735  0.88014  1.0000
  H   H1793     1.0  0.43431  0.95415  0.87743  1.0000
  C   C1074     1.0  0.49655  0.89281  0.22656  1.0000
  H   H1794     1.0  0.43439  0.85302  0.68665  1.0000
  C   C1075     1.0  0.44946  0.95420  0.33092  1.0000
  C   C1076     1.0  0.43968  0.95495  0.34184  1.0000
  C   C1077     1.0  0.43249  0.94893  0.33236  1.0000
  C   C1078     1.0  0.43496  0.94208  0.31190  1.0000
  C   C1079     1.0  0.44478  0.94150  0.30019  1.0000
  C   C1080     1.0  0.45196  0.94753  0.30960  1.0000
  S   S318      1.0  0.47201  0.97628  0.71721  1.0000
  H   H1795     1.0  0.42493  0.94948  0.34141  1.0000
  H   H1796     1.0  0.44681  0.93634  0.28425  1.0000
  H   H1797     1.0  0.45948  0.94689  0.30086  1.0000
  H   H1798     1.0  0.48839  0.95265  0.83766  1.0000
  H   H1799     1.0  0.39494  0.88902  0.18013  1.0000
  H   H1800     1.0  0.41798  0.97922  0.76077  1.0000
  H   H1801     1.0  0.45250  0.95964  0.75380  1.0000
  Fe  Fe160     1.0  0.46243  0.98121  0.76479  1.0000
  H   H1802     1.0  0.46146  0.84992  0.55160  1.0000
  H   H1803     1.0  0.37748  0.89744  0.15974  1.0000
  H   H1804     1.0  0.41353  0.96770  0.82146  1.0000
  C   C1081     1.0  0.48985  0.84917  0.84628  1.0000
  H   H1805     1.0  0.47381  0.96993  0.87379  1.0000
  H   H1806     1.0  0.45385  0.93546  0.07397  1.0000
  C   C1082     1.0  0.46073  0.93022  0.80655  1.0000
  H   H1807     1.0  0.44318  0.94564  0.42193  1.0000
  H   H1808     1.0  0.39483  0.89857  0.26490  1.0000
  H   H1809     1.0  0.42655  0.96957  0.81679  1.0000
  C   C1083     1.0  0.49948  0.96397  0.53002  1.0000
  H   H1810     1.0  0.38675  0.87624  0.27172  1.0000
  C   C1084     1.0  0.41997  0.96442  0.81690  1.0000
  H   H1811     1.0  0.41892  0.96032  0.70780  1.0000
  H   H1812     1.0  0.45558  0.93894  0.43076  1.0000
  H   H1813     1.0  0.43761  0.96002  0.35823  1.0000
  C   C1085     1.0  0.37659  0.89200  0.22480  1.0000
  H   H1814     1.0  0.49467  0.84726  0.92368  1.0000
  H   H1815     1.0  0.38536  0.90741  0.29625  1.0000
  H   H1816     1.0  0.45854  0.93536  0.92140  1.0000
  H   H1817     1.0  0.35128  0.84200  0.93625  1.0000
  H   H1818     1.0  0.49447  0.99423  0.76323  1.0000
  H   H1819     1.0  0.37931  0.88510  0.17538  1.0000
  H   H1820     1.0  0.38611  0.91022  0.18818  1.0000
  H   H1821     1.0  0.34365  0.85227  0.84304  1.0000
  H   H1822     1.0  0.44376  0.91206  0.35480  1.0000
  C   C1086     1.0  0.48277  0.96016  0.89388  1.0000
  H   H1823     1.0  0.47634  0.95564  0.28867  1.0000
  H   H1824     1.0  0.46830  0.92640  0.39356  1.0000
  Fe  Fe161     1.0  0.48418  0.98296  0.73699  1.0000
  H   H1825     1.0  0.48105  0.96200  0.92296  1.0000
  N   N73       1.0  0.50274  0.97051  0.55361  1.0000
  H   H1826     1.0  0.45276  0.91317  0.15876  1.0000
  H   H1827     1.0  0.43492  0.98042  0.75271  1.0000
  H   H1828     1.0  0.46382  0.85866  0.60128  1.0000
  C   C1087     1.0  0.45414  0.99009  0.56600  1.0000
  H   H1829     1.0  0.48060  0.96786  0.28923  1.0000
  C   C1088     1.0  0.41865  0.97570  0.73619  1.0000
  C   C1089     1.0  0.45300  0.93150  0.87358  1.0000
  H   H1830     1.0  0.41486  0.95620  0.78058  1.0000
  H   H1831     1.0  0.41817  0.95777  0.84423  1.0000
  H   H1832     1.0  0.46619  0.92136  0.87644  1.0000
  H   H1833     1.0  0.45284  0.92823  0.35293  1.0000
  H   H1834     1.0  0.45089  0.92768  0.12523  1.0000
  C   C1090     1.0  0.50018  0.96658  0.88392  1.0000
  C   C1091     1.0  0.45274  0.93652  0.90704  1.0000
  C   C1092     1.0  0.47929  0.86311  0.47641  1.0000
  H   H1835     1.0  0.42901  0.96987  0.67338  1.0000
  H   H1836     1.0  0.49627  0.85076  0.81842  1.0000
  S   S319      1.0  0.45569  0.98688  0.37772  1.0000
  S   S320      1.0  0.46398  0.99651  0.72164  1.0000
  H   H1837     1.0  0.48141  0.90957  0.09369  1.0000
  C   C1093     1.0  0.46795  0.91440  0.09362  1.0000
  H   H1838     1.0  0.48775  0.99143  0.45271  1.0000
  H   H1839     1.0  0.45898  0.89961  0.18105  1.0000
  C   C1094     1.0  0.42098  0.98437  0.69647  1.0000
  C   C1095     1.0  0.38151  0.90386  0.27852  1.0000
  N   N74       1.0  0.42592  0.96933  0.73742  1.0000
  C   C1096     1.0  0.43752  0.93857  0.43923  1.0000
  N   N75       1.0  0.48706  0.88999  0.21776  1.0000
  H   H1840     1.0  0.47563  0.87757  0.47343  1.0000
  C   C1097     1.0  0.47872  0.88591  0.25787  1.0000
  C   C1098     1.0  0.49698  0.97273  0.31585  1.0000
  C   C1099     1.0  0.48567  0.89907  0.18957  1.0000
  C   C1100     1.0  0.49521  0.85941  0.45391  1.0000
  C   C1101     1.0  0.46824  0.88479  0.25464  1.0000
  S   S321      1.0  0.47789  0.99448  0.60624  1.0000
  C   C1102     1.0  0.48472  0.90782  0.20658  1.0000
  H   H1841     1.0  0.35149  0.85894  0.86449  1.0000
  C   C1103     1.0  0.39321  0.88859  0.21292  1.0000
  H   H1842     1.0  0.47936  0.89045  0.27829  1.0000
  H   H1843     1.0  0.47899  0.87843  0.27574  1.0000
  H   H1844     1.0  0.39387  0.85828  0.44491  1.0000
  S   S322      1.0  0.49870  0.91749  0.26633  1.0000
  H   H1845     1.0  0.49202  0.90212  0.16070  1.0000
  H   H1846     1.0  0.47924  0.89720  0.17905  1.0000
  H   H1847     1.0  0.41477  0.98802  0.69932  1.0000
  H   H1848     1.0  0.48983  0.94112  0.97923  1.0000
  H   H1849     1.0  0.48040  0.88036  0.18945  1.0000
  H   H1850     1.0  0.46667  0.87970  0.23735  1.0000
  H   H1851     1.0  0.46282  0.88158  0.28605  1.0000
  H   H1852     1.0  0.46687  0.89204  0.24090  1.0000
  H   H1853     1.0  0.50273  0.97399  0.23993  1.0000
  C   C1104     1.0  0.35120  0.85422  0.84449  1.0000
  C   C1105     1.0  0.49584  0.88456  0.15690  1.0000
  H   H1854     1.0  0.49157  0.91390  0.19154  1.0000
  H   H1855     1.0  0.48333  0.90585  0.23995  1.0000
  H   H1856     1.0  0.47848  0.91081  0.20039  1.0000
  N   N76       1.0  0.43913  0.87104  0.86381  1.0000
  C   C1106     1.0  0.43467  0.86042  0.86901  1.0000
  C   C1107     1.0  0.43696  0.87735  0.82757  1.0000
  C   C1108     1.0  0.43413  0.87385  0.90059  1.0000
  C   C1109     1.0  0.45006  0.87252  0.85586  1.0000
  C   C1110     1.0  0.43390  0.85254  0.90886  1.0000
  C   C1111     1.0  0.44166  0.87605  0.78572  1.0000
  C   C1112     1.0  0.43816  0.87176  0.93731  1.0000
  C   C1113     1.0  0.45601  0.88334  0.84402  1.0000
  H   H1857     1.0  0.42709  0.85949  0.86643  1.0000
  H   H1858     1.0  0.43917  0.88537  0.82354  1.0000
  H   H1859     1.0  0.42885  0.87586  0.83313  1.0000
  H   H1860     1.0  0.43458  0.88194  0.89180  1.0000
  H   H1861     1.0  0.42607  0.87030  0.91220  1.0000
  H   H1862     1.0  0.45162  0.86807  0.88283  1.0000
  H   H1863     1.0  0.45335  0.86952  0.83117  1.0000
  H   H1864     1.0  0.41669  0.84560  0.69888  1.0000
  H   H1865     1.0  0.38112  0.90999  0.25325  1.0000
  H   H1866     1.0  0.44982  0.87814  0.77607  1.0000
  H   H1867     1.0  0.43901  0.86843  0.78544  1.0000
  H   H1868     1.0  0.43370  0.87418  0.96167  1.0000
  H   H1869     1.0  0.44586  0.87607  0.92891  1.0000
  H   H1870     1.0  0.43781  0.86389  0.95132  1.0000
  H   H1871     1.0  0.46043  0.88390  0.86489  1.0000
  H   H1872     1.0  0.45142  0.88870  0.84571  1.0000
  H   H1873     1.0  0.46133  0.88568  0.81257  1.0000
  N   N77       1.0  0.41903  0.86207  0.39200  1.0000
  C   C1114     1.0  0.40807  0.85739  0.40850  1.0000
  C   C1115     1.0  0.42353  0.85688  0.36283  1.0000
  C   C1116     1.0  0.42055  0.87292  0.36938  1.0000
  C   C1117     1.0  0.42291  0.86083  0.42788  1.0000
  C   C1118     1.0  0.40174  0.86229  0.43573  1.0000
  C   C1119     1.0  0.42268  0.84576  0.38213  1.0000
  C   C1120     1.0  0.43067  0.87836  0.33675  1.0000
  C   C1121     1.0  0.43419  0.86378  0.41836  1.0000
  H   H1874     1.0  0.40502  0.85733  0.38287  1.0000
  H   H1875     1.0  0.40646  0.84950  0.42741  1.0000
  H   H1876     1.0  0.43149  0.86032  0.34677  1.0000
  H   H1877     1.0  0.42013  0.85765  0.33784  1.0000
  H   H1878     1.0  0.41510  0.87394  0.35274  1.0000
  H   H1879     1.0  0.41920  0.87722  0.39124  1.0000
  H   H1880     1.0  0.41994  0.86531  0.44705  1.0000
  H   H1881     1.0  0.42007  0.85313  0.44952  1.0000
  H   H1882     1.0  0.33727  0.84921  0.91597  1.0000
  H   H1883     1.0  0.49592  0.89785  0.24551  1.0000
  H   H1884     1.0  0.48644  0.94226  0.91381  1.0000
  H   H1885     1.0  0.49515  0.95413  0.96302  1.0000
  H   H1886     1.0  0.43696  0.87754  0.34826  1.0000
  H   H1887     1.0  0.43106  0.88641  0.32645  1.0000
  H   H1888     1.0  0.43160  0.87597  0.30910  1.0000
  H   H1889     1.0  0.43677  0.87170  0.41526  1.0000
  H   H1890     1.0  0.43845  0.86228  0.39100  1.0000
  H   H1891     1.0  0.43616  0.85922  0.44399  1.0000
  C   C1122     1.0  0.39149  0.90554  0.18882  1.0000
  H   H1892     1.0  0.43161  0.84510  0.90593  1.0000
  H   H1893     1.0  0.48372  0.84606  0.46402  1.0000
  H   H1894     1.0  0.48748  0.87497  0.21834  1.0000
  H   H1895     1.0  0.38390  0.88933  0.28818  1.0000
  C   C1123     1.0  0.42643  0.96444  0.70455  1.0000
  C   C1124     1.0  0.40094  0.91187  0.19012  1.0000
  H   H1896     1.0  0.44553  0.93323  0.93175  1.0000
  Fe  Fe162     1.0  0.46123  0.97318  0.37396  1.0000
  N   N78       1.0  0.44783  0.92639  0.41794  1.0000
  Fe  Fe163     1.0  0.46467  0.85236  0.81932  1.0000
  C   C1125     1.0  0.35542  0.84523  0.85799  1.0000
  Fe  Fe164     1.0  0.44577  0.84486  0.80009  1.0000
  C   C1126     1.0  0.48569  0.87289  0.36375  1.0000
  C   C1127     1.0  0.47709  0.87626  0.36661  1.0000
  H   H1897     1.0  0.44899  0.97770  0.68188  1.0000
  H   H1898     1.0  0.43914  0.85818  0.84412  1.0000
  H   H1899     1.0  0.42696  0.84302  0.35859  1.0000
  H   H1900     1.0  0.45765  0.89688  0.09018  1.0000
  H   H1901     1.0  0.39415  0.87326  0.23015  1.0000
  H   H1902     1.0  0.44706  0.91562  0.51817  1.0000
  C   C1128     1.0  0.37523  0.89035  0.18530  1.0000
  H   H1903     1.0  0.41800  0.84316  0.65085  1.0000
  C   C1129     1.0  0.49560  0.99247  0.44070  1.0000
  H   H1904     1.0  0.42808  0.85295  0.93521  1.0000
  H   H1905     1.0  0.43945  0.88106  0.76210  1.0000
  C   C1130     1.0  0.44992  0.92216  0.38283  1.0000
  C   C1131     1.0  0.49502  0.96718  0.59530  1.0000
  H   H1906     1.0  0.43914  0.93419  0.38606  1.0000
  H   H1907     1.0  0.43664  0.92043  0.51196  1.0000
  H   H1908     1.0  0.49546  0.87798  0.14616  1.0000
  S   S323      1.0  0.47688  0.98217  0.34204  1.0000
  H   H1909     1.0  0.44548  0.84824  0.61022  1.0000
  H   H1910     1.0  0.48537  0.86515  0.36722  1.0000
  H   H1911     1.0  0.48679  0.84995  0.96492  1.0000
  N   N79       1.0  0.38710  0.89570  0.22258  1.0000
  C   C1132     1.0  0.47387  0.90642  0.09385  1.0000
  H   H1912     1.0  0.45988  0.90658  0.04516  1.0000
  H   H1913     1.0  0.44669  0.99100  0.57367  1.0000
  Fe  Fe165     1.0  0.46536  0.84788  0.73808  1.0000
  H   H1914     1.0  0.44607  0.91841  0.08173  1.0000
  H   H1915     1.0  0.48123  0.98824  0.53504  1.0000
  H   H1916     1.0  0.50048  0.88466  0.82182  1.0000
  H   H1917     1.0  0.41497  0.84126  0.39286  1.0000
  H   H1918     1.0  0.38208  0.87437  0.23130  1.0000
  H   H1919     1.0  0.44304  0.90670  0.14833  1.0000
  S   S324      1.0  0.47454  0.98672  0.78820  1.0000
  C   C1133     1.0  0.47977  0.92958  0.82887  1.0000
  S   S325      1.0  0.46570  0.86838  0.37330  1.0000
  S   S326      1.0  0.47153  0.85410  0.66849  1.0000
  C   C1134     1.0  0.48310  0.96149  0.28185  1.0000
  S   S327      1.0  0.45088  0.98617  0.49800  1.0000
  H   H1920     1.0  0.37387  0.89985  0.29857  1.0000
  H   H1921     1.0  0.44209  0.90590  0.05995  1.0000
  C   C1135     1.0  0.38867  0.87755  0.23830  1.0000
  C   C1136     1.0  0.48128  0.96882  0.86173  1.0000
  H   H1922     1.0  0.49551  0.86233  0.42132  1.0000
  C   C1137     1.0  0.43305  0.95708  0.70383  1.0000
  H   H1923     1.0  0.49166  0.87933  0.43517  1.0000
  H   H1924     1.0  0.46358  0.93180  0.09143  1.0000
  H   H1925     1.0  0.48511  0.97685  0.58441  1.0000
  H   H1926     1.0  0.43419  0.95523  0.67485  1.0000
  H   H1927     1.0  0.49038  0.95026  0.30283  1.0000
  C   C1138     1.0  0.48891  0.86116  0.52347  1.0000
  H   H1928     1.0  0.47198  0.86898  0.52497  1.0000
  H   H1929     1.0  0.42703  0.95628  0.78133  1.0000
  H   H1930     1.0  0.40050  0.89063  0.21731  1.0000
  H   H1931     1.0  0.47760  0.84898  0.91762  1.0000
  C   C1139     1.0  0.42189  0.96114  0.77821  1.0000
  H   H1932     1.0  0.47010  0.00539  0.47242  1.0000
  H   H1933     1.0  0.45145  0.91374  0.45451  1.0000
  H   H1934     1.0  0.37290  0.88501  0.25076  1.0000
  S   S328      1.0  0.49970  0.89440  0.88304  1.0000
  H   H1935     1.0  0.40456  0.91787  0.16030  1.0000
  H   H1936     1.0  0.48357  0.85060  0.83562  1.0000
  H   H1937     1.0  0.43032  0.94029  0.43929  1.0000
  H   H1938     1.0  0.47141  0.93255  0.88126  1.0000
  S   S329      1.0  0.45340  0.84910  0.48161  1.0000
  H   H1939     1.0  0.47078  0.94928  0.75680  1.0000
  C   C1140     1.0  0.45527  0.90362  0.07789  1.0000
  H   H1940     1.0  0.44667  0.85093  0.67547  1.0000
  C   C1141     1.0  0.44574  0.91807  0.45710  1.0000
  C   C1142     1.0  0.44295  0.98134  0.69088  1.0000
  H   H1941     1.0  0.46022  0.94876  0.82256  1.0000
  H   H1942     1.0  0.48146  0.96493  0.57762  1.0000
  H   H1943     1.0  0.47690  0.95791  0.77551  1.0000
  H   H1944     1.0  0.49725  0.85606  0.56370  1.0000
  C   C1143     1.0  0.45797  0.98745  0.53085  1.0000
  H   H1945     1.0  0.42170  0.98196  0.66900  1.0000
  H   H1946     1.0  0.44710  0.93336  0.86064  1.0000
  H   H1947     1.0  0.50360  0.96112  0.47133  1.0000
  H   H1948     1.0  0.37217  0.89734  0.23174  1.0000
  H   H1949     1.0  0.47054  0.89976  0.12113  1.0000
  H   H1950     1.0  0.49903  0.99335  0.54803  1.0000
  Fe  Fe166     1.0  0.46024  0.85228  0.41396  1.0000
  Fe  Fe167     1.0  0.47712  0.00161  0.74153  1.0000
  H   H1951     1.0  0.42950  0.94999  0.72920  1.0000
  C   C1144     1.0  0.47361  0.98853  0.54454  1.0000
  S   S330      1.0  0.44856  0.97047  0.81295  1.0000
  H   H1952     1.0  0.49723  0.95944  0.38769  1.0000
  H   H1953     1.0  0.46161  0.91471  0.83083  1.0000
  H   H1954     1.0  0.44405  0.89386  0.06612  1.0000
  C   C1145     1.0  0.33629  0.84217  0.93988  1.0000
  H   H1955     1.0  0.47941  0.86418  0.44429  1.0000
  H   H1956     1.0  0.48212  0.94931  0.97141  1.0000
  H   H1957     1.0  0.43957  0.98291  0.66631  1.0000
  H   H1958     1.0  0.44588  0.89445  0.19776  1.0000
  H   H1959     1.0  0.44042  0.96018  0.70512  1.0000
  S   S331      1.0  0.44697  0.84308  0.40782  1.0000
  C   C1146     1.0  0.46646  0.94522  0.82404  1.0000
  H   H1960     1.0  0.48700  0.96356  0.24857  1.0000
  C   C1147     1.0  0.47415  0.94986  0.78097  1.0000
  C   C1148     1.0  0.43895  0.93062  0.41796  1.0000
  H   H1961     1.0  0.46965  0.94791  0.84558  1.0000
  C   C1149     1.0  0.46002  0.99187  0.59051  1.0000
  Fe  Fe168     1.0  0.47162  0.99553  0.34929  1.0000
  N   N80       1.0  0.49281  0.95796  0.88338  1.0000
  H   H1962     1.0  0.44902  0.92828  0.49196  1.0000
  C   C1150     1.0  0.45403  0.92021  0.07822  1.0000
  C   C1151     1.0  0.50318  0.95146  0.82875  1.0000
  C   C1152     1.0  0.45684  0.93444  0.40991  1.0000
  N   N81       1.0  0.49903  0.96404  0.30207  1.0000
  H   H1963     1.0  0.47964  0.92932  0.79837  1.0000
  H   H1964     1.0  0.36143  0.84796  0.86938  1.0000
  H   H1965     1.0  0.42587  0.84439  0.40747  1.0000
  H   H1966     1.0  0.48064  0.94670  0.77716  1.0000
  H   H1967     1.0  0.39922  0.91550  0.21407  1.0000
  S   S332      1.0  0.47254  0.84291  0.78688  1.0000
  H   H1968     1.0  0.36729  0.88717  0.19103  1.0000
  H   H1969     1.0  0.47242  0.93750  0.40380  1.0000
  C   C1153     1.0  0.48768  0.84421  0.94954  1.0000
  H   H1970     1.0  0.47480  0.90425  0.06563  1.0000
  C   C1154     1.0  0.48478  0.96886  0.59559  1.0000
  H   H1971     1.0  0.49425  0.87918  0.27749  1.0000
  C   C1155     1.0  0.45105  0.90754  0.14379  1.0000
  C   C1156     1.0  0.46615  0.93091  0.41358  1.0000
  H   H1972     1.0  0.44915  0.91637  0.84193  1.0000
  S   S333      1.0  0.38625  0.84495  0.32444  1.0000
  C   C1157     1.0  0.44452  0.90004  0.07923  1.0000
  H   H1973     1.0  0.49404  0.95914  0.61089  1.0000
  H   H1974     1.0  0.49217  0.94783  0.38092  1.0000
  C   C1158     1.0  0.47865  0.84186  0.93533  1.0000
  H   H1975     1.0  0.49602  0.84485  0.44862  1.0000
  S   S334      1.0  0.49688  0.97645  0.74391  1.0000
  C   C1159     1.0  0.49213  0.94833  0.91473  1.0000
  H   H1976     1.0  0.39331  0.90447  0.15810  1.0000
  C   C1160     1.0  0.46972  0.92925  0.85820  1.0000
  H   H1977     1.0  0.48482  0.86535  0.54114  1.0000
  N   N82       1.0  0.46273  0.93407  0.83988  1.0000
  H   H1978     1.0  0.48661  0.97593  0.85531  1.0000
  Fe  Fe169     1.0  0.45911  0.98425  0.43788  1.0000
  H   H1979     1.0  0.46522  0.92668  0.44568  1.0000
  S   S335      1.0  0.47446  0.99387  0.40886  1.0000
  H   H1980     1.0  0.45575  0.91804  0.38351  1.0000
  H   H1981     1.0  0.43991  0.97025  0.74824  1.0000
  C   C1161     1.0  0.48966  0.94840  0.95942  1.0000
  H   H1982     1.0  0.45717  0.99430  0.61646  1.0000
  H   H1983     1.0  0.41116  0.97106  0.74217  1.0000
  C   C1162     1.0  0.48729  0.88209  0.19716  1.0000
  C   C1163     1.0  0.49864  0.86172  0.53356  1.0000
  H   H1984     1.0  0.49527  0.89069  0.13196  1.0000
  H   H1985     1.0  0.49057  0.84446  0.50017  1.0000
  H   H1986     1.0  0.49743  0.98171  0.51758  1.0000
  C   C1164     1.0  0.49894  0.95369  0.37352  1.0000
  H   H1987     1.0  0.50341  0.00451  0.79346  1.0000
  H   H1988     1.0  0.49743  0.96884  0.91155  1.0000
  C   C1165     1.0  0.50198  0.00031  0.44466  1.0000
  H   H1989     1.0  0.43374  0.85051  0.61878  1.0000
  C   C1166     1.0  0.43851  0.84702  0.63492  1.0000
  H   H1990     1.0  0.49192  0.87973  0.48413  1.0000
  H   H1991     1.0  0.49901  0.94580  0.90792  1.0000
  H   H1992     1.0  0.50301  0.86060  0.45287  1.0000
  H   H1993     1.0  0.50296  0.96158  0.24288  1.0000
  H   H1994     1.0  0.50317  0.88631  0.16084  1.0000
  C   C1167     1.0  0.50377  0.98111  0.52940  1.0000
  C   C1168     1.0  0.50371  0.98395  0.76382  1.0000
  H   H1995     1.0  0.50360  0.98618  0.58427  1.0000
  H   H1996     1.0  0.50271  0.87970  0.22942  1.0000
  H   H1997     1.0  0.50318  0.98576  0.32893  1.0000
  H   H1998     1.0  0.52083  0.02213  0.68200  1.0000
  Fe  Fe170     1.0  0.52849  0.06844  0.23113  1.0000
  S   S336      1.0  0.51799  0.06946  0.28764  1.0000
  S   S337      1.0  0.54193  0.06272  0.23035  1.0000
  Fe  Fe171     1.0  0.51769  0.07712  0.17450  1.0000
  H   H1999     1.0  0.53658  0.03073  0.57397  1.0000
  S   S338      1.0  0.52056  0.08087  0.10560  1.0000
  Fe  Fe172     1.0  0.51887  0.08475  0.24789  1.0000
  S   S339      1.0  0.51919  0.09747  0.27576  1.0000
  H   H2000     1.0  0.58962  0.13019  0.51636  1.0000
  H   H2001     1.0  0.54518  0.07601  0.47146  1.0000
  S   S340      1.0  0.53021  0.08399  0.19293  1.0000
  S   S341      1.0  0.51687  0.06147  0.20946  1.0000
  Fe  Fe173     1.0  0.62906  0.16412  0.41416  1.0000
  S   S342      1.0  0.63932  0.16109  0.36235  1.0000
  C   C1169     1.0  0.65444  0.15884  0.88710  1.0000
  Fe  Fe174     1.0  0.63964  0.15673  0.47458  1.0000
  S   S343      1.0  0.65076  0.15286  0.42746  1.0000
  S   S344      1.0  0.63649  0.15373  0.54337  1.0000
  Fe  Fe175     1.0  0.65117  0.16769  0.38455  1.0000
  C   C1170     1.0  0.51815  0.12024  0.87948  1.0000
  Fe  Fe176     1.0  0.63792  0.14659  0.40880  1.0000
  S   S345      1.0  0.63561  0.13128  0.39969  1.0000
  C   C1171     1.0  0.50656  0.09208  0.92347  1.0000
  S   S346      1.0  0.62685  0.14929  0.45922  1.0000
  Fe  Fe177     1.0  0.55789  0.13674  0.33786  1.0000
  S   S347      1.0  0.56898  0.15097  0.29592  1.0000
  S   S348      1.0  0.55398  0.12505  0.30721  1.0000
  Fe  Fe178     1.0  0.56055  0.14155  0.41535  1.0000
  S   S349      1.0  0.57182  0.15572  0.37893  1.0000
  S   S350      1.0  0.55661  0.13583  0.48488  1.0000
  Fe  Fe179     1.0  0.56194  0.15825  0.34047  1.0000
  Fe  Fe180     1.0  0.57797  0.14748  0.33738  1.0000
  S   S351      1.0  0.59416  0.14882  0.31248  1.0000
  S   S352      1.0  0.54992  0.14441  0.37968  1.0000
  S   S353      1.0  0.56759  0.13290  0.37692  1.0000
  Fe  Fe181     1.0  0.59484  0.07514  0.32253  1.0000
  S   S354      1.0  0.58921  0.07590  0.26940  1.0000
  Fe  Fe182     1.0  0.60315  0.09788  0.29732  1.0000
  S   S355      1.0  0.59781  0.10006  0.24239  1.0000
  S   S356      1.0  0.60872  0.11288  0.30644  1.0000
  Fe  Fe183     1.0  0.58401  0.08877  0.28325  1.0000
  S   S357      1.0  0.56930  0.09181  0.28359  1.0000
  Fe  Fe184     1.0  0.60342  0.08711  0.23150  1.0000
  S   S358      1.0  0.61072  0.08940  0.16371  1.0000
  S   S359      1.0  0.58866  0.08745  0.33901  1.0000
  S   S360      1.0  0.60988  0.08548  0.28381  1.0000
  Fe  Fe185     1.0  0.60051  0.08890  0.89830  1.0000
  S   S361      1.0  0.59016  0.09012  0.95499  1.0000
  S   S362      1.0  0.61076  0.10241  0.84615  1.0000
  Fe  Fe186     1.0  0.59018  0.06697  0.91574  1.0000
  S   S363      1.0  0.57926  0.06669  0.97398  1.0000
  S   S364      1.0  0.59015  0.05309  0.89522  1.0000
  Fe  Fe187     1.0  0.57847  0.08156  0.93819  1.0000
  S   S365      1.0  0.56380  0.08518  0.94547  1.0000
  Fe  Fe188     1.0  0.59187  0.07518  0.98707  1.0000
  S   S366      1.0  0.58991  0.06987  0.05555  1.0000
  S   S367      1.0  0.58848  0.08142  0.87899  1.0000
  S   S368      1.0  0.60311  0.07434  0.93117  1.0000
  H   H2002     1.0  0.53790  0.02600  0.04909  1.0000
  H   H2003     1.0  0.59257  0.02642  0.48116  1.0000
  H   H2004     1.0  0.51057  0.04355  0.18315  1.0000
  Fe  Fe189     1.0  0.64593  0.15286  0.80169  1.0000
  S   S369      1.0  0.64083  0.15468  0.74699  1.0000
  S   S370      1.0  0.64239  0.13799  0.85087  1.0000
  H   H2005     1.0  0.54260  0.02409  0.60644  1.0000
  H   H2006     1.0  0.54211  0.14708  0.46116  1.0000
  S   S371      1.0  0.63956  0.16478  0.81980  1.0000
  C   C1172     1.0  0.57770  0.01601  0.50983  1.0000
  S   S372      1.0  0.66102  0.16317  0.76687  1.0000
  H   H2007     1.0  0.55123  0.04736  0.26265  1.0000
  S   S373      1.0  0.57173  0.14657  0.76664  1.0000
  Fe  Fe190     1.0  0.56725  0.15531  0.66272  1.0000
  S   S374      1.0  0.56904  0.13995  0.68778  1.0000
  S   S375      1.0  0.56743  0.16126  0.59644  1.0000
  Fe  Fe191     1.0  0.55921  0.14001  0.74802  1.0000
  S   S376      1.0  0.54943  0.12619  0.79984  1.0000
  Fe  Fe192     1.0  0.58121  0.14769  0.70464  1.0000
  S   S377      1.0  0.59569  0.14366  0.69548  1.0000
  S   S378      1.0  0.55653  0.15507  0.72245  1.0000
  Fe  Fe193     1.0  0.51442  0.07386  0.84965  1.0000
  S   S379      1.0  0.51911  0.07239  0.90530  1.0000
  S   S380      1.0  0.51954  0.08874  0.79890  1.0000
  H   H2008     1.0  0.54751  0.04642  0.37166  1.0000
  S   S381      1.0  0.50706  0.04892  0.93705  1.0000
  C   C1173     1.0  0.56773  0.04129  0.98823  1.0000
  H   H2009     1.0  0.56295  0.03725  0.26142  1.0000
  H   H2010     1.0  0.56696  0.04553  0.01034  1.0000
  Fe  Fe194     1.0  0.52208  0.05819  0.89746  1.0000
  S   S382      1.0  0.53588  0.05382  0.90398  1.0000
  C   C1174     1.0  0.54011  0.15372  0.46785  1.0000
  S   S383      1.0  0.51859  0.06016  0.83857  1.0000
  C   C1175     1.0  0.53355  0.01919  0.31946  1.0000
  C   C1176     1.0  0.59361  0.12100  0.86719  1.0000
  H   H2011     1.0  0.58824  0.12858  0.37750  1.0000
  C   C1177     1.0  0.53409  0.03951  0.32189  1.0000
  H   H2012     1.0  0.56615  0.02807  0.42977  1.0000
  C   C1178     1.0  0.54158  0.11581  0.79713  1.0000
  C   C1179     1.0  0.53828  0.11602  0.76348  1.0000
  C   C1180     1.0  0.53155  0.10766  0.76434  1.0000
  C   C1181     1.0  0.52817  0.09901  0.79854  1.0000
  C   C1182     1.0  0.53168  0.09877  0.83165  1.0000
  C   C1183     1.0  0.53831  0.10714  0.83093  1.0000
  H   H2013     1.0  0.54074  0.12268  0.73725  1.0000
  H   H2014     1.0  0.52890  0.10792  0.73850  1.0000
  H   H2015     1.0  0.52930  0.09217  0.85785  1.0000
  H   H2016     1.0  0.54099  0.10689  0.85669  1.0000
  H   H2017     1.0  0.54923  0.02435  0.30062  1.0000
  C   C1184     1.0  0.61865  0.15779  0.71974  1.0000
  C   C1185     1.0  0.61294  0.15173  0.70499  1.0000
  C   C1186     1.0  0.60306  0.15179  0.71084  1.0000
  C   C1187     1.0  0.59901  0.15819  0.72995  1.0000
  C   C1188     1.0  0.53192  0.01674  0.91301  1.0000
  H   H2018     1.0  0.51989  0.02378  0.82338  1.0000
  H   H2019     1.0  0.61616  0.14697  0.68930  1.0000
  H   H2020     1.0  0.59143  0.15843  0.73408  1.0000
  C   C1189     1.0  0.66359  0.14488  0.93198  1.0000
  H   H2021     1.0  0.56307  0.03660  0.31250  1.0000
  C   C1190     1.0  0.61946  0.11206  0.84936  1.0000
  C   C1191     1.0  0.62454  0.12004  0.81360  1.0000
  C   C1192     1.0  0.63152  0.12799  0.81388  1.0000
  C   C1193     1.0  0.63352  0.12806  0.85010  1.0000
  C   C1194     1.0  0.62848  0.12002  0.88601  1.0000
  C   C1195     1.0  0.62141  0.11207  0.88576  1.0000
  H   H2022     1.0  0.62300  0.12007  0.78558  1.0000
  H   H2023     1.0  0.63541  0.13400  0.78596  1.0000
  H   H2024     1.0  0.63002  0.11995  0.91417  1.0000
  H   H2025     1.0  0.61757  0.10593  0.91356  1.0000
  C   C1196     1.0  0.55592  0.07616  0.93612  1.0000
  C   C1197     1.0  0.55980  0.06997  0.91528  1.0000
  C   C1198     1.0  0.55357  0.06329  0.90493  1.0000
  C   C1199     1.0  0.54344  0.06248  0.91661  1.0000
  C   C1200     1.0  0.53952  0.06845  0.93854  1.0000
  C   C1201     1.0  0.54577  0.07540  0.94775  1.0000
  H   H2026     1.0  0.56762  0.07050  0.90621  1.0000
  H   H2027     1.0  0.55659  0.05875  0.88764  1.0000
  H   H2028     1.0  0.53167  0.06757  0.94931  1.0000
  H   H2029     1.0  0.54272  0.08010  0.96429  1.0000
  C   C1202     1.0  0.60455  0.08424  0.13399  1.0000
  C   C1203     1.0  0.59654  0.07593  0.15220  1.0000
  C   C1204     1.0  0.59225  0.07161  0.12766  1.0000
  C   C1205     1.0  0.59570  0.07568  0.08466  1.0000
  C   C1206     1.0  0.60352  0.08416  0.06641  1.0000
  C   C1207     1.0  0.60799  0.08833  0.09096  1.0000
  H   H2030     1.0  0.59389  0.07261  0.18516  1.0000
  H   H2031     1.0  0.58629  0.06499  0.14218  1.0000
  H   H2032     1.0  0.60629  0.08736  0.03339  1.0000
  H   H2033     1.0  0.61422  0.09472  0.07654  1.0000
  C   C1208     1.0  0.56501  0.15373  0.56619  1.0000
  C   C1209     1.0  0.55905  0.14406  0.58365  1.0000
  C   C1210     1.0  0.55663  0.13865  0.55834  1.0000
  C   C1211     1.0  0.56021  0.14279  0.51539  1.0000
  C   C1212     1.0  0.56650  0.15231  0.49800  1.0000
  C   C1213     1.0  0.56884  0.15775  0.52327  1.0000
  H   H2034     1.0  0.55605  0.14086  0.61665  1.0000
  H   H2035     1.0  0.55181  0.13127  0.57220  1.0000
  H   H2036     1.0  0.56950  0.15554  0.46509  1.0000
  H   H2037     1.0  0.57356  0.16518  0.50948  1.0000
  C   C1214     1.0  0.64406  0.15876  0.56861  1.0000
  C   C1215     1.0  0.63957  0.15931  0.60772  1.0000
  C   C1216     1.0  0.64528  0.16209  0.63123  1.0000
  C   C1217     1.0  0.65557  0.16418  0.61631  1.0000
  C   C1218     1.0  0.66009  0.16389  0.57672  1.0000
  C   C1219     1.0  0.65437  0.16125  0.55282  1.0000
  H   H2038     1.0  0.63162  0.15743  0.62024  1.0000
  H   H2039     1.0  0.53251  0.16753  0.48474  1.0000
  C   C1220     1.0  0.61134  0.16326  0.58925  1.0000
  H   H2040     1.0  0.65793  0.16081  0.52285  1.0000
  C   C1221     1.0  0.62816  0.12627  0.37346  1.0000
  C   C1222     1.0  0.62662  0.11613  0.37715  1.0000
  C   C1223     1.0  0.62073  0.11188  0.35699  1.0000
  C   C1224     1.0  0.61636  0.11774  0.33247  1.0000
  C   C1225     1.0  0.61799  0.12791  0.32861  1.0000
  C   C1226     1.0  0.62378  0.13213  0.34907  1.0000
  H   H2041     1.0  0.62996  0.11149  0.39590  1.0000
  H   H2042     1.0  0.61959  0.10406  0.36035  1.0000
  H   H2043     1.0  0.61474  0.13257  0.30965  1.0000
  H   H2044     1.0  0.62494  0.13993  0.34571  1.0000
  C   C1227     1.0  0.61035  0.16486  0.37957  1.0000
  C   C1228     1.0  0.60261  0.16819  0.36841  1.0000
  C   C1229     1.0  0.59781  0.16354  0.34628  1.0000
  C   C1230     1.0  0.60078  0.15561  0.33520  1.0000
  C   C1231     1.0  0.60872  0.15253  0.34516  1.0000
  C   C1232     1.0  0.61338  0.15702  0.36797  1.0000
  H   H2045     1.0  0.52748  0.07455  0.43912  1.0000
  H   H2046     1.0  0.59186  0.16615  0.33754  1.0000
  H   H2047     1.0  0.61097  0.14639  0.33669  1.0000
  H   H2048     1.0  0.61914  0.15421  0.37737  1.0000
  H   H2049     1.0  0.53168  0.03557  0.88716  1.0000
  H   H2050     1.0  0.60458  0.13520  0.41157  1.0000
  H   H2051     1.0  0.65177  0.16065  0.27488  1.0000
  H   H2052     1.0  0.59083  0.14236  0.18939  1.0000
  C   C1233     1.0  0.51325  0.07524  0.08094  1.0000
  C   C1234     1.0  0.51784  0.07209  0.04827  1.0000
  C   C1235     1.0  0.51250  0.06885  0.02429  1.0000
  Fe  Fe195     1.0  0.63573  0.16746  0.76207  1.0000
  H   H2053     1.0  0.57810  0.03226  0.97033  1.0000
  C   C1236     1.0  0.58469  0.02650  0.49026  1.0000
  H   H2054     1.0  0.52563  0.07235  0.04088  1.0000
  H   H2055     1.0  0.51613  0.06647  0.99922  1.0000
  H   H2056     1.0  0.67050  0.14220  0.20479  1.0000
  C   C1237     1.0  0.66673  0.14037  0.23818  1.0000
  C   C1238     1.0  0.52903  0.10533  0.28286  1.0000
  C   C1239     1.0  0.53892  0.10545  0.26602  1.0000
  C   C1240     1.0  0.54643  0.11159  0.27347  1.0000
  C   C1241     1.0  0.54418  0.11781  0.29743  1.0000
  C   C1242     1.0  0.53429  0.11778  0.31383  1.0000
  C   C1243     1.0  0.52679  0.11158  0.30666  1.0000
  H   H2057     1.0  0.54078  0.10082  0.24716  1.0000
  H   H2058     1.0  0.55402  0.11147  0.26064  1.0000
  H   H2059     1.0  0.53240  0.12250  0.33227  1.0000
  H   H2060     1.0  0.51917  0.11162  0.31966  1.0000
  C   C1244     1.0  0.54963  0.07084  0.24443  1.0000
  C   C1245     1.0  0.54634  0.07842  0.25741  1.0000
  C   C1246     1.0  0.55249  0.08487  0.26897  1.0000
  C   C1247     1.0  0.56192  0.08374  0.26788  1.0000
  C   C1248     1.0  0.56522  0.07621  0.25459  1.0000
  C   C1249     1.0  0.55911  0.06978  0.24279  1.0000
  H   H2061     1.0  0.53904  0.07934  0.25873  1.0000
  H   H2062     1.0  0.54994  0.09071  0.27908  1.0000
  H   H2063     1.0  0.57253  0.07544  0.25241  1.0000
  H   H2064     1.0  0.56183  0.06412  0.23173  1.0000
  H   H2065     1.0  0.59646  0.01165  0.46570  1.0000
  H   H2066     1.0  0.57878  0.13563  0.44270  1.0000
  H   H2067     1.0  0.66438  0.14391  0.90168  1.0000
  S   S384      1.0  0.56175  0.01265  0.66885  1.0000
  C   C1250     1.0  0.54941  0.04842  0.00690  1.0000
  C   C1251     1.0  0.55237  0.00698  0.57710  1.0000
  H   H2068     1.0  0.55865  0.02306  0.04585  1.0000
  H   H2069     1.0  0.54363  0.03101  0.26719  1.0000
  H   H2070     1.0  0.52688  0.01436  0.86453  1.0000
  H   H2071     1.0  0.65033  0.14653  0.33695  1.0000
  Fe  Fe196     1.0  0.55563  0.01521  0.81336  1.0000
  H   H2072     1.0  0.59465  0.01442  0.53196  1.0000
  C   C1252     1.0  0.53325  0.01234  0.69907  1.0000
  N   N83       1.0  0.54025  0.08673  0.40203  1.0000
  S   S385      1.0  0.54587  0.01198  0.45997  1.0000
  H   H2073     1.0  0.57414  0.01433  0.44244  1.0000
  H   H2074     1.0  0.67049  0.17303  0.83729  1.0000
  H   H2075     1.0  0.61935  0.17267  0.28654  1.0000
  H   H2076     1.0  0.58544  0.01021  0.38566  1.0000
  C   C1253     1.0  0.54291  0.02782  0.30019  1.0000
  H   H2077     1.0  0.58386  0.14848  0.21835  1.0000
  N   N84       1.0  0.55947  0.09062  0.79371  1.0000
  C   C1254     1.0  0.55596  0.09767  0.76448  1.0000
  C   C1255     1.0  0.55634  0.09225  0.83479  1.0000
  C   C1256     1.0  0.55504  0.07999  0.79893  1.0000
  C   C1257     1.0  0.57051  0.09259  0.77667  1.0000
  C   C1258     1.0  0.55730  0.09631  0.72205  1.0000
  C   C1259     1.0  0.56192  0.10197  0.83762  1.0000
  C   C1260     1.0  0.54368  0.07682  0.81322  1.0000
  C   C1261     1.0  0.57552  0.08640  0.80381  1.0000
  H   H2078     1.0  0.54803  0.09719  0.77796  1.0000
  H   H2079     1.0  0.55975  0.10549  0.75882  1.0000
  H   H2080     1.0  0.55690  0.08605  0.85932  1.0000
  H   H2081     1.0  0.54839  0.09215  0.84433  1.0000
  H   H2082     1.0  0.55785  0.07820  0.77017  1.0000
  H   H2083     1.0  0.55737  0.07488  0.82192  1.0000
  H   H2084     1.0  0.57264  0.09097  0.74721  1.0000
  H   H2085     1.0  0.57418  0.10060  0.76802  1.0000
  H   H2086     1.0  0.56516  0.09764  0.70426  1.0000
  H   H2087     1.0  0.55313  0.08893  0.72422  1.0000
  H   H2088     1.0  0.55428  0.10187  0.70412  1.0000
  H   H2089     1.0  0.56128  0.10861  0.81536  1.0000
  H   H2090     1.0  0.55864  0.10243  0.86876  1.0000
  H   H2091     1.0  0.56979  0.10214  0.83377  1.0000
  H   H2092     1.0  0.54040  0.07740  0.84405  1.0000
  H   H2093     1.0  0.54135  0.06890  0.81577  1.0000
  H   H2094     1.0  0.54049  0.08105  0.79128  1.0000
  H   H2095     1.0  0.57556  0.07916  0.79841  1.0000
  H   H2096     1.0  0.57205  0.08500  0.83694  1.0000
  H   H2097     1.0  0.58324  0.09057  0.79676  1.0000
  C   C1262     1.0  0.66818  0.15797  0.30291  1.0000
  S   S386      1.0  0.55898  0.02888  0.83458  1.0000
  H   H2098     1.0  0.67793  0.15093  0.24463  1.0000
  H   H2099     1.0  0.66408  0.15791  0.33412  1.0000
  H   H2100     1.0  0.67915  0.15501  0.86071  1.0000
  H   H2101     1.0  0.65636  0.14021  0.95397  1.0000
  H   H2102     1.0  0.65870  0.13826  0.24331  1.0000
  H   H2103     1.0  0.56717  0.17348  0.39711  1.0000
  H   H2104     1.0  0.53922  0.10751  0.38283  1.0000
  H   H2105     1.0  0.58426  0.14419  0.48932  1.0000
  H   H2106     1.0  0.55311  0.05040  0.30515  1.0000
  H   H2107     1.0  0.65701  0.13856  0.38237  1.0000
  N   N85       1.0  0.54845  0.17219  0.45543  1.0000
  C   C1263     1.0  0.67934  0.16146  0.29544  1.0000
  C   C1264     1.0  0.57633  0.04255  0.40496  1.0000
  H   H2108     1.0  0.61415  0.12572  0.44795  1.0000
  C   C1265     1.0  0.58144  0.03827  0.33150  1.0000
  C   C1266     1.0  0.58589  0.04750  0.33332  1.0000
  C   C1267     1.0  0.54039  0.09401  0.42568  1.0000
  H   H2109     1.0  0.58697  0.01959  0.42925  1.0000
  H   H2110     1.0  0.55024  0.08206  0.35777  1.0000
  H   H2111     1.0  0.58310  0.03070  0.46285  1.0000
  H   H2112     1.0  0.59653  0.14897  0.45217  1.0000
  H   H2113     1.0  0.53110  0.00936  0.93486  1.0000
  H   H2114     1.0  0.53932  0.05469  0.32360  1.0000
  H   H2115     1.0  0.55634  0.03909  0.37669  1.0000
  C   C1268     1.0  0.55840  0.08621  0.39499  1.0000
  N   N86       1.0  0.60595  0.16021  0.56185  1.0000
  N   N87       1.0  0.66481  0.14833  0.29571  1.0000
  H   H2116     1.0  0.57757  0.13938  0.20117  1.0000
  H   H2117     1.0  0.51435  0.12349  0.90217  1.0000
  H   H2118     1.0  0.56827  0.04804  0.27141  1.0000
  H   H2119     1.0  0.55953  0.09161  0.41146  1.0000
  C   C1269     1.0  0.56213  0.04123  0.28438  1.0000
  H   H2120     1.0  0.54176  0.04221  0.81876  1.0000
  H   H2121     1.0  0.60532  0.11759  0.43726  1.0000
  H   H2122     1.0  0.55323  0.09490  0.34978  1.0000
  H   H2123     1.0  0.56078  0.04747  0.85006  1.0000
  C   C1270     1.0  0.55219  0.04413  0.29294  1.0000
  H   H2124     1.0  0.60145  0.16895  0.76060  1.0000
  H   H2125     1.0  0.60076  0.11921  0.86795  1.0000
  H   H2126     1.0  0.53281  0.09308  0.44625  1.0000
  Fe  Fe197     1.0  0.50633  0.06390  0.26238  1.0000
  H   H2127     1.0  0.58052  0.12387  0.81981  1.0000
  H   H2128     1.0  0.64909  0.14337  0.62295  1.0000
  H   H2129     1.0  0.59951  0.11585  0.75434  1.0000
  C   C1271     1.0  0.65375  0.14602  0.30608  1.0000
  H   H2130     1.0  0.60381  0.13663  0.45979  1.0000
  H   H2131     1.0  0.57708  0.01356  0.54278  1.0000
  H   H2132     1.0  0.52717  0.02144  0.31135  1.0000
  C   C1272     1.0  0.53739  0.07377  0.47331  1.0000
  C   C1273     1.0  0.58184  0.04680  0.87547  1.0000
  H   H2133     1.0  0.63665  0.12505  0.72879  1.0000
  Fe  Fe198     1.0  0.56998  0.16167  0.73706  1.0000
  N   N88       1.0  0.52164  0.01012  0.65541  1.0000
  C   C1274     1.0  0.61080  0.15312  0.54424  1.0000
  C   C1275     1.0  0.51189  0.02538  0.92008  1.0000
  H   H2134     1.0  0.51410  0.02682  0.62321  1.0000
  S   S387      1.0  0.61616  0.17042  0.40828  1.0000
  C   C1276     1.0  0.61011  0.14309  0.57519  1.0000
  C   C1277     1.0  0.53305  0.04809  0.33955  1.0000
  H   H2135     1.0  0.50594  0.02586  0.67206  1.0000
  N   N89       1.0  0.59012  0.12852  0.45735  1.0000
  H   H2136     1.0  0.60787  0.15155  0.52007  1.0000
  H   H2137     1.0  0.52581  0.12050  0.87990  1.0000
  H   H2138     1.0  0.58284  0.04196  0.98743  1.0000
  C   C1278     1.0  0.60470  0.16419  0.74491  1.0000
  H   H2139     1.0  0.59469  0.14955  0.61538  1.0000
  H   H2140     1.0  0.51464  0.09070  0.99718  1.0000
  H   H2141     1.0  0.61071  0.15675  0.61549  1.0000
  H   H2142     1.0  0.60400  0.16645  0.50296  1.0000
  H   H2143     1.0  0.60241  0.13878  0.59210  1.0000
  H   H2144     1.0  0.61380  0.13856  0.55812  1.0000
  H   H2145     1.0  0.61408  0.14400  0.59719  1.0000
  H   H2146     1.0  0.50543  0.11042  0.87899  1.0000
  H   H2147     1.0  0.50824  0.03143  0.91089  1.0000
  C   C1279     1.0  0.50960  0.02153  0.65375  1.0000
  H   H2148     1.0  0.54292  0.01591  0.03757  1.0000
  C   C1280     1.0  0.64963  0.15278  0.27675  1.0000
  C   C1281     1.0  0.56703  0.04475  0.85512  1.0000
  H   H2149     1.0  0.50617  0.11180  0.96204  1.0000
  H   H2150     1.0  0.54398  0.03666  0.98606  1.0000
  H   H2151     1.0  0.52766  0.09510  0.97544  1.0000
  C   C1282     1.0  0.55392  0.02817  0.03871  1.0000
  C   C1283     1.0  0.55669  0.01173  0.60047  1.0000
  H   H2152     1.0  0.66352  0.13264  0.32204  1.0000
  H   H2153     1.0  0.53339  0.04190  0.29059  1.0000
  C   C1284     1.0  0.54498  0.16462  0.53412  1.0000
  H   H2154     1.0  0.53212  0.02211  0.92995  1.0000
  C   C1285     1.0  0.55139  0.02505  0.94952  1.0000
  C   C1286     1.0  0.57637  0.03236  0.85499  1.0000
  C   C1287     1.0  0.67200  0.16733  0.86119  1.0000
  H   H2155     1.0  0.59050  0.14060  0.40581  1.0000
  C   C1288     1.0  0.53567  0.07628  0.43118  1.0000
  N   N90       1.0  0.64901  0.13109  0.67315  1.0000
  H   H2156     1.0  0.52129  0.08714  0.95484  1.0000
  H   H2157     1.0  0.64145  0.15045  0.28882  1.0000
  H   H2158     1.0  0.57841  0.11860  0.44921  1.0000
  H   H2159     1.0  0.51762  0.00944  0.91316  1.0000
  C   C1289     1.0  0.60640  0.16897  0.52668  1.0000
  H   H2160     1.0  0.57442  0.04414  0.43364  1.0000
  C   C1290     1.0  0.55166  0.17206  0.49248  1.0000
  C   C1291     1.0  0.57611  0.03617  0.99311  1.0000
  H   H2161     1.0  0.57046  0.04694  0.95719  1.0000
  H   H2162     1.0  0.56183  0.02149  0.98121  1.0000
  H   H2163     1.0  0.62445  0.13266  0.70745  1.0000
  H   H2164     1.0  0.54654  0.04473  0.04048  1.0000
  C   C1292     1.0  0.58350  0.04962  0.37029  1.0000
  H   H2165     1.0  0.53251  0.03771  0.79876  1.0000
  H   H2166     1.0  0.55609  0.05447  0.99875  1.0000
  H   H2167     1.0  0.64834  0.13503  0.57262  1.0000
  H   H2168     1.0  0.53161  0.01623  0.35316  1.0000
  H   H2169     1.0  0.52641  0.05053  0.33524  1.0000
  H   H2170     1.0  0.52612  0.10381  0.90861  1.0000
  C   C1293     1.0  0.66055  0.17161  0.91366  1.0000
  H   H2171     1.0  0.54126  0.01758  0.08634  1.0000
  C   C1294     1.0  0.66501  0.15570  0.93272  1.0000
  H   H2172     1.0  0.55293  0.01104  0.54614  1.0000
  H   H2173     1.0  0.67039  0.15554  0.83220  1.0000
  H   H2174     1.0  0.58135  0.14745  0.58664  1.0000
  H   H2175     1.0  0.58833  0.15657  0.53845  1.0000
  H   H2176     1.0  0.63910  0.15050  0.91156  1.0000
  H   H2177     1.0  0.52132  0.03341  0.94738  1.0000
  H   H2178     1.0  0.53923  0.01844  0.88950  1.0000
  H   H2179     1.0  0.62230  0.17248  0.49289  1.0000
  H   H2180     1.0  0.53484  0.01302  0.30722  1.0000
  H   H2181     1.0  0.50896  0.02769  0.97922  1.0000
  H   H2182     1.0  0.51101  0.01157  0.70755  1.0000
  H   H2183     1.0  0.66001  0.15527  0.96310  1.0000
  N   N91       1.0  0.66303  0.16310  0.89895  1.0000
  H   H2184     1.0  0.53287  0.02961  0.62631  1.0000
  H   H2185     1.0  0.62626  0.15778  0.71485  1.0000
  C   C1295     1.0  0.57379  0.05026  0.86835  1.0000
  H   H2186     1.0  0.63825  0.12823  0.61763  1.0000
  H   H2187     1.0  0.64858  0.11620  0.67048  1.0000
  C   C1296     1.0  0.58892  0.15086  0.56477  1.0000
  H   H2188     1.0  0.54992  0.16406  0.41163  1.0000
  H   H2189     1.0  0.64172  0.16249  0.66116  1.0000
  H   H2190     1.0  0.54421  0.02138  0.97348  1.0000
  C   C1297     1.0  0.54901  0.16276  0.44478  1.0000
  C   C1298     1.0  0.59533  0.15542  0.58692  1.0000
  N   N92       1.0  0.56619  0.08240  0.09958  1.0000
  C   C1299     1.0  0.57460  0.08866  0.10660  1.0000
  C   C1300     1.0  0.56878  0.08441  0.05388  1.0000
  C   C1301     1.0  0.56543  0.07165  0.12104  1.0000
  C   C1302     1.0  0.55686  0.08527  0.11746  1.0000
  C   C1303     1.0  0.57432  0.08676  0.15155  1.0000
  C   C1304     1.0  0.56965  0.09515  0.02843  1.0000
  C   C1305     1.0  0.56046  0.06384  0.10536  1.0000
  C   C1306     1.0  0.54753  0.08087  0.10861  1.0000
  H   H2191     1.0  0.58181  0.08761  0.08979  1.0000
  H   H2192     1.0  0.57500  0.09668  0.09440  1.0000
  H   H2193     1.0  0.56342  0.07961  0.04554  1.0000
  H   H2194     1.0  0.57588  0.08252  0.04191  1.0000
  H   H2195     1.0  0.57288  0.07037  0.11874  1.0000
  H   H2196     1.0  0.56146  0.06959  0.15448  1.0000
  H   H2197     1.0  0.55482  0.08303  0.15148  1.0000
  H   H2198     1.0  0.55796  0.09347  0.10842  1.0000
  H   H2199     1.0  0.57484  0.07915  0.16584  1.0000
  H   H2200     1.0  0.58085  0.09183  0.15241  1.0000
  H   H2201     1.0  0.56770  0.08830  0.17027  1.0000
  H   H2202     1.0  0.57601  0.10044  0.02905  1.0000
  H   H2203     1.0  0.57098  0.09557  0.99587  1.0000
  H   H2204     1.0  0.56276  0.09753  0.03816  1.0000
  H   H2205     1.0  0.55307  0.06453  0.10408  1.0000
  H   H2206     1.0  0.55954  0.05636  0.12669  1.0000
  H   H2207     1.0  0.56522  0.06413  0.07487  1.0000
  H   H2208     1.0  0.54323  0.07382  0.13314  1.0000
  H   H2209     1.0  0.54893  0.07968  0.07851  1.0000
  H   H2210     1.0  0.54279  0.08620  0.10760  1.0000
  N   N93       1.0  0.59492  0.12856  0.82670  1.0000
  C   C1307     1.0  0.60104  0.13828  0.82506  1.0000
  C   C1308     1.0  0.58530  0.13041  0.82176  1.0000
  C   C1309     1.0  0.60040  0.12555  0.79133  1.0000
  C   C1310     1.0  0.61189  0.13866  0.82251  1.0000
  C   C1311     1.0  0.57893  0.13361  0.85574  1.0000
  H   H2211     1.0  0.60118  0.14438  0.79823  1.0000
  H   H2212     1.0  0.59778  0.14044  0.85242  1.0000
  H   H2213     1.0  0.58672  0.13624  0.79192  1.0000
  H   H2214     1.0  0.60407  0.13217  0.76357  1.0000
  H   H2215     1.0  0.60641  0.12228  0.79853  1.0000
  H   H2216     1.0  0.59166  0.12405  0.89305  1.0000
  H   H2217     1.0  0.61617  0.13778  0.79349  1.0000
  H   H2218     1.0  0.61544  0.14608  0.82265  1.0000
  H   H2219     1.0  0.61256  0.13311  0.84911  1.0000
  H   H2220     1.0  0.57169  0.13383  0.85089  1.0000
  H   H2221     1.0  0.57739  0.12831  0.88668  1.0000
  H   H2222     1.0  0.58231  0.14120  0.85452  1.0000
  C   C1312     1.0  0.54841  0.03882  0.38188  1.0000
  H   H2223     1.0  0.66661  0.13237  0.38522  1.0000
  H   H2224     1.0  0.53807  0.00830  0.71280  1.0000
  C   C1313     1.0  0.53072  0.08124  0.35600  1.0000
  H   H2225     1.0  0.65064  0.13823  0.30835  1.0000
  C   C1314     1.0  0.58312  0.03786  0.86837  1.0000
  H   H2226     1.0  0.67263  0.15824  0.93324  1.0000
  H   H2227     1.0  0.56555  0.08752  0.37095  1.0000
  S   S388      1.0  0.66286  0.16648  0.64748  1.0000
  H   H2228     1.0  0.55895  0.17029  0.48817  1.0000
  H   H2229     1.0  0.65933  0.13829  0.61190  1.0000
  S   S389      1.0  0.56927  0.01950  0.36247  1.0000
  C   C1315     1.0  0.57167  0.03341  0.40287  1.0000
  H   H2230     1.0  0.50595  0.01842  0.93341  1.0000
  H   H2231     1.0  0.53842  0.02927  0.82547  1.0000
  H   H2232     1.0  0.64916  0.12358  0.60455  1.0000
  H   H2233     1.0  0.51256  0.03162  0.83956  1.0000
  C   C1316     1.0  0.54388  0.03150  0.36279  1.0000
  C   C1317     1.0  0.51526  0.02671  0.95627  1.0000
  N   N94       1.0  0.51964  0.02509  0.88303  1.0000
  H   H2234     1.0  0.68048  0.16577  0.31626  1.0000
  H   H2235     1.0  0.55562  0.16032  0.44937  1.0000
  H   H2236     1.0  0.53296  0.07723  0.49359  1.0000
  H   H2237     1.0  0.52791  0.08461  0.33085  1.0000
  H   H2238     1.0  0.54450  0.10959  0.42050  1.0000
  H   H2239     1.0  0.55450  0.04547  0.94974  1.0000
  H   H2240     1.0  0.59169  0.16090  0.59774  1.0000
  S   S390      1.0  0.57059  0.17222  0.77585  1.0000
  C   C1318     1.0  0.63807  0.12788  0.69524  1.0000
  N   N95       1.0  0.58676  0.12462  0.25179  1.0000
  C   C1319     1.0  0.58547  0.11843  0.29504  1.0000
  C   C1320     1.0  0.59769  0.12786  0.22899  1.0000
  C   C1321     1.0  0.58143  0.11812  0.23305  1.0000
  C   C1322     1.0  0.58230  0.13327  0.25404  1.0000
  C   C1323     1.0  0.57475  0.11365  0.32343  1.0000
  C   C1324     1.0  0.60379  0.13542  0.24234  1.0000
  C   C1325     1.0  0.58476  0.12091  0.18595  1.0000
  C   C1326     1.0  0.58373  0.14120  0.21314  1.0000
  H   H2241     1.0  0.58923  0.11229  0.29471  1.0000
  H   H2242     1.0  0.58895  0.12287  0.31111  1.0000
  H   H2243     1.0  0.59933  0.13128  0.19561  1.0000
  H   H2244     1.0  0.60093  0.12132  0.23185  1.0000
  H   H2245     1.0  0.58218  0.11042  0.24379  1.0000
  H   H2246     1.0  0.57335  0.11758  0.24339  1.0000
  H   H2247     1.0  0.57422  0.13065  0.26917  1.0000
  H   H2248     1.0  0.58480  0.13700  0.27452  1.0000
  H   H2249     1.0  0.57086  0.11929  0.33037  1.0000
  H   H2250     1.0  0.57043  0.10895  0.31080  1.0000
  H   H2251     1.0  0.57485  0.10877  0.35302  1.0000
  H   H2252     1.0  0.61171  0.13682  0.22490  1.0000
  H   H2253     1.0  0.60178  0.14263  0.23564  1.0000
  H   H2254     1.0  0.60312  0.13268  0.27513  1.0000
  H   H2255     1.0  0.59207  0.11943  0.17410  1.0000
  H   H2256     1.0  0.58490  0.12866  0.17051  1.0000
  H   H2257     1.0  0.57947  0.11609  0.17721  1.0000
  C   C1327     1.0  0.64439  0.15503  0.92137  1.0000
  S   S391      1.0  0.58033  0.16311  0.67550  1.0000
  H   H2258     1.0  0.54490  0.03593  0.41569  1.0000
  H   H2259     1.0  0.56613  0.03233  0.93837  1.0000
  H   H2260     1.0  0.53238  0.01123  0.59842  1.0000
  H   H2261     1.0  0.55341  0.01975  0.93297  1.0000
  H   H2262     1.0  0.58989  0.11137  0.80221  1.0000
  H   H2263     1.0  0.60222  0.16712  0.63974  1.0000
  C   C1328     1.0  0.59435  0.11817  0.77706  1.0000
  H   H2264     1.0  0.58958  0.12173  0.76111  1.0000
  C   C1329     1.0  0.53546  0.03590  0.82483  1.0000
  H   H2265     1.0  0.66921  0.14163  0.94311  1.0000
  Fe  Fe199     1.0  0.65520  0.16591  0.71268  1.0000
  C   C1330     1.0  0.63228  0.13590  0.68820  1.0000
  S   S392      1.0  0.58993  0.06059  0.37513  1.0000
  H   H2266     1.0  0.66945  0.14554  0.37267  1.0000
  C   C1331     1.0  0.64640  0.13029  0.60502  1.0000
  Fe  Fe200     1.0  0.55597  0.00771  0.73872  1.0000
  H   H2267     1.0  0.58818  0.11331  0.45689  1.0000
  C   C1332     1.0  0.58622  0.11091  0.87918  1.0000
  H   H2268     1.0  0.57977  0.11125  0.86846  1.0000
  H   H2269     1.0  0.58303  0.10790  0.91311  1.0000
  S   S393      1.0  0.54818  0.01796  0.76480  1.0000
  N   N96       1.0  0.54332  0.03584  0.32027  1.0000
  H   H2270     1.0  0.53484  0.06562  0.48868  1.0000
  H   H2271     1.0  0.66860  0.15604  0.23067  1.0000
  C   C1333     1.0  0.55133  0.04107  0.98283  1.0000
  H   H2272     1.0  0.53371  0.15474  0.45706  1.0000
  N   N97       1.0  0.51034  0.10207  0.92709  1.0000
  H   H2273     1.0  0.58933  0.03511  0.87361  1.0000
  H   H2274     1.0  0.59146  0.05284  0.30648  1.0000
  H   H2275     1.0  0.66633  0.16413  0.28246  1.0000
  C   C1334     1.0  0.55974  0.02827  0.96636  1.0000
  H   H2276     1.0  0.57743  0.02546  0.85008  1.0000
  H   H2277     1.0  0.53702  0.16367  0.53850  1.0000
  H   H2278     1.0  0.55053  0.03146  0.92662  1.0000
  S   S394      1.0  0.62112  0.17064  0.76329  1.0000
  H   H2279     1.0  0.57280  0.05716  0.87315  1.0000
  H   H2280     1.0  0.57442  0.03106  0.02453  1.0000
  H   H2281     1.0  0.58995  0.10549  0.86844  1.0000
  C   C1335     1.0  0.51472  0.02459  0.85082  1.0000
  H   H2282     1.0  0.58358  0.03662  0.30300  1.0000
  H   H2283     1.0  0.66772  0.14464  0.69656  1.0000
  H   H2284     1.0  0.65564  0.15268  0.87485  1.0000
  C   C1336     1.0  0.52365  0.01607  0.89309  1.0000
  H   H2285     1.0  0.65178  0.15208  0.24561  1.0000
  C   C1337     1.0  0.51991  0.10251  0.93679  1.0000
  S   S395      1.0  0.64090  0.17188  0.43272  1.0000
  H   H2286     1.0  0.64569  0.11455  0.74530  1.0000
  H   H2287     1.0  0.50563  0.08593  0.95131  1.0000
  H   H2288     1.0  0.67836  0.17118  0.86793  1.0000
  H   H2289     1.0  0.65106  0.14516  0.68448  1.0000
  S   S396      1.0  0.50626  0.07926  0.22614  1.0000
  C   C1338     1.0  0.66494  0.13918  0.36820  1.0000
  H   H2290     1.0  0.58345  0.03070  0.51245  1.0000
  C   C1339     1.0  0.53540  0.02555  0.60489  1.0000
  C   C1340     1.0  0.57435  0.03115  0.36622  1.0000
  H   H2291     1.0  0.52458  0.07506  0.37862  1.0000
  C   C1341     1.0  0.58656  0.12035  0.44157  1.0000
  H   H2292     1.0  0.58625  0.15247  0.43957  1.0000
  H   H2293     1.0  0.55408  0.03280  0.05918  1.0000
  H   H2294     1.0  0.53805  0.07078  0.41631  1.0000
  C   C1342     1.0  0.61447  0.16384  0.74063  1.0000
  C   C1343     1.0  0.65368  0.13827  0.69091  1.0000
  H   H2295     1.0  0.68295  0.15532  0.30226  1.0000
  H   H2296     1.0  0.68208  0.16417  0.81215  1.0000
  H   H2297     1.0  0.53788  0.15194  0.50146  1.0000
  H   H2298     1.0  0.53775  0.09614  0.34914  1.0000
  C   C1344     1.0  0.53390  0.08920  0.37509  1.0000
  C   C1345     1.0  0.58862  0.14618  0.45657  1.0000
  H   H2299     1.0  0.65591  0.11018  0.72280  1.0000
  H   H2300     1.0  0.57161  0.11600  0.54650  1.0000
  Fe  Fe201     1.0  0.55562  0.00817  0.40885  1.0000
  H   H2301     1.0  0.52700  0.09070  0.39230  1.0000
  H   H2302     1.0  0.52428  0.04110  0.86088  1.0000
  H   H2303     1.0  0.54372  0.05202  0.99836  1.0000
  H   H2304     1.0  0.54618  0.16746  0.55905  1.0000
  H   H2305     1.0  0.67538  0.14009  0.31097  1.0000
  C   C1346     1.0  0.54424  0.10504  0.39983  1.0000
  C   C1347     1.0  0.51240  0.10966  0.88567  1.0000
  H   H2306     1.0  0.56067  0.01945  0.58720  1.0000
  C   C1348     1.0  0.65125  0.13622  0.62807  1.0000
  C   C1349     1.0  0.65315  0.11695  0.72229  1.0000
  C   C1350     1.0  0.55042  0.08758  0.37436  1.0000
  H   H2307     1.0  0.52168  0.10891  0.94787  1.0000
  H   H2308     1.0  0.58795  0.11575  0.38731  1.0000
  H   H2309     1.0  0.57058  0.12331  0.49996  1.0000
  C   C1351     1.0  0.52760  0.03462  0.86571  1.0000
  C   C1352     1.0  0.66979  0.14944  0.25152  1.0000
  H   H2310     1.0  0.64481  0.15029  0.95048  1.0000
  H   H2311     1.0  0.53681  0.07817  0.34268  1.0000
  C   C1353     1.0  0.52075  0.09329  0.96798  1.0000
  H   H2312     1.0  0.58775  0.11776  0.51626  1.0000
  H   H2313     1.0  0.55182  0.10676  0.37840  1.0000
  H   H2314     1.0  0.53644  0.02731  0.38454  1.0000
  C   C1354     1.0  0.60612  0.12263  0.45562  1.0000
  C   C1355     1.0  0.66743  0.13989  0.32262  1.0000
  H   H2315     1.0  0.53181  0.04562  0.37303  1.0000
  H   H2316     1.0  0.54847  0.02600  0.36268  1.0000
  H   H2317     1.0  0.66059  0.12357  0.65700  1.0000
  H   H2318     1.0  0.66872  0.13579  0.67081  1.0000
  H   H2319     1.0  0.65819  0.12179  0.73190  1.0000
  H   H2320     1.0  0.66754  0.14778  0.64429  1.0000
  C   C1356     1.0  0.57472  0.12328  0.52196  1.0000
  H   H2321     1.0  0.59885  0.12406  0.38356  1.0000
  C   C1357     1.0  0.66504  0.14179  0.67424  1.0000
  H   H2322     1.0  0.57305  0.12893  0.53701  1.0000
  S   S397      1.0  0.52013  0.01073  0.43871  1.0000
  H   H2323     1.0  0.66904  0.13388  0.25395  1.0000
  H   H2324     1.0  0.55687  0.07852  0.41535  1.0000
  C   C1358     1.0  0.58676  0.13753  0.43937  1.0000
  H   H2325     1.0  0.54493  0.09265  0.44624  1.0000
  H   H2326     1.0  0.63449  0.12153  0.68745  1.0000
  C   C1359     1.0  0.60123  0.13127  0.44503  1.0000
  N   N98       1.0  0.55796  0.03455  0.99437  1.0000
  H   H2327     1.0  0.51878  0.12511  0.84862  1.0000
  H   H2328     1.0  0.60339  0.11834  0.48867  1.0000
  C   C1360     1.0  0.56822  0.03574  0.84851  1.0000
  C   C1361     1.0  0.65300  0.12197  0.67860  1.0000
  H   H2329     1.0  0.63497  0.14230  0.69747  1.0000
  H   H2330     1.0  0.63235  0.13852  0.65598  1.0000
  H   H2331     1.0  0.65414  0.16888  0.94230  1.0000
  C   C1362     1.0  0.67597  0.15995  0.84097  1.0000
  H   H2332     1.0  0.52740  0.03347  0.34115  1.0000
  H   H2333     1.0  0.53811  0.01936  0.67654  1.0000
  H   H2334     1.0  0.65130  0.13547  0.72504  1.0000
  C   C1363     1.0  0.58600  0.12492  0.50350  1.0000
  C   C1364     1.0  0.59072  0.12245  0.39484  1.0000
  H   H2335     1.0  0.58015  0.17183  0.29057  1.0000
  H   H2336     1.0  0.61877  0.15656  0.52823  1.0000
  H   H2337     1.0  0.57024  0.01690  0.50939  1.0000
  H   H2338     1.0  0.51666  0.10726  0.86065  1.0000
  H   H2339     1.0  0.50663  0.00875  0.87814  1.0000
  C   C1365     1.0  0.60769  0.17092  0.60885  1.0000
  H   H2340     1.0  0.68319  0.16628  0.26327  1.0000
  C   C1366     1.0  0.54338  0.02161  0.05303  1.0000
  N   N99       1.0  0.58048  0.00846  0.48953  1.0000
  H   H2341     1.0  0.64125  0.16128  0.92671  1.0000
  H   H2342     1.0  0.59159  0.14487  0.55460  1.0000
  H   H2343     1.0  0.51206  0.09067  0.89859  1.0000
  H   H2344     1.0  0.52806  0.01384  0.72446  1.0000
  C   C1367     1.0  0.51596  0.01626  0.67638  1.0000
  H   H2345     1.0  0.50729  0.04271  0.13919  1.0000
  H   H2346     1.0  0.51718  0.01998  0.97218  1.0000
  H   H2347     1.0  0.52335  0.01755  0.59151  1.0000
  C   C1368     1.0  0.52793  0.01586  0.61187  1.0000
  H   H2348     1.0  0.54680  0.15731  0.53892  1.0000
  H   H2349     1.0  0.61945  0.16594  0.57345  1.0000
  H   H2350     1.0  0.66804  0.16555  0.56476  1.0000
  C   C1369     1.0  0.58118  0.01253  0.44501  1.0000
  H   H2351     1.0  0.65357  0.16454  0.86133  1.0000
  C   C1370     1.0  0.50542  0.01606  0.86407  1.0000
  H   H2352     1.0  0.60110  0.17331  0.53662  1.0000
  C   C1371     1.0  0.50421  0.04178  0.17227  1.0000
  H   H2353     1.0  0.67201  0.17329  0.94386  1.0000
  C   C1372     1.0  0.66676  0.24982  0.98467  1.0000
  H   H2354     1.0  0.65682  0.26796  0.94888  1.0000
  H   H2355     1.0  0.66619  0.21383  0.76199  1.0000
  N   N100      1.0  0.65506  0.22262  0.30930  1.0000
  C   C1373     1.0  0.69114  0.22942  0.12215  1.0000
  S   S398      1.0  0.67956  0.22456  0.03533  1.0000
  H   H2356     1.0  0.62689  0.27699  0.96355  1.0000
  H   H2357     1.0  0.62782  0.28249  0.04985  1.0000
  C   C1374     1.0  0.63474  0.26301  0.85744  1.0000
  H   H2358     1.0  0.63023  0.19780  0.31678  1.0000
  S   S399      1.0  0.74830  0.32938  0.97929  1.0000
  C   C1375     1.0  0.63273  0.26208  0.90299  1.0000
  H   H2359     1.0  0.65522  0.28859  0.84784  1.0000
  Fe  Fe202     1.0  0.68878  0.24961  0.21807  1.0000
  H   H2360     1.0  0.62845  0.29979  0.02479  1.0000
  S   S400      1.0  0.67666  0.25694  0.20730  1.0000
  H   H2361     1.0  0.64196  0.26179  0.84302  1.0000
  H   H2362     1.0  0.62071  0.18693  0.33119  1.0000
  C   C1376     1.0  0.62205  0.28535  0.10866  1.0000
  N   N101      1.0  0.64016  0.26871  0.91342  1.0000
  H   H2363     1.0  0.57261  0.18688  0.13883  1.0000
  Fe  Fe203     1.0  0.62920  0.23284  0.17813  1.0000
  S   S401      1.0  0.62160  0.22441  0.14591  1.0000
  S   S402      1.0  0.64287  0.22797  0.18361  1.0000
  Fe  Fe204     1.0  0.61311  0.24358  0.19486  1.0000
  S   S403      1.0  0.60395  0.23540  0.16538  1.0000
  S   S404      1.0  0.60734  0.25535  0.21906  1.0000
  Fe  Fe205     1.0  0.60785  0.22172  0.19825  1.0000
  H   H2364     1.0  0.64293  0.19012  0.28874  1.0000
  Fe  Fe206     1.0  0.61838  0.23852  0.11623  1.0000
  S   S405      1.0  0.62057  0.24414  0.04849  1.0000
  S   S406      1.0  0.61574  0.22955  0.23221  1.0000
  S   S407      1.0  0.62732  0.24744  0.14343  1.0000
  Fe  Fe207     1.0  0.62795  0.32875  0.15098  1.0000
  S   S408      1.0  0.61639  0.31488  0.19121  1.0000
  S   S409      1.0  0.62524  0.33706  0.19614  1.0000
  Fe  Fe208     1.0  0.63676  0.33088  0.21832  1.0000
  S   S410      1.0  0.62608  0.31693  0.26347  1.0000
  H   H2365     1.0  0.63360  0.20184  0.69554  1.0000
  Fe  Fe209     1.0  0.62877  0.31028  0.21215  1.0000
  S   S411      1.0  0.63369  0.29603  0.21294  1.0000
  Fe  Fe210     1.0  0.61471  0.32283  0.23863  1.0000
  S   S412      1.0  0.60095  0.32314  0.28577  1.0000
  S   S413      1.0  0.64049  0.32387  0.16907  1.0000
  H   H2366     1.0  0.72691  0.23642  0.16178  1.0000
  Fe  Fe211     1.0  0.60520  0.21852  0.81735  1.0000
  S   S414      1.0  0.61825  0.23170  0.78247  1.0000
  S   S415      1.0  0.59992  0.21075  0.77478  1.0000
  Fe  Fe212     1.0  0.60622  0.22141  0.89891  1.0000
  S   S416      1.0  0.61930  0.23446  0.86968  1.0000
  S   S417      1.0  0.60089  0.21538  0.96812  1.0000
  Fe  Fe213     1.0  0.61133  0.23954  0.82515  1.0000
  S   S418      1.0  0.61218  0.25596  0.79925  1.0000
  Fe  Fe214     1.0  0.62506  0.22565  0.83007  1.0000
  S   S419      1.0  0.64060  0.22382  0.81653  1.0000
  S   S420      1.0  0.59766  0.22695  0.85673  1.0000
  S   S421      1.0  0.61261  0.21203  0.86246  1.0000
  Fe  Fe215     1.0  0.61402  0.31601  0.93475  1.0000
  S   S422      1.0  0.62511  0.30686  0.93461  1.0000
  S   S423      1.0  0.60493  0.31760  0.99307  1.0000
  Fe  Fe216     1.0  0.61749  0.32100  0.84351  1.0000
  S   S424      1.0  0.62891  0.31217  0.83572  1.0000
  S   S425      1.0  0.61502  0.33048  0.78739  1.0000
  Fe  Fe217     1.0  0.61843  0.30064  0.89315  1.0000
  S   S426      1.0  0.61409  0.28385  0.91049  1.0000
  Fe  Fe218     1.0  0.63454  0.31917  0.87764  1.0000
  S   S427      1.0  0.65084  0.32611  0.86022  1.0000
  S   S428      1.0  0.60656  0.30899  0.89779  1.0000
  S   S429      1.0  0.62393  0.32883  0.88100  1.0000
  H   H2367     1.0  0.72571  0.24930  0.04304  1.0000
  C   C1377     1.0  0.63958  0.23339  0.97373  1.0000
  Fe  Fe219     1.0  0.68203  0.24166  0.89240  1.0000
  S   S430      1.0  0.67078  0.24930  0.87312  1.0000
  H   H2368     1.0  0.63571  0.28133  0.08189  1.0000
  H   H2369     1.0  0.64192  0.27085  0.96950  1.0000
  H   H2370     1.0  0.66157  0.23307  0.05181  1.0000
  S   S431      1.0  0.68976  0.24588  0.93480  1.0000
  S   S432      1.0  0.69590  0.24069  0.84864  1.0000
  C   C1378     1.0  0.69822  0.22915  0.04162  1.0000
  H   H2371     1.0  0.57651  0.18605  0.20706  1.0000
  H   H2372     1.0  0.62522  0.26769  0.01060  1.0000
  H   H2373     1.0  0.62028  0.26434  0.97425  1.0000
  C   C1379     1.0  0.65576  0.33097  0.89348  1.0000
  H   H2374     1.0  0.69565  0.25209  0.10483  1.0000
  C   C1380     1.0  0.65031  0.32895  0.93464  1.0000
  H   H2375     1.0  0.69995  0.27412  0.05454  1.0000
  H   H2376     1.0  0.64293  0.32419  0.94699  1.0000
  H   H2377     1.0  0.64851  0.22348  0.99038  1.0000
  H   H2378     1.0  0.60919  0.29848  0.02984  1.0000
  C   C1381     1.0  0.66099  0.21059  0.27077  1.0000
  Fe  Fe220     1.0  0.70354  0.23873  0.18455  1.0000
  C   C1382     1.0  0.58024  0.18358  0.81229  1.0000
  C   C1383     1.0  0.58659  0.19205  0.81302  1.0000
  H   H2379     1.0  0.61505  0.28875  0.02706  1.0000
  H   H2380     1.0  0.62469  0.27200  0.09497  1.0000
  C   C1384     1.0  0.74115  0.27135  0.08064  1.0000
  H   H2381     1.0  0.58651  0.19316  0.84194  1.0000
  C   C1385     1.0  0.64823  0.23058  0.83625  1.0000
  C   C1386     1.0  0.64754  0.24007  0.83739  1.0000
  C   C1387     1.0  0.65443  0.24571  0.84920  1.0000
  C   C1388     1.0  0.66193  0.24187  0.86049  1.0000
  C   C1389     1.0  0.66246  0.23230  0.86014  1.0000
  C   C1390     1.0  0.65563  0.22668  0.84811  1.0000
  H   H2382     1.0  0.64194  0.24320  0.82761  1.0000
  H   H2383     1.0  0.65415  0.25317  0.84838  1.0000
  H   H2384     1.0  0.66831  0.22931  0.86774  1.0000
  H   H2385     1.0  0.65615  0.21933  0.84742  1.0000
  C   C1391     1.0  0.61270  0.26369  0.83027  1.0000
  C   C1392     1.0  0.61719  0.27388  0.81182  1.0000
  C   C1393     1.0  0.61765  0.28020  0.83584  1.0000
  C   C1394     1.0  0.61342  0.27640  0.87848  1.0000
  C   C1395     1.0  0.60886  0.26624  0.89680  1.0000
  C   C1396     1.0  0.60859  0.25989  0.87291  1.0000
  H   H2386     1.0  0.62048  0.27683  0.77886  1.0000
  H   H2387     1.0  0.62136  0.28797  0.82151  1.0000
  H   H2388     1.0  0.60562  0.26322  0.92980  1.0000
  H   H2389     1.0  0.60511  0.25207  0.88747  1.0000
  C   C1397     1.0  0.62388  0.33092  0.05884  1.0000
  C   C1398     1.0  0.61413  0.32560  0.08038  1.0000
  C   C1399     1.0  0.60825  0.32167  0.05984  1.0000
  C   C1400     1.0  0.61218  0.32289  0.01803  1.0000
  C   C1401     1.0  0.62195  0.32819  0.99661  1.0000
  C   C1402     1.0  0.62771  0.33237  0.01683  1.0000
  H   H2390     1.0  0.61108  0.32459  0.11271  1.0000
  H   H2391     1.0  0.60068  0.31759  0.07644  1.0000
  H   H2392     1.0  0.62504  0.32913  0.96441  1.0000
  H   H2393     1.0  0.75080  0.27465  0.11444  1.0000
  H   H2394     1.0  0.67502  0.22130  0.71398  1.0000
  C   C1403     1.0  0.67440  0.22742  0.76539  1.0000
  H   H2395     1.0  0.60439  0.28879  0.15029  1.0000
  C   C1404     1.0  0.63653  0.26655  0.95936  1.0000
  H   H2396     1.0  0.56705  0.22842  0.77020  1.0000
  C   C1405     1.0  0.70292  0.26789  0.06814  1.0000
  H   H2397     1.0  0.62140  0.30752  0.04349  1.0000
  H   H2398     1.0  0.64826  0.25264  0.06574  1.0000
  C   C1406     1.0  0.65834  0.23325  0.30750  1.0000
  C   C1407     1.0  0.61480  0.23600  0.02756  1.0000
  C   C1408     1.0  0.61324  0.23989  0.99007  1.0000
  C   C1409     1.0  0.60895  0.23361  0.97186  1.0000
  C   C1410     1.0  0.60633  0.22335  0.99065  1.0000
  C   C1411     1.0  0.60792  0.21942  0.02814  1.0000
  C   C1412     1.0  0.61208  0.22573  0.04678  1.0000
  H   H2399     1.0  0.61515  0.24780  0.97538  1.0000
  H   H2400     1.0  0.60748  0.23674  0.94367  1.0000
  H   H2401     1.0  0.60608  0.21148  0.04232  1.0000
  H   H2402     1.0  0.61334  0.22265  0.07552  1.0000
  C   C1413     1.0  0.61483  0.26666  0.21651  1.0000
  C   C1414     1.0  0.61034  0.27414  0.22510  1.0000
  C   C1415     1.0  0.61600  0.28320  0.22391  1.0000
  C   C1416     1.0  0.62623  0.28482  0.21449  1.0000
  C   C1417     1.0  0.63073  0.27733  0.20596  1.0000
  C   C1418     1.0  0.62508  0.26833  0.20664  1.0000
  H   H2403     1.0  0.60241  0.27291  0.23294  1.0000
  H   H2404     1.0  0.61242  0.28885  0.23082  1.0000
  H   H2405     1.0  0.63864  0.27850  0.19872  1.0000
  H   H2406     1.0  0.62863  0.26263  0.20014  1.0000
  H   H2407     1.0  0.58531  0.22333  0.15944  1.0000
  H   H2408     1.0  0.60432  0.17591  0.59052  1.0000
  H   H2409     1.0  0.69215  0.19937  0.80605  1.0000
  C   C1419     1.0  0.55471  0.19028  0.82074  1.0000
  C   C1420     1.0  0.62953  0.21745  0.72115  1.0000
  H   H2410     1.0  0.56650  0.19200  0.21813  1.0000
  H   H2411     1.0  0.74298  0.27949  0.06544  1.0000
  H   H2412     1.0  0.74526  0.26807  0.05877  1.0000
  C   C1421     1.0  0.61943  0.33553  0.32197  1.0000
  H   H2413     1.0  0.66561  0.18293  0.93885  1.0000
  N   N102      1.0  0.62415  0.29646  0.09063  1.0000
  H   H2414     1.0  0.71266  0.23253  0.04805  1.0000
  H   H2415     1.0  0.64938  0.27924  0.83027  1.0000
  S   S433      1.0  0.64975  0.17889  0.72462  1.0000
  H   H2416     1.0  0.63562  0.19085  0.72414  1.0000
  H   H2417     1.0  0.61995  0.30870  0.10944  1.0000
  H   H2418     1.0  0.56014  0.22452  0.73912  1.0000
  C   C1422     1.0  0.66767  0.24986  0.19434  1.0000
  C   C1423     1.0  0.66960  0.24201  0.18003  1.0000
  C   C1424     1.0  0.66199  0.23552  0.17542  1.0000
  C   C1425     1.0  0.65247  0.23702  0.18397  1.0000
  C   C1426     1.0  0.65063  0.24521  0.19591  1.0000
  C   C1427     1.0  0.65823  0.25162  0.20121  1.0000
  H   H2419     1.0  0.67693  0.24082  0.17313  1.0000
  H   H2420     1.0  0.66345  0.22923  0.16588  1.0000
  H   H2421     1.0  0.64328  0.24640  0.20259  1.0000
  H   H2422     1.0  0.65672  0.25773  0.21201  1.0000
  H   H2423     1.0  0.72834  0.25414  0.16010  1.0000
  S   S434      1.0  0.57441  0.33758  0.76552  1.0000
  C   C1428     1.0  0.74498  0.25729  0.18175  1.0000
  C   C1429     1.0  0.60358  0.33246  0.78345  1.0000
  C   C1430     1.0  0.59461  0.32609  0.81038  1.0000
  C   C1431     1.0  0.58569  0.32763  0.80428  1.0000
  H   H2424     1.0  0.61565  0.19816  0.79412  1.0000
  H   H2425     1.0  0.71528  0.26758  0.97285  1.0000
  H   H2426     1.0  0.59456  0.31990  0.83528  1.0000
  H   H2427     1.0  0.57877  0.32260  0.82464  1.0000
  C   C1432     1.0  0.63364  0.20211  0.18766  1.0000
  H   H2428     1.0  0.58204  0.20787  0.25832  1.0000
  C   C1433     1.0  0.57205  0.19274  0.15346  1.0000
  C   C1434     1.0  0.62669  0.26909  0.97717  1.0000
  C   C1435     1.0  0.72361  0.28015  0.89513  1.0000
  H   H2429     1.0  0.55199  0.20907  0.78672  1.0000
  H   H2430     1.0  0.58515  0.21674  0.73447  1.0000
  H   H2431     1.0  0.61911  0.18700  0.79311  1.0000
  C   C1436     1.0  0.56134  0.19800  0.83169  1.0000
  C   C1437     1.0  0.59675  0.33412  0.27939  1.0000
  C   C1438     1.0  0.73351  0.24079  0.16517  1.0000
  H   H2432     1.0  0.73284  0.33734  0.94602  1.0000
  H   H2433     1.0  0.72011  0.28625  0.89136  1.0000
  H   H2434     1.0  0.59735  0.20302  0.71047  1.0000
  H   H2435     1.0  0.58769  0.32977  0.34263  1.0000
  H   H2436     1.0  0.66342  0.25519  0.99726  1.0000
  S   S435      1.0  0.70977  0.23721  0.23680  1.0000
  H   H2437     1.0  0.73396  0.25232  0.11280  1.0000
  C   C1439     1.0  0.65903  0.24210  0.97906  1.0000
  H   H2438     1.0  0.59108  0.19842  0.16708  1.0000
  S   S436      1.0  0.60154  0.20502  0.21972  1.0000
  C   C1440     1.0  0.63861  0.31201  0.06857  1.0000
  Fe  Fe221     1.0  0.70930  0.25318  0.22935  1.0000
  H   H2439     1.0  0.61107  0.18511  0.29046  1.0000
  H   H2440     1.0  0.63992  0.21453  0.75319  1.0000
  H   H2441     1.0  0.63829  0.22323  0.03149  1.0000
  C   C1441     1.0  0.67721  0.19410  0.80726  1.0000
  C   C1442     1.0  0.62759  0.19154  0.30626  1.0000
  C   C1443     1.0  0.70482  0.23108  0.06300  1.0000
  C   C1444     1.0  0.67964  0.20887  0.33444  1.0000
  C   C1445     1.0  0.71920  0.27120  0.89051  1.0000
  C   C1446     1.0  0.61661  0.17625  0.50414  1.0000
  C   C1447     1.0  0.64099  0.27952  0.89281  1.0000
  C   C1448     1.0  0.64807  0.28433  0.84829  1.0000
  H   H2442     1.0  0.62535  0.26349  0.91291  1.0000
  H   H2443     1.0  0.63360  0.28071  0.89284  1.0000
  H   H2444     1.0  0.64359  0.28405  0.91073  1.0000
  H   H2445     1.0  0.62910  0.25722  0.85484  1.0000
  H   H2446     1.0  0.64489  0.28991  0.83140  1.0000
  H   H2447     1.0  0.66982  0.22041  0.29071  1.0000
  H   H2448     1.0  0.67883  0.21413  0.75429  1.0000
  N   N103      1.0  0.60081  0.29879  0.77532  1.0000
  C   C1449     1.0  0.59371  0.29001  0.77458  1.0000
  C   C1450     1.0  0.59765  0.30803  0.75836  1.0000
  C   C1451     1.0  0.60081  0.29799  0.81832  1.0000
  C   C1452     1.0  0.61103  0.29913  0.75003  1.0000
  C   C1453     1.0  0.59518  0.27971  0.79443  1.0000
  C   C1454     1.0  0.59949  0.31146  0.71174  1.0000
  C   C1455     1.0  0.59061  0.29615  0.85004  1.0000
  C   C1456     1.0  0.61933  0.30785  0.74628  1.0000
  H   H2449     1.0  0.58594  0.29003  0.78945  1.0000
  H   H2450     1.0  0.59417  0.29045  0.74250  1.0000
  H   H2451     1.0  0.60130  0.31439  0.76566  1.0000
  H   H2452     1.0  0.58963  0.30709  0.77323  1.0000
  H   H2453     1.0  0.60429  0.29204  0.83029  1.0000
  H   H2454     1.0  0.60548  0.30489  0.81868  1.0000
  H   H2455     1.0  0.61328  0.29234  0.76340  1.0000
  H   H2456     1.0  0.61132  0.29888  0.71879  1.0000
  H   H2457     1.0  0.58903  0.27391  0.79508  1.0000
  H   H2458     1.0  0.60204  0.27844  0.77621  1.0000
  H   H2459     1.0  0.59510  0.27840  0.82655  1.0000
  H   H2460     1.0  0.59628  0.31793  0.70377  1.0000
  H   H2461     1.0  0.60747  0.31403  0.69428  1.0000
  H   H2462     1.0  0.59590  0.30565  0.70146  1.0000
  H   H2463     1.0  0.59155  0.29583  0.88023  1.0000
  H   H2464     1.0  0.58568  0.28894  0.85469  1.0000
  H   H2465     1.0  0.58697  0.30222  0.84178  1.0000
  H   H2466     1.0  0.62261  0.30577  0.77114  1.0000
  H   H2467     1.0  0.61690  0.31469  0.74711  1.0000
  H   H2468     1.0  0.62518  0.30988  0.71623  1.0000
  H   H2469     1.0  0.64326  0.19973  0.78510  1.0000
  H   H2470     1.0  0.65822  0.17679  0.89091  1.0000
  S   S437      1.0  0.66442  0.17838  0.33316  1.0000
  C   C1457     1.0  0.72998  0.27144  0.23782  1.0000
  H   H2471     1.0  0.67466  0.18277  0.89486  1.0000
  H   H2472     1.0  0.62239  0.19104  0.84805  1.0000
  H   H2473     1.0  0.60718  0.28878  0.07554  1.0000
  H   H2474     1.0  0.57528  0.17830  0.84085  1.0000
  H   H2475     1.0  0.60783  0.18956  0.75589  1.0000
  S   S438      1.0  0.69378  0.24914  0.27285  1.0000
  S   S439      1.0  0.63150  0.33588  0.08332  1.0000
  H   H2476     1.0  0.74923  0.29131  0.21719  1.0000
  C   C1458     1.0  0.59267  0.19755  0.73912  1.0000
  C   C1459     1.0  0.68307  0.24364  0.76503  1.0000
  H   H2477     1.0  0.70101  0.22908  0.01048  1.0000
  H   H2478     1.0  0.69223  0.22399  0.75058  1.0000
  H   H2479     1.0  0.63650  0.31556  0.04161  1.0000
  S   S440      1.0  0.70973  0.23426  0.12882  1.0000
  H   H2480     1.0  0.65881  0.27923  0.90734  1.0000
  C   C1460     1.0  0.58164  0.20003  0.26559  1.0000
  H   H2481     1.0  0.62357  0.28339  0.13832  1.0000
  C   C1461     1.0  0.67374  0.21878  0.74740  1.0000
  C   C1462     1.0  0.71965  0.27602  0.02212  1.0000
  H   H2482     1.0  0.69669  0.25601  0.99031  1.0000
  C   C1463     1.0  0.62797  0.28013  0.08179  1.0000
  H   H2483     1.0  0.63966  0.29809  0.05995  1.0000
  C   C1464     1.0  0.62158  0.20441  0.26711  1.0000
  C   C1465     1.0  0.70130  0.23128  0.10330  1.0000
  C   C1466     1.0  0.65600  0.22870  0.04294  1.0000
  H   H2484     1.0  0.64113  0.23496  0.29128  1.0000
  H   H2485     1.0  0.64873  0.25773  0.91692  1.0000
  H   H2486     1.0  0.74462  0.31133  0.10215  1.0000
  H   H2487     1.0  0.68831  0.22945  0.15311  1.0000
  C   C1467     1.0  0.61287  0.29344  0.04648  1.0000
  H   H2488     1.0  0.69049  0.23373  0.68780  1.0000
  H   H2489     1.0  0.55438  0.22774  0.78361  1.0000
  C   C1468     1.0  0.64984  0.26585  0.90277  1.0000
  C   C1469     1.0  0.66877  0.17789  0.92323  1.0000
  C   C1470     1.0  0.60021  0.33783  0.89137  1.0000
  S   S441      1.0  0.72198  0.26682  0.21293  1.0000
  C   C1471     1.0  0.72372  0.26328  0.89449  1.0000
  H   H2490     1.0  0.58222  0.20401  0.03131  1.0000
  H   H2491     1.0  0.61564  0.17496  0.24125  1.0000
  H   H2492     1.0  0.71715  0.25924  0.08274  1.0000
  H   H2493     1.0  0.67534  0.25493  0.77381  1.0000
  H   H2494     1.0  0.74764  0.32586  0.11240  1.0000
  H   H2495     1.0  0.58041  0.21361  0.69708  1.0000
  C   C1472     1.0  0.69167  0.23066  0.76017  1.0000
  H   H2496     1.0  0.67670  0.22575  0.11617  1.0000
  S   S442      1.0  0.69180  0.21254  0.85433  1.0000
  C   C1473     1.0  0.59022  0.33551  0.31315  1.0000
  C   C1474     1.0  0.67732  0.19679  0.29901  1.0000
  H   H2497     1.0  0.61898  0.18034  0.52375  1.0000
  H   H2498     1.0  0.55184  0.18332  0.84717  1.0000
  H   H2499     1.0  0.67296  0.22409  0.79888  1.0000
  H   H2500     1.0  0.55266  0.21257  0.82939  1.0000
  H   H2501     1.0  0.63567  0.22562  0.34131  1.0000
  H   H2502     1.0  0.67041  0.21059  0.87590  1.0000
  C   C1475     1.0  0.68200  0.20617  0.29880  1.0000
  H   H2503     1.0  0.63795  0.21269  0.39067  1.0000
  C   C1476     1.0  0.56958  0.21565  0.85380  1.0000
  H   H2504     1.0  0.70532  0.23979  0.71016  1.0000
  H   H2505     1.0  0.60582  0.19795  0.30308  1.0000
  H   H2506     1.0  0.62867  0.19632  0.18196  1.0000
  C   C1477     1.0  0.67237  0.20604  0.85674  1.0000
  H   H2507     1.0  0.60659  0.33860  0.90310  1.0000
  N   N104      1.0  0.65848  0.30640  0.25732  1.0000
  C   C1478     1.0  0.65929  0.30226  0.22205  1.0000
  C   C1479     1.0  0.65685  0.29779  0.29506  1.0000
  C   C1480     1.0  0.66820  0.31360  0.24795  1.0000
  C   C1481     1.0  0.65014  0.31150  0.26098  1.0000
  C   C1482     1.0  0.66194  0.30988  0.17904  1.0000
  C   C1483     1.0  0.64748  0.28943  0.30684  1.0000
  C   C1484     1.0  0.66926  0.31866  0.28018  1.0000
  C   C1485     1.0  0.64556  0.31295  0.30285  1.0000
  H   H2508     1.0  0.66487  0.29776  0.22043  1.0000
  H   H2509     1.0  0.65223  0.29709  0.22659  1.0000
  H   H2510     1.0  0.65654  0.30012  0.32244  1.0000
  H   H2511     1.0  0.66325  0.29434  0.29110  1.0000
  H   H2512     1.0  0.67436  0.30988  0.24244  1.0000
  H   H2513     1.0  0.66974  0.31980  0.21930  1.0000
  H   H2514     1.0  0.65248  0.31891  0.23725  1.0000
  H   H2515     1.0  0.64394  0.30728  0.25442  1.0000
  H   H2516     1.0  0.66071  0.30588  0.15732  1.0000
  H   H2517     1.0  0.65725  0.31520  0.17832  1.0000
  H   H2518     1.0  0.66983  0.31391  0.16716  1.0000
  H   H2519     1.0  0.64610  0.28439  0.33825  1.0000
  H   H2520     1.0  0.64082  0.29227  0.30680  1.0000
  H   H2521     1.0  0.64838  0.28484  0.28615  1.0000
  H   H2522     1.0  0.67690  0.32334  0.26991  1.0000
  H   H2523     1.0  0.66811  0.31333  0.31061  1.0000
  H   H2524     1.0  0.66438  0.32381  0.28255  1.0000
  H   H2525     1.0  0.64414  0.32046  0.29737  1.0000
  H   H2526     1.0  0.65010  0.31243  0.32340  1.0000
  H   H2527     1.0  0.63823  0.30767  0.31941  1.0000
  C   C1486     1.0  0.70282  0.25521  0.00314  1.0000
  H   H2528     1.0  0.66598  0.22644  0.24956  1.0000
  H   H2529     1.0  0.64372  0.22394  0.10148  1.0000
  S   S443      1.0  0.67704  0.22549  0.92821  1.0000
  C   C1487     1.0  0.55728  0.21310  0.79818  1.0000
  H   H2530     1.0  0.66521  0.26990  0.89952  1.0000
  H   H2531     1.0  0.65730  0.24566  0.06500  1.0000
  H   H2532     1.0  0.61953  0.20734  0.23920  1.0000
  C   C1488     1.0  0.56000  0.22401  0.77091  1.0000
  H   H2533     1.0  0.73628  0.25844  0.90629  1.0000
  H   H2534     1.0  0.61418  0.28164  0.11680  1.0000
  C   C1489     1.0  0.61559  0.19391  0.74051  1.0000
  H   H2535     1.0  0.63187  0.25414  0.91990  1.0000
  S   S444      1.0  0.70410  0.25477  0.17427  1.0000
  C   C1490     1.0  0.64610  0.22121  0.29534  1.0000
  C   C1491     1.0  0.66334  0.22048  0.27966  1.0000
  C   C1492     1.0  0.73479  0.25189  0.14333  1.0000
  H   H2536     1.0  0.63688  0.29778  0.11203  1.0000
  C   C1493     1.0  0.62208  0.29972  0.05047  1.0000
  H   H2537     1.0  0.66308  0.23782  0.96156  1.0000
  N   N105      1.0  0.68396  0.23534  0.74686  1.0000
  Fe  Fe222     1.0  0.70329  0.24344  0.89491  1.0000
  C   C1494     1.0  0.65805  0.27113  0.91556  1.0000
  H   H2538     1.0  0.65297  0.26716  0.86951  1.0000
  Fe  Fe223     1.0  0.69110  0.22449  0.88628  1.0000
  H   H2539     1.0  0.63575  0.25859  0.97551  1.0000
  C   C1495     1.0  0.72954  0.26638  0.27772  1.0000
  H   H2540     1.0  0.64520  0.24070  0.10188  1.0000
  C   C1496     1.0  0.61838  0.30051  0.12163  1.0000
  C   C1497     1.0  0.59269  0.19924  0.77635  1.0000
  C   C1498     1.0  0.63496  0.30059  0.08346  1.0000
  H   H2541     1.0  0.63394  0.27024  0.83988  1.0000
  H   H2542     1.0  0.62071  0.29887  0.14957  1.0000
  H   H2543     1.0  0.66014  0.21536  0.35903  1.0000
  H   H2544     1.0  0.60410  0.29958  0.11040  1.0000
  C   C1499     1.0  0.60708  0.29692  0.13576  1.0000
  H   H2545     1.0  0.63776  0.23575  0.05970  1.0000
  C   C1500     1.0  0.64515  0.24069  0.04036  1.0000
  S   S445      1.0  0.68779  0.23362  0.22428  1.0000
  H   H2546     1.0  0.61910  0.18967  0.72154  1.0000
  C   C1501     1.0  0.73612  0.27036  0.29584  1.0000
  H   H2547     1.0  0.63613  0.23909  0.98297  1.0000
  H   H2548     1.0  0.60393  0.30023  0.15954  1.0000
  H   H2549     1.0  0.65572  0.24652  0.95819  1.0000
  H   H2550     1.0  0.66029  0.22472  0.02461  1.0000
  H   H2551     1.0  0.70549  0.26982  0.09266  1.0000
  C   C1502     1.0  0.64447  0.22833  0.00443  1.0000
  H   H2552     1.0  0.72409  0.25945  0.29476  1.0000
  H   H2553     1.0  0.63363  0.22772  0.97221  1.0000
  S   S446      1.0  0.74771  0.30149  0.98916  1.0000
  H   H2554     1.0  0.65337  0.21767  0.10162  1.0000
  H   H2555     1.0  0.63598  0.31517  0.09346  1.0000
  S   S447      1.0  0.71894  0.25208  0.88575  1.0000
  H   H2556     1.0  0.67110  0.24639  0.00329  1.0000
  N   N106      1.0  0.65119  0.23512  0.01738  1.0000
  C   C1503     1.0  0.64939  0.24505  0.06948  1.0000
  H   H2557     1.0  0.55888  0.18826  0.79444  1.0000
  H   H2558     1.0  0.66002  0.23828  0.27574  1.0000
  C   C1504     1.0  0.64893  0.22082  0.08273  1.0000
  H   H2559     1.0  0.64679  0.31410  0.05910  1.0000
  H   H2560     1.0  0.66899  0.24371  0.31887  1.0000
  H   H2561     1.0  0.66622  0.23141  0.35336  1.0000
  H   H2562     1.0  0.64479  0.21459  0.07623  1.0000
  H   H2563     1.0  0.64364  0.24687  0.01856  1.0000
  Fe  Fe224     1.0  0.68603  0.22955  0.96664  1.0000
  H   H2564     1.0  0.67210  0.25423  0.95400  1.0000
  H   H2565     1.0  0.64490  0.23664  0.94222  1.0000
  H   H2566     1.0  0.67410  0.23472  0.30084  1.0000
  C   C1505     1.0  0.66742  0.23575  0.32112  1.0000
  H   H2567     1.0  0.65246  0.23569  0.32636  1.0000
  Fe  Fe225     1.0  0.69377  0.23325  0.27615  1.0000
  C   C1506     1.0  0.59187  0.18883  0.13030  1.0000
  C   C1507     1.0  0.58653  0.18894  0.73846  1.0000
  H   H2568     1.0  0.74200  0.33848  0.34194  1.0000
  H   H2569     1.0  0.72331  0.25581  0.99810  1.0000
  H   H2570     1.0  0.67964  0.33798  0.18460  1.0000
  H   H2571     1.0  0.57914  0.20956  0.81499  1.0000
  C   C1508     1.0  0.57025  0.20675  0.75905  1.0000
  H   H2572     1.0  0.70762  0.25178  0.98398  1.0000
  H   H2573     1.0  0.64834  0.22362  0.26126  1.0000
  H   H2574     1.0  0.66175  0.33486  0.19195  1.0000
  S   S448      1.0  0.69977  0.22703  0.92865  1.0000
  H   H2575     1.0  0.64226  0.21322  0.30574  1.0000
  C   C1509     1.0  0.65320  0.21544  0.35122  1.0000
  H   H2576     1.0  0.67930  0.19475  0.27139  1.0000
  C   C1510     1.0  0.68454  0.22729  0.10116  1.0000
  C   C1511     1.0  0.68806  0.22719  0.06082  1.0000
  H   H2577     1.0  0.73312  0.26856  0.08725  1.0000
  H   H2578     1.0  0.66792  0.23040  0.76350  1.0000
  H   H2579     1.0  0.75278  0.30722  0.13054  1.0000
  H   H2580     1.0  0.68954  0.22802  0.79422  1.0000
  H   H2581     1.0  0.73764  0.28439  0.18519  1.0000
  C   C1512     1.0  0.62044  0.17822  0.25660  1.0000
  H   H2582     1.0  0.67780  0.25413  0.72352  1.0000
  C   C1513     1.0  0.58950  0.18661  0.26132  1.0000
  C   C1514     1.0  0.66736  0.19441  0.82194  1.0000
  N   N107      1.0  0.56561  0.20814  0.79978  1.0000
  H   H2583     1.0  0.70964  0.25119  0.06757  1.0000
  C   C1515     1.0  0.63221  0.21101  0.75649  1.0000
  C   C1516     1.0  0.70231  0.23722  0.74407  1.0000
  H   H2584     1.0  0.68122  0.24073  0.79898  1.0000
  C   C1517     1.0  0.67932  0.24160  0.68034  1.0000
  H   H2585     1.0  0.56438  0.18035  0.20957  1.0000
  C   C1518     1.0  0.59011  0.19681  0.25167  1.0000
  S   S449      1.0  0.68529  0.22064  0.33537  1.0000
  H   H2586     1.0  0.70712  0.23269  0.75551  1.0000
  H   H2587     1.0  0.72605  0.27576  0.99738  1.0000
  H   H2588     1.0  0.64568  0.22449  0.38519  1.0000
  C   C1519     1.0  0.64781  0.20376  0.70343  1.0000
  H   H2589     1.0  0.65890  0.20407  0.29866  1.0000
  H   H2590     1.0  0.68752  0.21126  0.27118  1.0000
  C   C1520     1.0  0.67554  0.24960  0.75619  1.0000
  H   H2591     1.0  0.71243  0.27050  0.88294  1.0000
  H   H2592     1.0  0.55569  0.18787  0.42619  1.0000
  H   H2593     1.0  0.58645  0.18794  0.70952  1.0000
  C   C1521     1.0  0.71529  0.25824  0.05542  1.0000
  C   C1522     1.0  0.68723  0.23917  0.70070  1.0000
  H   H2594     1.0  0.69333  0.24601  0.68910  1.0000
  H   H2595     1.0  0.70303  0.24359  0.75584  1.0000
  H   H2596     1.0  0.63073  0.20274  0.83936  1.0000
  H   H2597     1.0  0.65526  0.21026  0.25552  1.0000
  H   H2598     1.0  0.67184  0.24026  0.70178  1.0000
  H   H2599     1.0  0.60026  0.17428  0.37718  1.0000
  H   H2600     1.0  0.56596  0.19552  0.29785  1.0000
  H   H2601     1.0  0.64718  0.21356  0.41600  1.0000
  C   C1523     1.0  0.63538  0.18542  0.30657  1.0000
  C   C1524     1.0  0.64549  0.21668  0.38732  1.0000
  C   C1525     1.0  0.61238  0.20297  0.30382  1.0000
  C   C1526     1.0  0.72439  0.25643  0.02708  1.0000
  H   H2602     1.0  0.59971  0.18984  0.11275  1.0000
  C   C1527     1.0  0.58702  0.21894  0.13826  1.0000
  C   C1528     1.0  0.59041  0.19880  0.13634  1.0000
  H   H2603     1.0  0.65086  0.20259  0.67350  1.0000
  C   C1529     1.0  0.63829  0.22688  0.30797  1.0000
  H   H2604     1.0  0.65064  0.20770  0.35179  1.0000
  C   C1530     1.0  0.61765  0.18772  0.26252  1.0000
  C   C1531     1.0  0.58050  0.17965  0.28403  1.0000
  H   H2605     1.0  0.63876  0.19261  0.22976  1.0000
  C   C1532     1.0  0.57833  0.21550  0.72594  1.0000
  C   C1533     1.0  0.63550  0.19563  0.79221  1.0000
  C   C1534     1.0  0.63663  0.19889  0.72044  1.0000
  H   H2606     1.0  0.69019  0.24927  0.75396  1.0000
  H   H2607     1.0  0.64017  0.20471  0.23300  1.0000
  H   H2608     1.0  0.61053  0.21022  0.30177  1.0000
  H   H2609     1.0  0.61403  0.17576  0.61206  1.0000
  C   C1535     1.0  0.58008  0.18198  0.77508  1.0000
  H   H2610     1.0  0.66791  0.24500  0.76638  1.0000
  H   H2611     1.0  0.58694  0.22351  0.10810  1.0000
  H   H2612     1.0  0.57060  0.18663  0.37884  1.0000
  C   C1536     1.0  0.58268  0.19976  0.06132  1.0000
  H   H2613     1.0  0.59453  0.21793  0.13614  1.0000
  C   C1537     1.0  0.68221  0.20568  0.84232  1.0000
  H   H2614     1.0  0.62178  0.32956  0.34109  1.0000
  H   H2615     1.0  0.75120  0.33200  0.05883  1.0000
  H   H2616     1.0  0.63122  0.22526  0.72089  1.0000
  C   C1538     1.0  0.74324  0.27940  0.27438  1.0000
  C   C1539     1.0  0.57255  0.19302  0.28796  1.0000
  H   H2617     1.0  0.73798  0.25774  0.20252  1.0000
  H   H2618     1.0  0.62156  0.21528  0.72552  1.0000
  N   N108      1.0  0.62548  0.19534  0.26639  1.0000
  H   H2619     1.0  0.63391  0.21744  0.69069  1.0000
  H   H2620     1.0  0.65744  0.20078  0.85809  1.0000
  C   C1540     1.0  0.58156  0.20624  0.08957  1.0000
  H   H2621     1.0  0.56453  0.20466  0.74508  1.0000
  H   H2622     1.0  0.66776  0.20996  0.24914  1.0000
  S   S450      1.0  0.75124  0.28414  0.29909  1.0000
  H   H2623     1.0  0.57596  0.22246  0.71892  1.0000
  S   S451      1.0  0.73757  0.29275  0.91066  1.0000
  C   C1541     1.0  0.70855  0.26561  0.99965  1.0000
  H   H2624     1.0  0.67919  0.18965  0.78774  1.0000
  H   H2625     1.0  0.58744  0.18580  0.11338  1.0000
  H   H2626     1.0  0.70790  0.33795  0.04105  1.0000
  C   C1542     1.0  0.67012  0.19008  0.33457  1.0000
  H   H2627     1.0  0.60202  0.33388  0.86841  1.0000
  H   H2628     1.0  0.66221  0.18770  0.39780  1.0000
  N   N109      1.0  0.63110  0.20022  0.76006  1.0000
  H   H2629     1.0  0.67876  0.23718  0.65937  1.0000
  H   H2630     1.0  0.74382  0.27407  0.91591  1.0000
  H   H2631     1.0  0.62804  0.17952  0.23628  1.0000
  H   H2632     1.0  0.61133  0.33412  0.33530  1.0000
  H   H2633     1.0  0.66962  0.33868  0.84623  1.0000
  H   H2634     1.0  0.68155  0.24951  0.66111  1.0000
  C   C1543     1.0  0.57194  0.18281  0.29682  1.0000
  C   C1544     1.0  0.67249  0.20213  0.37010  1.0000
  H   H2635     1.0  0.75230  0.26307  0.21955  1.0000
  C   C1545     1.0  0.57915  0.20898  0.15559  1.0000
  C   C1546     1.0  0.74378  0.28438  0.23422  1.0000
  H   H2636     1.0  0.59686  0.20475  0.11413  1.0000
  C   C1547     1.0  0.74380  0.26923  0.12072  1.0000
  H   H2637     1.0  0.71194  0.28785  0.02851  1.0000
  H   H2638     1.0  0.63180  0.22438  0.29885  1.0000
  H   H2639     1.0  0.56398  0.22004  0.85367  1.0000
  H   H2640     1.0  0.55682  0.19849  0.86125  1.0000
  H   H2641     1.0  0.61553  0.20114  0.72040  1.0000
  H   H2642     1.0  0.73115  0.26226  0.02016  1.0000
  H   H2643     1.0  0.57380  0.20046  0.76356  1.0000
  H   H2644     1.0  0.61359  0.20027  0.33380  1.0000
  C   C1548     1.0  0.69387  0.25898  0.08962  1.0000
  H   H2645     1.0  0.57492  0.20912  0.08831  1.0000
  C   C1549     1.0  0.73264  0.26445  0.90359  1.0000
  C   C1550     1.0  0.66502  0.20044  0.84661  1.0000
  N   N110      1.0  0.58092  0.20148  0.13351  1.0000
  H   H2646     1.0  0.57190  0.21071  0.15639  1.0000
  H   H2647     1.0  0.57676  0.19287  0.07273  1.0000
  H   H2648     1.0  0.62757  0.21186  0.78500  1.0000
  H   H2649     1.0  0.74586  0.24975  0.19540  1.0000
  H   H2650     1.0  0.73218  0.23921  0.19857  1.0000
  C   C1551     1.0  0.68456  0.19968  0.81752  1.0000
  C   C1552     1.0  0.73252  0.28130  0.90441  1.0000
  H   H2651     1.0  0.59006  0.19817  0.05470  1.0000
  H   H2652     1.0  0.57878  0.20597  0.18815  1.0000
  H   H2653     1.0  0.64096  0.20387  0.16408  1.0000
  C   C1553     1.0  0.73696  0.27333  0.90896  1.0000
  H   H2654     1.0  0.72252  0.27670  0.04766  1.0000
  H   H2655     1.0  0.62740  0.21057  0.26665  1.0000
  H   H2656     1.0  0.58797  0.21278  0.07410  1.0000
  H   H2657     1.0  0.68979  0.25772  0.06841  1.0000
  H   H2658     1.0  0.65184  0.20034  0.72357  1.0000
  S   S452      1.0  0.65763  0.18744  0.81100  1.0000
  H   H2659     1.0  0.70415  0.27096  0.99081  1.0000
  C   C1554     1.0  0.66767  0.19282  0.37009  1.0000
  H   H2660     1.0  0.67067  0.20412  0.39789  1.0000
  H   H2661     1.0  0.55300  0.18160  0.39204  1.0000
  H   H2662     1.0  0.73565  0.26643  0.32686  1.0000
  H   H2663     1.0  0.57741  0.22097  0.78961  1.0000
  H   H2664     1.0  0.63575  0.18789  0.79295  1.0000
  H   H2665     1.0  0.64943  0.21187  0.69777  1.0000
  H   H2666     1.0  0.75149  0.30284  0.08939  1.0000
  H   H2667     1.0  0.65028  0.33149  0.99180  1.0000
  C   C1555     1.0  0.73718  0.28043  0.21615  1.0000
  C   C1556     1.0  0.56985  0.18758  0.19964  1.0000
  C   C1557     1.0  0.62032  0.19481  0.77391  1.0000
  C   C1558     1.0  0.58568  0.33579  0.77246  1.0000
  H   H2668     1.0  0.63397  0.19140  0.85701  1.0000
  H   H2669     1.0  0.56530  0.19504  0.14952  1.0000
  H   H2670     1.0  0.57587  0.22008  0.85896  1.0000
  H   H2671     1.0  0.69948  0.24992  0.03438  1.0000
  H   H2672     1.0  0.61464  0.19098  0.23780  1.0000
  C   C1559     1.0  0.63485  0.19858  0.23043  1.0000
  H   H2673     1.0  0.68865  0.26069  0.11436  1.0000
  H   H2674     1.0  0.59600  0.18404  0.25061  1.0000
  H   H2675     1.0  0.59341  0.32351  0.93832  1.0000
  C   C1560     1.0  0.57334  0.21367  0.81269  1.0000
  N   N111      1.0  0.71143  0.26673  0.03619  1.0000
  C   C1561     1.0  0.63022  0.19524  0.83645  1.0000
  H   H2676     1.0  0.56731  0.19463  0.83881  1.0000
  H   H2677     1.0  0.72398  0.29195  0.99239  1.0000
  H   H2678     1.0  0.63105  0.20899  0.18259  1.0000
  C   C1562     1.0  0.71712  0.28590  0.00461  1.0000
  H   H2679     1.0  0.59053  0.18318  0.16036  1.0000
  H   H2680     1.0  0.73988  0.23803  0.15174  1.0000
  C   C1563     1.0  0.53654  0.18318  0.47193  1.0000
  Fe  Fe226     1.0  0.65424  0.17539  0.78166  1.0000
  H   H2681     1.0  0.63521  0.33661  0.00003  1.0000
  H   H2682     1.0  0.71427  0.28594  0.97861  1.0000
  C   C1564     1.0  0.66534  0.33714  0.87795  1.0000
  C   C1565     1.0  0.65446  0.33312  0.95992  1.0000
  H   H2683     1.0  0.73825  0.27133  0.14291  1.0000
  H   H2684     1.0  0.56667  0.20870  0.88012  1.0000
  N   N112      1.0  0.74434  0.25873  0.13906  1.0000
  H   H2685     1.0  0.58994  0.33346  0.95462  1.0000
  H   H2686     1.0  0.54825  0.19274  0.81461  1.0000
  H   H2687     1.0  0.75057  0.25293  0.09009  1.0000
  C   C1566     1.0  0.55549  0.18074  0.41956  1.0000
  C   C1567     1.0  0.53824  0.17383  0.46072  1.0000
  H   H2688     1.0  0.52862  0.18315  0.47780  1.0000
  H   H2689     1.0  0.61621  0.18184  0.47687  1.0000
  C   C1568     1.0  0.75182  0.30946  0.09988  1.0000
  H   H2690     1.0  0.62129  0.33474  0.29094  1.0000
  C   C1569     1.0  0.66482  0.33959  0.20696  1.0000
  H   H2691     1.0  0.58467  0.32895  0.91982  1.0000
  C   C1570     1.0  0.66395  0.33948  0.94408  1.0000
  C   C1571     1.0  0.59146  0.33067  0.92800  1.0000
  H   H2692     1.0  0.55311  0.17955  0.49603  1.0000
  Fe  Fe227     1.0  0.75089  0.30008  0.92588  1.0000
  H   H2693     1.0  0.53824  0.18336  0.50032  1.0000
  C   C1572     1.0  0.75281  0.25598  0.11294  1.0000
  H   H2694     1.0  0.54073  0.19008  0.44648  1.0000
  H   H2695     1.0  0.63536  0.18237  0.33861  1.0000
  H   H2696     1.0  0.63387  0.17906  0.29542  1.0000
  S   S453      1.0  0.56045  0.17406  0.32219  1.0000
  C   C1573     1.0  0.56635  0.18014  0.40627  1.0000
  H   H2697     1.0  0.56985  0.18047  0.43018  1.0000
  H   H2698     1.0  0.58829  0.33946  0.85137  1.0000
  H   H2699     1.0  0.53634  0.17419  0.43209  1.0000
  C   C1574     1.0  0.75336  0.26450  0.18633  1.0000
  H   H2700     1.0  0.75327  0.27235  0.17415  1.0000
  Fe  Fe228     1.0  0.52828  0.41681  0.18634  1.0000
  S   S454      1.0  0.53388  0.43134  0.13549  1.0000
  S   S455      1.0  0.53870  0.40676  0.18034  1.0000
  C   C1575     1.0  0.73793  0.35441  0.29895  1.0000
  S   S456      1.0  0.51385  0.43724  0.17666  1.0000
  H   H2701     1.0  0.62043  0.42036  0.21363  1.0000
  Fe  Fe229     1.0  0.51852  0.42913  0.13239  1.0000
  H   H2702     1.0  0.73489  0.36108  0.29469  1.0000
  Fe  Fe230     1.0  0.52863  0.43805  0.18452  1.0000
  S   S457      1.0  0.53679  0.45290  0.18198  1.0000
  H   H2703     1.0  0.68761  0.41296  0.48648  1.0000
  S   S458      1.0  0.52422  0.42374  0.23601  1.0000
  H   H2704     1.0  0.54263  0.41638  0.29705  1.0000
  S   S459      1.0  0.56802  0.38220  0.38962  1.0000
  S   S460      1.0  0.54862  0.38467  0.33861  1.0000
  Fe  Fe231     1.0  0.58285  0.38615  0.34266  1.0000
  S   S461      1.0  0.59366  0.40015  0.33375  1.0000
  S   S462      1.0  0.57699  0.38408  0.29263  1.0000
  Fe  Fe232     1.0  0.64006  0.40529  0.36959  1.0000
  S   S463      1.0  0.65105  0.41915  0.32719  1.0000
  S   S464      1.0  0.63485  0.39380  0.34268  1.0000
  Fe  Fe233     1.0  0.64055  0.41106  0.44559  1.0000
  S   S465      1.0  0.65173  0.42548  0.40837  1.0000
  S   S466      1.0  0.63419  0.40427  0.51441  1.0000
  Fe  Fe234     1.0  0.64241  0.42672  0.36638  1.0000
  S   S467      1.0  0.63917  0.44071  0.33184  1.0000
  Fe  Fe235     1.0  0.65915  0.41641  0.37283  1.0000
  S   S468      1.0  0.67557  0.41778  0.35054  1.0000
  S   S469      1.0  0.63075  0.41292  0.40632  1.0000
  S   S470      1.0  0.64860  0.40196  0.41298  1.0000
  Fe  Fe236     1.0  0.57068  0.45767  0.29798  1.0000
  S   S471      1.0  0.57973  0.46464  0.33007  1.0000
  S   S472      1.0  0.55426  0.45174  0.32613  1.0000
  Fe  Fe237     1.0  0.58847  0.45927  0.22632  1.0000
  S   S473      1.0  0.59915  0.46667  0.25191  1.0000
  S   S474      1.0  0.59266  0.45325  0.17298  1.0000
  Fe  Fe238     1.0  0.59018  0.45540  0.31255  1.0000
  S   S475      1.0  0.59577  0.44665  0.36062  1.0000
  Fe  Fe239     1.0  0.58784  0.47532  0.26749  1.0000
  S   S476      1.0  0.59215  0.49168  0.25764  1.0000
  S   S477      1.0  0.58024  0.44735  0.28651  1.0000
  S   S478      1.0  0.57809  0.46902  0.23590  1.0000
  Fe  Fe240     1.0  0.51256  0.41087  0.91221  1.0000
  S   S479      1.0  0.51426  0.40478  0.85901  1.0000
  N   N113      1.0  0.59867  0.34785  0.87168  1.0000
  Fe  Fe241     1.0  0.52732  0.43030  0.86088  1.0000
  S   S480      1.0  0.53049  0.42623  0.80342  1.0000
  S   S481      1.0  0.53434  0.44482  0.86580  1.0000
  Fe  Fe242     1.0  0.51409  0.42017  0.82285  1.0000
  H   H2705     1.0  0.54750  0.48675  0.80034  1.0000
  Fe  Fe243     1.0  0.53053  0.41131  0.84296  1.0000
  S   S482      1.0  0.54396  0.40529  0.82588  1.0000
  S   S483      1.0  0.50716  0.42440  0.77286  1.0000
  S   S484      1.0  0.52871  0.41599  0.89911  1.0000
  Fe  Fe244     1.0  0.57606  0.37008  0.65796  1.0000
  Fe  Fe245     1.0  0.57991  0.37415  0.73296  1.0000
  S   S485      1.0  0.56764  0.36146  0.77705  1.0000
  S   S486      1.0  0.58738  0.38440  0.75951  1.0000
  Fe  Fe246     1.0  0.55905  0.36652  0.73534  1.0000
  S   S487      1.0  0.54382  0.36890  0.75675  1.0000
  S   S488      1.0  0.58640  0.36564  0.69274  1.0000
  S   S489      1.0  0.57095  0.37988  0.69424  1.0000
  Fe  Fe247     1.0  0.64504  0.41784  0.69242  1.0000
  S   S490      1.0  0.64366  0.42530  0.74128  1.0000
  S   S491      1.0  0.65077  0.42616  0.62455  1.0000
  Fe  Fe248     1.0  0.63559  0.39750  0.75382  1.0000
  S   S492      1.0  0.63322  0.40306  0.80755  1.0000
  S   S493      1.0  0.62988  0.38157  0.76084  1.0000
  Fe  Fe249     1.0  0.62842  0.41526  0.77016  1.0000
  S   S494      1.0  0.61404  0.41854  0.80022  1.0000
  Fe  Fe250     1.0  0.64860  0.41246  0.77479  1.0000
  S   S495      1.0  0.65748  0.41328  0.81778  1.0000
  S   S496      1.0  0.62944  0.40882  0.71886  1.0000
  S   S497      1.0  0.65137  0.40593  0.72329  1.0000
  Fe  Fe251     1.0  0.59002  0.46794  0.94717  1.0000
  S   S498      1.0  0.59977  0.47596  0.88198  1.0000
  S   S499      1.0  0.58951  0.47473  0.99830  1.0000
  Fe  Fe252     1.0  0.57963  0.45163  0.92328  1.0000
  S   S500      1.0  0.58837  0.45812  0.85684  1.0000
  S   S501      1.0  0.56801  0.43755  0.94286  1.0000
  Fe  Fe253     1.0  0.60123  0.46079  0.87959  1.0000
  S   S502      1.0  0.61570  0.45813  0.84698  1.0000
  Fe  Fe254     1.0  0.58607  0.47263  0.86452  1.0000
  S   S503      1.0  0.58064  0.37781  0.58961  1.0000
  S   S504      1.0  0.59261  0.45304  0.94624  1.0000
  S   S505      1.0  0.57624  0.46583  0.92936  1.0000
  H   H2706     1.0  0.61501  0.44859  0.18368  1.0000
  Fe  Fe255     1.0  0.69844  0.37801  0.27582  1.0000
  S   S506      1.0  0.70498  0.36479  0.27765  1.0000
  S   S507      1.0  0.68853  0.37865  0.33491  1.0000
  Fe  Fe256     1.0  0.70575  0.38598  0.18342  1.0000
  S   S508      1.0  0.71272  0.37351  0.17850  1.0000
  S   S509      1.0  0.70768  0.39722  0.12318  1.0000
  H   H2707     1.0  0.67603  0.35710  0.25874  1.0000
  Fe  Fe257     1.0  0.71826  0.37591  0.22928  1.0000
  S   S510      1.0  0.73442  0.37586  0.21765  1.0000
  S   S511      1.0  0.69145  0.37610  0.22822  1.0000
  S   S512      1.0  0.71215  0.38921  0.23100  1.0000
  Fe  Fe258     1.0  0.68093  0.35901  0.95007  1.0000
  S   S513      1.0  0.69408  0.36449  0.89317  1.0000
  H   H2708     1.0  0.52222  0.44673  0.34651  1.0000
  Fe  Fe259     1.0  0.68634  0.37757  0.97443  1.0000
  S   S514      1.0  0.69970  0.38481  0.91868  1.0000
  S   S515      1.0  0.68019  0.38293  0.02744  1.0000
  Fe  Fe260     1.0  0.68995  0.37914  0.88519  1.0000
  S   S516      1.0  0.68839  0.38685  0.82415  1.0000
  Fe  Fe261     1.0  0.70272  0.36966  0.93143  1.0000
  S   S517      1.0  0.71709  0.36588  0.93704  1.0000
  S   S518      1.0  0.67638  0.37332  0.93992  1.0000
  S   S519      1.0  0.68980  0.36280  0.98922  1.0000
  C   C1576     1.0  0.61345  0.47136  0.35008  1.0000
  H   H2709     1.0  0.52954  0.41222  0.99425  1.0000
  C   C1577     1.0  0.72749  0.37519  0.93064  1.0000
  C   C1578     1.0  0.71092  0.37659  0.04087  1.0000
  C   C1579     1.0  0.53669  0.41071  0.99701  1.0000
  H   H2710     1.0  0.57228  0.35709  0.60057  1.0000
  H   H2711     1.0  0.55421  0.36850  0.54581  1.0000
  H   H2712     1.0  0.56227  0.38904  0.61546  1.0000
  H   H2713     1.0  0.62716  0.37061  0.28423  1.0000
  C   C1580     1.0  0.55537  0.43153  0.17046  1.0000
  C   C1581     1.0  0.70035  0.39288  0.09610  1.0000
  C   C1582     1.0  0.69194  0.38505  0.11662  1.0000
  C   C1583     1.0  0.68582  0.38202  0.09524  1.0000
  C   C1584     1.0  0.68833  0.38645  0.05283  1.0000
  C   C1585     1.0  0.69689  0.39410  0.03197  1.0000
  C   C1586     1.0  0.70281  0.39741  0.05372  1.0000
  H   H2714     1.0  0.68997  0.38148  0.14912  1.0000
  H   H2715     1.0  0.67915  0.37617  0.11156  1.0000
  H   H2716     1.0  0.69878  0.39765  0.99929  1.0000
  H   H2717     1.0  0.70930  0.40349  0.03767  1.0000
  H   H2718     1.0  0.67877  0.42425  0.42151  1.0000
  H   H2719     1.0  0.53827  0.47482  0.77118  1.0000
  C   C1587     1.0  0.54823  0.45875  0.07785  1.0000
  C   C1588     1.0  0.74234  0.38253  0.23714  1.0000
  H   H2720     1.0  0.59639  0.40658  0.71724  1.0000
  H   H2721     1.0  0.67898  0.40346  0.43053  1.0000
  H   H2722     1.0  0.55786  0.46663  0.99228  1.0000
  H   H2723     1.0  0.56887  0.47304  0.99552  1.0000
  C   C1589     1.0  0.68115  0.40895  0.48066  1.0000
  C   C1590     1.0  0.59732  0.36432  0.88705  1.0000
  H   H2724     1.0  0.68992  0.36425  0.08666  1.0000
  C   C1591     1.0  0.51380  0.45686  0.27135  1.0000
  C   C1592     1.0  0.51790  0.48033  0.73073  1.0000
  H   H2725     1.0  0.60457  0.42046  0.58087  1.0000
  H   H2726     1.0  0.55297  0.44295  0.04908  1.0000
  H   H2727     1.0  0.73142  0.34791  0.31285  1.0000
  H   H2728     1.0  0.70501  0.34923  0.01986  1.0000
  H   H2729     1.0  0.61597  0.42310  0.54025  1.0000
  H   H2730     1.0  0.62622  0.42797  0.23678  1.0000
  C   C1593     1.0  0.71883  0.35479  0.13281  1.0000
  H   H2731     1.0  0.55947  0.44669  0.20458  1.0000
  H   H2732     1.0  0.67248  0.36824  0.87012  1.0000
  C   C1594     1.0  0.75257  0.38417  0.21982  1.0000
  C   C1595     1.0  0.56395  0.50091  0.79732  1.0000
  H   H2733     1.0  0.50734  0.44622  0.94640  1.0000
  H   H2734     1.0  0.73055  0.39180  0.15509  1.0000
  H   H2735     1.0  0.60179  0.36832  0.85479  1.0000
  H   H2736     1.0  0.61413  0.45545  0.21850  1.0000
  C   C1596     1.0  0.54639  0.48771  0.31500  1.0000
  C   C1597     1.0  0.61452  0.42970  0.81199  1.0000
  C   C1598     1.0  0.60662  0.43040  0.84281  1.0000
  C   C1599     1.0  0.60681  0.43917  0.85309  1.0000
  C   C1600     1.0  0.61496  0.44729  0.83275  1.0000
  C   C1601     1.0  0.62284  0.44661  0.80177  1.0000
  C   C1602     1.0  0.62261  0.43784  0.79130  1.0000
  H   H2737     1.0  0.60042  0.42407  0.85930  1.0000
  H   H2738     1.0  0.60075  0.43962  0.87726  1.0000
  H   H2739     1.0  0.62911  0.45291  0.78565  1.0000
  H   H2740     1.0  0.62865  0.43743  0.76702  1.0000
  C   C1603     1.0  0.66580  0.40563  0.81982  1.0000
  C   C1604     1.0  0.66996  0.40267  0.78621  1.0000
  C   C1605     1.0  0.67688  0.39691  0.78794  1.0000
  C   C1606     1.0  0.67954  0.39392  0.82349  1.0000
  C   C1607     1.0  0.67521  0.39669  0.85747  1.0000
  C   C1608     1.0  0.66844  0.40263  0.85545  1.0000
  H   H2741     1.0  0.66808  0.40505  0.75844  1.0000
  H   H2742     1.0  0.68024  0.39484  0.76149  1.0000
  H   H2743     1.0  0.67730  0.39450  0.88486  1.0000
  H   H2744     1.0  0.66530  0.40494  0.88146  1.0000
  C   C1609     1.0  0.59848  0.38215  0.76522  1.0000
  C   C1610     1.0  0.60302  0.37581  0.74727  1.0000
  C   C1611     1.0  0.61257  0.37524  0.74729  1.0000
  C   C1612     1.0  0.61749  0.38092  0.76576  1.0000
  C   C1613     1.0  0.61275  0.38689  0.78527  1.0000
  C   C1614     1.0  0.60327  0.38750  0.78503  1.0000
  H   H2745     1.0  0.59935  0.37164  0.73202  1.0000
  H   H2746     1.0  0.61625  0.37066  0.73192  1.0000
  H   H2747     1.0  0.61648  0.39127  0.79977  1.0000
  H   H2748     1.0  0.59982  0.39243  0.79891  1.0000
  H   H2749     1.0  0.53763  0.46260  0.04564  1.0000
  C   C1615     1.0  0.54362  0.39517  0.80673  1.0000
  C   C1616     1.0  0.55223  0.39189  0.79620  1.0000
  C   C1617     1.0  0.55230  0.38383  0.78107  1.0000
  C   C1618     1.0  0.54375  0.37898  0.77618  1.0000
  C   C1619     1.0  0.53510  0.38225  0.78667  1.0000
  C   C1620     1.0  0.53503  0.39034  0.80189  1.0000
  H   H2750     1.0  0.55889  0.39554  0.79995  1.0000
  H   H2751     1.0  0.55897  0.38131  0.77365  1.0000
  H   H2752     1.0  0.52845  0.37851  0.78313  1.0000
  H   H2753     1.0  0.52835  0.39280  0.81001  1.0000
  C   C1621     1.0  0.54414  0.44324  0.88489  1.0000
  C   C1622     1.0  0.54803  0.43502  0.88400  1.0000
  C   C1623     1.0  0.55514  0.43317  0.90298  1.0000
  C   C1624     1.0  0.55893  0.43992  0.92020  1.0000
  C   C1625     1.0  0.55547  0.44848  0.91899  1.0000
  C   C1626     1.0  0.54796  0.45007  0.90188  1.0000
  H   H2754     1.0  0.54566  0.43014  0.86824  1.0000
  H   H2755     1.0  0.55781  0.42660  0.90375  1.0000
  H   H2756     1.0  0.55837  0.45375  0.93214  1.0000
  H   H2757     1.0  0.54508  0.45652  0.90215  1.0000
  C   C1627     1.0  0.53836  0.40212  0.97986  1.0000
  H   H2758     1.0  0.74239  0.39225  0.31470  1.0000
  C   C1628     1.0  0.59163  0.45924  0.12477  1.0000
  C   C1629     1.0  0.59224  0.45426  0.09551  1.0000
  C   C1630     1.0  0.59160  0.45889  0.05658  1.0000
  C   C1631     1.0  0.59048  0.46859  0.04651  1.0000
  C   C1632     1.0  0.58980  0.47353  0.07593  1.0000
  C   C1633     1.0  0.59030  0.46886  0.11502  1.0000
  C   C1634     1.0  0.51266  0.42595  0.04721  1.0000
  S   S520      1.0  0.58654  0.36302  0.26386  1.0000
  H   H2759     1.0  0.58894  0.48104  0.06835  1.0000
  H   H2760     1.0  0.58986  0.47278  0.13722  1.0000
  C   C1635     1.0  0.63922  0.41039  0.54392  1.0000
  C   C1636     1.0  0.64344  0.42060  0.52898  1.0000
  C   C1637     1.0  0.64697  0.42539  0.55392  1.0000
  C   C1638     1.0  0.64626  0.42001  0.59393  1.0000
  C   C1639     1.0  0.64211  0.40979  0.60873  1.0000
  C   C1640     1.0  0.63864  0.40500  0.58371  1.0000
  H   H2761     1.0  0.64380  0.42484  0.49853  1.0000
  H   H2762     1.0  0.65018  0.43330  0.54236  1.0000
  H   H2763     1.0  0.64167  0.40556  0.63933  1.0000
  H   H2764     1.0  0.63551  0.39708  0.59525  1.0000
  C   C1641     1.0  0.62689  0.44162  0.33830  1.0000
  C   C1642     1.0  0.61914  0.43555  0.37310  1.0000
  C   C1643     1.0  0.60959  0.43703  0.37903  1.0000
  C   C1644     1.0  0.60767  0.44445  0.34992  1.0000
  C   C1645     1.0  0.61534  0.45029  0.31439  1.0000
  C   C1646     1.0  0.62494  0.44894  0.30885  1.0000
  H   H2765     1.0  0.62058  0.42995  0.39610  1.0000
  H   H2766     1.0  0.60369  0.43249  0.40661  1.0000
  H   H2767     1.0  0.61397  0.45603  0.29172  1.0000
  H   H2768     1.0  0.63091  0.45367  0.28189  1.0000
  C   C1647     1.0  0.67919  0.40693  0.34551  1.0000
  C   C1648     1.0  0.68848  0.40763  0.31875  1.0000
  C   C1649     1.0  0.69145  0.39902  0.31475  1.0000
  C   C1650     1.0  0.68523  0.38967  0.33839  1.0000
  C   C1651     1.0  0.67607  0.38899  0.36584  1.0000
  C   C1652     1.0  0.67302  0.39757  0.36893  1.0000
  H   H2769     1.0  0.69338  0.41485  0.30095  1.0000
  H   H2770     1.0  0.69863  0.39959  0.29416  1.0000
  H   H2771     1.0  0.67127  0.38179  0.38450  1.0000
  H   H2772     1.0  0.66600  0.39688  0.39043  1.0000
  C   C1653     1.0  0.57664  0.37763  0.51911  1.0000
  C   C1654     1.0  0.57389  0.37313  0.49190  1.0000
  H   H2773     1.0  0.57918  0.38561  0.50963  1.0000
  H   H2774     1.0  0.57436  0.37763  0.46174  1.0000
  C   C1655     1.0  0.60550  0.39864  0.33122  1.0000
  C   C1656     1.0  0.61226  0.40613  0.33498  1.0000
  C   C1657     1.0  0.62161  0.40492  0.33509  1.0000
  C   C1658     1.0  0.62406  0.39604  0.33344  1.0000
  C   C1659     1.0  0.61749  0.38869  0.32793  1.0000
  C   C1660     1.0  0.60824  0.39006  0.32618  1.0000
  H   H2775     1.0  0.61021  0.41277  0.33891  1.0000
  H   H2776     1.0  0.62686  0.41083  0.33709  1.0000
  H   H2777     1.0  0.61946  0.38189  0.32597  1.0000
  H   H2778     1.0  0.60324  0.38448  0.32121  1.0000
  H   H2779     1.0  0.59124  0.34972  0.92923  1.0000
  H   H2780     1.0  0.51377  0.44556  0.83710  1.0000
  C   C1661     1.0  0.74346  0.34718  0.88841  1.0000
  H   H2781     1.0  0.53232  0.39534  0.12375  1.0000
  H   H2782     1.0  0.73259  0.39456  0.98486  1.0000
  C   C1662     1.0  0.51246  0.43233  0.38388  1.0000
  H   H2783     1.0  0.60387  0.41481  0.21096  1.0000
  Fe  Fe262     1.0  0.54211  0.50383  0.47556  1.0000
  H   H2784     1.0  0.52829  0.44636  0.59108  1.0000
  H   H2785     1.0  0.51948  0.39193  0.13076  1.0000
  C   C1663     1.0  0.54139  0.40051  0.22434  1.0000
  C   C1664     1.0  0.53576  0.40001  0.26347  1.0000
  C   C1665     1.0  0.53807  0.39507  0.29805  1.0000
  C   C1666     1.0  0.54609  0.39070  0.29388  1.0000
  C   C1667     1.0  0.55181  0.39127  0.25468  1.0000
  C   C1668     1.0  0.54941  0.39611  0.22004  1.0000
  H   H2786     1.0  0.52953  0.40330  0.26723  1.0000
  H   H2787     1.0  0.53359  0.39460  0.32830  1.0000
  H   H2788     1.0  0.55796  0.38787  0.25119  1.0000
  H   H2789     1.0  0.55378  0.39643  0.18986  1.0000
  C   C1669     1.0  0.54073  0.45295  0.22421  1.0000
  C   C1670     1.0  0.54812  0.46095  0.22062  1.0000
  C   C1671     1.0  0.55211  0.46071  0.25245  1.0000
  C   C1672     1.0  0.54851  0.45262  0.28840  1.0000
  C   C1673     1.0  0.54068  0.44491  0.29307  1.0000
  C   C1674     1.0  0.53687  0.44501  0.26071  1.0000
  H   H2790     1.0  0.55102  0.46718  0.19264  1.0000
  H   H2791     1.0  0.55804  0.46673  0.24893  1.0000
  H   H2792     1.0  0.53786  0.43864  0.32095  1.0000
  H   H2793     1.0  0.53100  0.43894  0.26401  1.0000
  H   H2794     1.0  0.60087  0.42046  0.16615  1.0000
  C   C1675     1.0  0.64593  0.35295  0.80309  1.0000
  H   H2795     1.0  0.60181  0.40727  0.45254  1.0000
  H   H2796     1.0  0.64583  0.35286  0.92904  1.0000
  N   N114      1.0  0.74354  0.39652  0.06049  1.0000
  H   H2797     1.0  0.56718  0.34911  0.55270  1.0000
  H   H2798     1.0  0.65495  0.37381  0.96939  1.0000
  H   H2799     1.0  0.72798  0.39247  0.09444  1.0000
  H   H2800     1.0  0.59147  0.41601  0.21477  1.0000
  H   H2801     1.0  0.51923  0.43669  0.98695  1.0000
  C   C1676     1.0  0.61540  0.41219  0.59661  1.0000
  C   C1677     1.0  0.74488  0.38945  0.91706  1.0000
  N   N115      1.0  0.60913  0.40712  0.64075  1.0000
  C   C1678     1.0  0.62873  0.36366  0.30007  1.0000
  C   C1679     1.0  0.64292  0.35159  0.90450  1.0000
  H   H2802     1.0  0.65772  0.35052  0.11135  1.0000
  H   H2803     1.0  0.54136  0.36572  0.54845  1.0000
  N   N116      1.0  0.55288  0.47229  0.76265  1.0000
  C   C1680     1.0  0.54302  0.47240  0.78992  1.0000
  C   C1681     1.0  0.55089  0.46591  0.73677  1.0000
  C   C1682     1.0  0.55795  0.48282  0.73553  1.0000
  C   C1683     1.0  0.55869  0.46833  0.78992  1.0000
  C   C1684     1.0  0.54558  0.45494  0.76017  1.0000
  C   C1685     1.0  0.56603  0.48434  0.69497  1.0000
  C   C1686     1.0  0.56856  0.46630  0.76946  1.0000
  H   H2804     1.0  0.53896  0.46486  0.81101  1.0000
  H   H2805     1.0  0.55775  0.46590  0.71404  1.0000
  H   H2806     1.0  0.54636  0.46904  0.71813  1.0000
  H   H2807     1.0  0.55250  0.48683  0.72651  1.0000
  H   H2808     1.0  0.56137  0.48703  0.75241  1.0000
  H   H2809     1.0  0.56058  0.47362  0.80619  1.0000
  H   H2810     1.0  0.55417  0.46152  0.81546  1.0000
  H   H2811     1.0  0.54634  0.47595  0.84244  1.0000
  H   H2812     1.0  0.54551  0.45083  0.73783  1.0000
  H   H2813     1.0  0.54936  0.45132  0.78102  1.0000
  H   H2814     1.0  0.53775  0.45403  0.77741  1.0000
  H   H2815     1.0  0.57171  0.48029  0.69917  1.0000
  H   H2816     1.0  0.56985  0.49235  0.68117  1.0000
  H   H2817     1.0  0.56280  0.48228  0.67239  1.0000
  H   H2818     1.0  0.57467  0.47307  0.75873  1.0000
  H   H2819     1.0  0.56852  0.46327  0.74409  1.0000
  H   H2820     1.0  0.57019  0.46050  0.79247  1.0000
  N   N117      1.0  0.60684  0.38369  0.47350  1.0000
  C   C1687     1.0  0.60365  0.39269  0.48124  1.0000
  C   C1688     1.0  0.60422  0.37586  0.51461  1.0000
  C   C1689     1.0  0.60131  0.38014  0.44724  1.0000
  C   C1690     1.0  0.61778  0.38678  0.45148  1.0000
  C   C1691     1.0  0.60342  0.40076  0.44344  1.0000
  C   C1692     1.0  0.60904  0.37873  0.54510  1.0000
  C   C1693     1.0  0.59967  0.36909  0.45051  1.0000
  C   C1694     1.0  0.62285  0.37860  0.44316  1.0000
  H   H2821     1.0  0.59614  0.39048  0.50411  1.0000
  H   H2822     1.0  0.60858  0.39648  0.49493  1.0000
  H   H2823     1.0  0.60603  0.36886  0.51183  1.0000
  H   H2824     1.0  0.59611  0.37374  0.52978  1.0000
  H   H2825     1.0  0.59378  0.38139  0.45487  1.0000
  H   H2826     1.0  0.60494  0.38455  0.41429  1.0000
  H   H2827     1.0  0.61941  0.39229  0.42089  1.0000
  H   H2828     1.0  0.62190  0.39090  0.46691  1.0000
  C   C1695     1.0  0.62922  0.36442  0.34192  1.0000
  C   C1696     1.0  0.64699  0.38267  0.82176  1.0000
  H   H2829     1.0  0.60354  0.41752  0.72046  1.0000
  H   H2830     1.0  0.60641  0.38482  0.55468  1.0000
  H   H2831     1.0  0.60685  0.37227  0.57339  1.0000
  H   H2832     1.0  0.61720  0.38076  0.53270  1.0000
  H   H2833     1.0  0.60653  0.36654  0.44571  1.0000
  H   H2834     1.0  0.55555  0.49262  0.90142  1.0000
  H   H2835     1.0  0.62196  0.37703  0.41526  1.0000
  H   H2836     1.0  0.62036  0.37166  0.46924  1.0000
  H   H2837     1.0  0.63085  0.38116  0.43821  1.0000
  C   C1697     1.0  0.53297  0.48490  0.26317  1.0000
  H   H2838     1.0  0.56515  0.44764  0.24328  1.0000
  H   H2839     1.0  0.55327  0.38190  0.66338  1.0000
  H   H2840     1.0  0.71963  0.35046  0.04828  1.0000
  H   H2841     1.0  0.61932  0.41716  0.88401  1.0000
  C   C1698     1.0  0.61375  0.39929  0.65988  1.0000
  H   H2842     1.0  0.64507  0.36658  0.96062  1.0000
  H   H2843     1.0  0.75093  0.35438  0.80726  1.0000
  H   H2844     1.0  0.74975  0.36069  0.23883  1.0000
  H   H2845     1.0  0.73084  0.38439  0.28470  1.0000
  H   H2846     1.0  0.60621  0.42082  0.64977  1.0000
  C   C1699     1.0  0.67908  0.34783  0.22090  1.0000
  H   H2847     1.0  0.73167  0.40468  0.13816  1.0000
  H   H2848     1.0  0.53021  0.46493  0.53337  1.0000
  C   C1700     1.0  0.67742  0.42464  0.45323  1.0000
  C   C1701     1.0  0.52627  0.39801  0.11429  1.0000
  C   C1702     1.0  0.56080  0.47022  0.01206  1.0000
  H   H2849     1.0  0.54897  0.47761  0.03173  1.0000
  C   C1703     1.0  0.51929  0.45273  0.65793  1.0000
  H   H2850     1.0  0.72545  0.36433  0.07017  1.0000
  H   H2851     1.0  0.62184  0.36333  0.36386  1.0000
  S   S521      1.0  0.51096  0.42550  0.87725  1.0000
  N   N118      1.0  0.74421  0.35439  0.32682  1.0000
  H   H2852     1.0  0.53506  0.44998  0.07338  1.0000
  H   H2853     1.0  0.62496  0.37067  0.22599  1.0000
  H   H2854     1.0  0.62056  0.44599  0.22467  1.0000
  H   H2855     1.0  0.54715  0.49514  0.61454  1.0000
  H   H2856     1.0  0.73413  0.36478  0.96278  1.0000
  H   H2857     1.0  0.62192  0.43360  0.19633  1.0000
  H   H2858     1.0  0.58413  0.41899  0.34095  1.0000
  N   N119      1.0  0.67571  0.40047  0.22287  1.0000
  C   C1704     1.0  0.68346  0.40931  0.21927  1.0000
  C   C1705     1.0  0.66614  0.40350  0.22549  1.0000
  C   C1706     1.0  0.67858  0.39692  0.18630  1.0000
  C   C1707     1.0  0.67470  0.39222  0.26080  1.0000
  C   C1708     1.0  0.69422  0.40837  0.20755  1.0000
  C   C1709     1.0  0.66092  0.40500  0.26631  1.0000
  C   C1710     1.0  0.68019  0.40462  0.14448  1.0000
  C   C1711     1.0  0.66688  0.38253  0.27054  1.0000
  H   H2859     1.0  0.68325  0.41613  0.19638  1.0000
  H   H2860     1.0  0.68194  0.41102  0.24867  1.0000
  H   H2861     1.0  0.66078  0.39810  0.21950  1.0000
  H   H2862     1.0  0.66733  0.41061  0.20103  1.0000
  H   H2863     1.0  0.68538  0.39419  0.18457  1.0000
  H   H2864     1.0  0.67283  0.39041  0.18924  1.0000
  H   H2865     1.0  0.68175  0.39003  0.25879  1.0000
  H   H2866     1.0  0.67334  0.39469  0.28834  1.0000
  H   H2867     1.0  0.69703  0.40852  0.17527  1.0000
  H   H2868     1.0  0.69901  0.41482  0.21041  1.0000
  H   H2869     1.0  0.69524  0.40164  0.22774  1.0000
  H   H2870     1.0  0.65795  0.39790  0.29191  1.0000
  H   H2871     1.0  0.66582  0.41031  0.27459  1.0000
  H   H2872     1.0  0.65450  0.40806  0.26331  1.0000
  H   H2873     1.0  0.67327  0.40670  0.14226  1.0000
  H   H2874     1.0  0.68262  0.40133  0.11981  1.0000
  H   H2875     1.0  0.68602  0.41137  0.13779  1.0000
  H   H2876     1.0  0.67008  0.37745  0.25531  1.0000
  H   H2877     1.0  0.66031  0.38375  0.26167  1.0000
  H   H2878     1.0  0.66411  0.37878  0.30424  1.0000
  N   N120      1.0  0.67311  0.41442  0.48459  1.0000
  C   C1712     1.0  0.67029  0.41570  0.52648  1.0000
  C   C1713     1.0  0.66422  0.40950  0.47605  1.0000
  C   C1714     1.0  0.66611  0.40623  0.56385  1.0000
  C   C1715     1.0  0.66057  0.39807  0.49450  1.0000
  H   H2879     1.0  0.67891  0.40156  0.50409  1.0000
  H   H2880     1.0  0.66451  0.41989  0.52980  1.0000
  H   H2881     1.0  0.65788  0.41264  0.48647  1.0000
  H   H2882     1.0  0.66569  0.41124  0.44238  1.0000
  H   H2883     1.0  0.67411  0.43872  0.42803  1.0000
  H   H2884     1.0  0.59018  0.43177  0.32436  1.0000
  H   H2885     1.0  0.65884  0.40209  0.56511  1.0000
  H   H2886     1.0  0.66474  0.40843  0.59211  1.0000
  H   H2887     1.0  0.67126  0.40138  0.56572  1.0000
  H   H2888     1.0  0.65247  0.39602  0.50986  1.0000
  H   H2889     1.0  0.66381  0.39449  0.51738  1.0000
  H   H2890     1.0  0.66180  0.39463  0.46970  1.0000
  N   N121      1.0  0.57623  0.41901  0.82649  1.0000
  C   C1716     1.0  0.57625  0.40932  0.81781  1.0000
  C   C1717     1.0  0.56706  0.42203  0.82102  1.0000
  C   C1718     1.0  0.57613  0.41805  0.86972  1.0000
  C   C1719     1.0  0.58543  0.42663  0.79748  1.0000
  C   C1720     1.0  0.58460  0.40447  0.82562  1.0000
  C   C1721     1.0  0.56676  0.42525  0.77670  1.0000
  C   C1722     1.0  0.56787  0.40964  0.90382  1.0000
  C   C1723     1.0  0.58647  0.43721  0.80076  1.0000
  H   H2891     1.0  0.56911  0.40376  0.83573  1.0000
  H   H2892     1.0  0.57688  0.41027  0.78520  1.0000
  H   H2893     1.0  0.56571  0.42812  0.83376  1.0000
  H   H2894     1.0  0.56042  0.41585  0.83889  1.0000
  H   H2895     1.0  0.58328  0.41699  0.87374  1.0000
  H   H2896     1.0  0.57539  0.42506  0.87657  1.0000
  H   H2897     1.0  0.59210  0.42442  0.80289  1.0000
  H   H2898     1.0  0.58649  0.42701  0.76500  1.0000
  H   H2899     1.0  0.59196  0.40895  0.80427  1.0000
  H   H2900     1.0  0.58465  0.40293  0.85765  1.0000
  H   H2901     1.0  0.58347  0.39722  0.81989  1.0000
  H   H2902     1.0  0.56722  0.41924  0.76282  1.0000
  H   H2903     1.0  0.55954  0.42699  0.77726  1.0000
  H   H2904     1.0  0.57256  0.43205  0.75701  1.0000
  H   H2905     1.0  0.56833  0.40999  0.93405  1.0000
  H   H2906     1.0  0.56866  0.40222  0.90236  1.0000
  H   H2907     1.0  0.56042  0.41039  0.90319  1.0000
  H   H2908     1.0  0.58956  0.43791  0.82557  1.0000
  H   H2909     1.0  0.57947  0.43952  0.80621  1.0000
  H   H2910     1.0  0.59147  0.44263  0.77123  1.0000
  N   N122      1.0  0.60257  0.43021  0.24517  1.0000
  C   C1724     1.0  0.59254  0.42469  0.27595  1.0000
  C   C1725     1.0  0.60199  0.43008  0.20365  1.0000
  C   C1726     1.0  0.60440  0.44072  0.24597  1.0000
  C   C1727     1.0  0.61022  0.42527  0.25733  1.0000
  C   C1728     1.0  0.59106  0.42456  0.32061  1.0000
  C   C1729     1.0  0.59942  0.41970  0.19913  1.0000
  C   C1730     1.0  0.61413  0.44793  0.21614  1.0000
  C   C1731     1.0  0.62012  0.42703  0.22352  1.0000
  H   H2911     1.0  0.58664  0.42776  0.26645  1.0000
  H   H2912     1.0  0.59084  0.41677  0.27750  1.0000
  H   H2913     1.0  0.60890  0.43430  0.17866  1.0000
  H   H2914     1.0  0.59635  0.43394  0.19592  1.0000
  H   H2915     1.0  0.59833  0.44403  0.23996  1.0000
  H   H2916     1.0  0.60439  0.44095  0.27682  1.0000
  H   H2917     1.0  0.61197  0.42748  0.28290  1.0000
  H   H2918     1.0  0.60719  0.41711  0.26944  1.0000
  H   H2919     1.0  0.59707  0.42241  0.33196  1.0000
  H   H2920     1.0  0.68902  0.41436  0.41386  1.0000
  H   H2921     1.0  0.53638  0.42953  0.99635  1.0000
  C   C1732     1.0  0.57617  0.37188  0.55820  1.0000
  H   H2922     1.0  0.67675  0.42018  0.53064  1.0000
  C   C1733     1.0  0.54332  0.47901  0.81765  1.0000
  H   H2923     1.0  0.57572  0.48604  0.33535  1.0000
  S   S522      1.0  0.56345  0.35689  0.69656  1.0000
  H   H2924     1.0  0.55175  0.41086  0.31485  1.0000
  H   H2925     1.0  0.66336  0.42923  0.46068  1.0000
  H   H2926     1.0  0.52720  0.41776  0.06443  1.0000
  H   H2927     1.0  0.52980  0.37000  0.61013  1.0000
  H   H2928     1.0  0.55116  0.42628  0.15950  1.0000
  H   H2929     1.0  0.63356  0.37195  0.33741  1.0000
  S   S523      1.0  0.52092  0.48176  0.42711  1.0000
  H   H2930     1.0  0.69028  0.40257  0.44041  1.0000
  C   C1734     1.0  0.68499  0.40732  0.43883  1.0000
  H   H2931     1.0  0.64560  0.37962  0.07780  1.0000
  H   H2932     1.0  0.59991  0.36154  0.31860  1.0000
  C   C1735     1.0  0.61523  0.48981  0.28566  1.0000
  C   C1736     1.0  0.57265  0.36160  0.57049  1.0000
  H   H2933     1.0  0.53570  0.47935  0.83257  1.0000
  C   C1737     1.0  0.58376  0.49795  0.27919  1.0000
  H   H2934     1.0  0.73313  0.40543  0.07261  1.0000
  C   C1738     1.0  0.64407  0.36253  0.02482  1.0000
  H   H2935     1.0  0.51688  0.46443  0.24884  1.0000
  C   C1739     1.0  0.67118  0.43228  0.45665  1.0000
  C   C1740     1.0  0.72861  0.38513  0.90942  1.0000
  C   C1741     1.0  0.57642  0.49359  0.31764  1.0000
  H   H2936     1.0  0.74138  0.35307  0.39140  1.0000
  H   H2937     1.0  0.65312  0.38653  0.82947  1.0000
  H   H2938     1.0  0.52693  0.48437  0.54797  1.0000
  C   C1742     1.0  0.56984  0.35708  0.54326  1.0000
  H   H2939     1.0  0.62077  0.36252  0.20088  1.0000
  H   H2940     1.0  0.54789  0.41969  0.22754  1.0000
  H   H2941     1.0  0.64161  0.35004  0.11041  1.0000
  H   H2942     1.0  0.67165  0.43519  0.48223  1.0000
  S   S524      1.0  0.50858  0.48336  0.61705  1.0000
  C   C1743     1.0  0.54456  0.47662  0.33856  1.0000
  H   H2943     1.0  0.61541  0.40705  0.57825  1.0000
  H   H2944     1.0  0.65818  0.35367  0.26753  1.0000
  H   H2945     1.0  0.57605  0.42360  0.17249  1.0000
  C   C1744     1.0  0.69124  0.35672  0.09357  1.0000
  H   H2946     1.0  0.50669  0.46658  0.75709  1.0000
  C   C1745     1.0  0.55717  0.42686  0.27983  1.0000
  H   H2947     1.0  0.68477  0.42802  0.45451  1.0000
  N   N123      1.0  0.71011  0.35837  0.07762  1.0000
  C   C1746     1.0  0.56429  0.45499  0.04946  1.0000
  C   C1747     1.0  0.60950  0.41479  0.66264  1.0000
  H   H2948     1.0  0.53978  0.47178  0.32798  1.0000
  H   H2949     1.0  0.55910  0.41143  0.25150  1.0000
  C   C1748     1.0  0.65650  0.35552  0.04867  1.0000
  C   C1749     1.0  0.52819  0.40043  0.06765  1.0000
  H   H2950     1.0  0.54604  0.41875  0.33882  1.0000
  H   H2951     1.0  0.54643  0.39903  0.04533  1.0000
  H   H2952     1.0  0.51940  0.45262  0.26472  1.0000
  H   H2953     1.0  0.62938  0.41284  0.89550  1.0000
  H   H2954     1.0  0.54608  0.40607  0.07841  1.0000
  H   H2955     1.0  0.54517  0.39991  0.98261  1.0000
  C   C1750     1.0  0.54894  0.41763  0.30868  1.0000
  H   H2956     1.0  0.63051  0.41977  0.84334  1.0000
  H   H2957     1.0  0.63309  0.35910  0.35560  1.0000
  C   C1751     1.0  0.62227  0.35464  0.25871  1.0000
  Fe  Fe263     1.0  0.56217  0.37881  0.34094  1.0000
  H   H2958     1.0  0.65728  0.35283  0.83087  1.0000
  H   H2959     1.0  0.56327  0.42733  0.29342  1.0000
  H   H2960     1.0  0.54207  0.39060  0.56941  1.0000
  H   H2961     1.0  0.63875  0.36721  0.02829  1.0000
  C   C1752     1.0  0.62748  0.41911  0.87611  1.0000
  H   H2962     1.0  0.55145  0.49199  0.32669  1.0000
  Fe  Fe264     1.0  0.56995  0.36674  0.40486  1.0000
  C   C1753     1.0  0.51507  0.48385  0.38962  1.0000
  C   C1754     1.0  0.61990  0.36350  0.23137  1.0000
  C   C1755     1.0  0.54606  0.40659  0.04670  1.0000
  H   H2963     1.0  0.74939  0.37736  0.95108  1.0000
  C   C1756     1.0  0.57146  0.49589  0.79100  1.0000
  H   H2964     1.0  0.56185  0.40996  0.01619  1.0000
  C   C1757     1.0  0.63073  0.42892  0.88430  1.0000
  H   H2965     1.0  0.62748  0.42759  0.91781  1.0000
  H   H2966     1.0  0.59774  0.46731  0.41846  1.0000
  H   H2967     1.0  0.52980  0.35026  0.68664  1.0000
  H   H2968     1.0  0.57064  0.41801  0.25086  1.0000
  H   H2969     1.0  0.62689  0.43407  0.86920  1.0000
  H   H2970     1.0  0.64516  0.41911  0.88281  1.0000
  H   H2971     1.0  0.61058  0.46694  0.33242  1.0000
  H   H2972     1.0  0.64575  0.38827  0.79691  1.0000
  H   H2973     1.0  0.70470  0.37632  0.06712  1.0000
  H   H2974     1.0  0.66062  0.36237  0.78415  1.0000
  C   C1758     1.0  0.65444  0.35859  0.81335  1.0000
  H   H2975     1.0  0.53777  0.41815  0.08015  1.0000
  C   C1759     1.0  0.56502  0.41835  0.23470  1.0000
  N   N124      1.0  0.53676  0.40910  0.04052  1.0000
  N   N125      1.0  0.64171  0.43346  0.86996  1.0000
  C   C1760     1.0  0.64632  0.42596  0.89152  1.0000
  H   H2976     1.0  0.64272  0.42365  0.92535  1.0000
  H   H2977     1.0  0.64653  0.42887  0.81648  1.0000
  H   H2978     1.0  0.53998  0.46657  0.65714  1.0000
  H   H2979     1.0  0.59422  0.46593  0.37576  1.0000
  H   H2980     1.0  0.65871  0.37496  0.86576  1.0000
  H   H2981     1.0  0.61019  0.48078  0.41272  1.0000
  H   H2982     1.0  0.56514  0.49219  0.27197  1.0000
  H   H2983     1.0  0.57242  0.41055  0.19670  1.0000
  H   H2984     1.0  0.73863  0.37748  0.82740  1.0000
  H   H2985     1.0  0.55409  0.43331  0.28250  1.0000
  C   C1761     1.0  0.55588  0.41393  0.01840  1.0000
  C   C1762     1.0  0.64563  0.43574  0.82408  1.0000
  C   C1763     1.0  0.59703  0.47158  0.38893  1.0000
  H   H2986     1.0  0.64017  0.43836  0.80980  1.0000
  H   H2987     1.0  0.65980  0.43575  0.89167  1.0000
  H   H2988     1.0  0.50648  0.46267  0.31750  1.0000
  C   C1764     1.0  0.66663  0.36379  0.86273  1.0000
  H   H2989     1.0  0.73385  0.37905  0.12624  1.0000
  H   H2990     1.0  0.55778  0.42007  0.03061  1.0000
  C   C1765     1.0  0.53518  0.41807  0.05343  1.0000
  C   C1766     1.0  0.64318  0.44254  0.88334  1.0000
  C   C1767     1.0  0.65752  0.42909  0.88319  1.0000
  H   H2991     1.0  0.64034  0.44041  0.91742  1.0000
  N   N126      1.0  0.60688  0.47810  0.36004  1.0000
  H   H2992     1.0  0.64106  0.45753  0.87212  1.0000
  H   H2993     1.0  0.65974  0.42299  0.90219  1.0000
  C   C1768     1.0  0.61158  0.48479  0.37976  1.0000
  H   H2994     1.0  0.66201  0.35801  0.89155  1.0000
  H   H2995     1.0  0.60799  0.34833  0.81256  1.0000
  H   H2996     1.0  0.52502  0.40437  0.12510  1.0000
  N   N127      1.0  0.56100  0.42734  0.23547  1.0000
  H   H2997     1.0  0.56408  0.41633  0.17661  1.0000
  C   C1769     1.0  0.56965  0.41737  0.19230  1.0000
  C   C1770     1.0  0.51500  0.44215  0.34884  1.0000
  H   H2998     1.0  0.74954  0.36326  0.91451  1.0000
  C   C1771     1.0  0.53525  0.47168  0.65083  1.0000
  C   C1772     1.0  0.55262  0.42732  0.21773  1.0000
  H   H2999     1.0  0.54764  0.43164  0.23055  1.0000
  C   C1773     1.0  0.63820  0.45061  0.86624  1.0000
  C   C1774     1.0  0.62497  0.34568  0.32134  1.0000
  H   H3000     1.0  0.66168  0.43008  0.85096  1.0000
  H   H3001     1.0  0.74671  0.39065  0.00945  1.0000
  C   C1775     1.0  0.57053  0.36283  0.50374  1.0000
  H   H3002     1.0  0.62080  0.46044  0.37536  1.0000
  C   C1776     1.0  0.55817  0.49974  0.83712  1.0000
  H   H3003     1.0  0.61969  0.34889  0.85412  1.0000
  H   H3004     1.0  0.60162  0.47854  0.30834  1.0000
  H   H3005     1.0  0.53169  0.49159  0.24349  1.0000
  H   H3006     1.0  0.65105  0.44622  0.87527  1.0000
  H   H3007     1.0  0.63966  0.45243  0.83276  1.0000
  C   C1777     1.0  0.74312  0.35445  0.25510  1.0000
  H   H3008     1.0  0.63012  0.44844  0.88197  1.0000
  H   H3009     1.0  0.66625  0.37617  0.81575  1.0000
  N   N128      1.0  0.65189  0.36593  0.83532  1.0000
  C   C1778     1.0  0.66079  0.37069  0.84431  1.0000
  H   H3010     1.0  0.53863  0.43415  0.03546  1.0000
  C   C1779     1.0  0.53990  0.42836  0.02079  1.0000
  H   H3011     1.0  0.53923  0.40457  0.94663  1.0000
  S   S525      1.0  0.58219  0.48285  0.81407  1.0000
  H   H3012     1.0  0.73770  0.36961  0.35461  1.0000
  C   C1780     1.0  0.65548  0.44369  0.80066  1.0000
  H   H3013     1.0  0.50705  0.49051  0.47172  1.0000
  C   C1781     1.0  0.60562  0.48373  0.32039  1.0000
  S   S526      1.0  0.54219  0.50282  0.74630  1.0000
  H   H3014     1.0  0.52361  0.36024  0.67716  1.0000
  H   H3015     1.0  0.66659  0.34803  0.07243  1.0000
  H   H3016     1.0  0.57514  0.43635  0.22893  1.0000
  C   C1782     1.0  0.73499  0.37245  0.94600  1.0000
  H   H3017     1.0  0.55741  0.37843  0.57988  1.0000
  C   C1783     1.0  0.64310  0.36145  0.87376  1.0000
  H   H3018     1.0  0.54794  0.42963  0.00697  1.0000
  H   H3019     1.0  0.55602  0.41703  0.98645  1.0000
  H   H3020     1.0  0.66018  0.44523  0.81922  1.0000
  H   H3021     1.0  0.69162  0.35405  0.06713  1.0000
  C   C1784     1.0  0.70018  0.35639  0.10934  1.0000
  C   C1785     1.0  0.66246  0.35360  0.07885  1.0000
  H   H3022     1.0  0.63610  0.36035  0.86620  1.0000
  H   H3023     1.0  0.65550  0.37731  0.77648  1.0000
  H   H3024     1.0  0.65995  0.44118  0.77654  1.0000
  C   C1786     1.0  0.65019  0.36623  0.97896  1.0000
  H   H3025     1.0  0.57031  0.45873  0.11390  1.0000
  H   H3026     1.0  0.56317  0.43273  0.15284  1.0000
  N   N129      1.0  0.50723  0.44795  0.34994  1.0000
  H   H3027     1.0  0.61212  0.36372  0.24342  1.0000
  C   C1787     1.0  0.74802  0.38907  0.08321  1.0000
  C   C1788     1.0  0.56927  0.43660  0.21414  1.0000
  H   H3028     1.0  0.54232  0.41738  0.97506  1.0000
  H   H3029     1.0  0.56629  0.46776  0.13534  1.0000
  Fe  Fe265     1.0  0.52609  0.49560  0.77440  1.0000
  H   H3030     1.0  0.54528  0.46395  0.09322  1.0000
  H   H3031     1.0  0.64281  0.37105  0.79837  1.0000
  H   H3032     1.0  0.55306  0.43855  0.16169  1.0000
  H   H3033     1.0  0.54068  0.47530  0.37151  1.0000
  H   H3034     1.0  0.60042  0.36854  0.90482  1.0000
  H   H3035     1.0  0.61730  0.41842  0.65804  1.0000
  S   S527      1.0  0.58536  0.37097  0.36161  1.0000
  H   H3036     1.0  0.54569  0.50526  0.66117  1.0000
  H   H3037     1.0  0.70995  0.38112  0.01240  1.0000
  H   H3038     1.0  0.72996  0.40170  0.01840  1.0000
  C   C1789     1.0  0.56435  0.46268  0.11841  1.0000
  H   H3039     1.0  0.57133  0.47315  0.05798  1.0000
  H   H3040     1.0  0.57226  0.45827  0.03205  1.0000
  H   H3041     1.0  0.56396  0.45010  0.07974  1.0000
  C   C1790     1.0  0.56621  0.44639  0.21326  1.0000
  H   H3042     1.0  0.57317  0.43729  0.18209  1.0000
  H   H3043     1.0  0.57215  0.45272  0.19044  1.0000
  H   H3044     1.0  0.65411  0.45072  0.78402  1.0000
  H   H3045     1.0  0.55729  0.45733  0.13790  1.0000
  C   C1791     1.0  0.64937  0.37403  0.80619  1.0000
  C   C1792     1.0  0.56372  0.46880  0.07706  1.0000
  H   H3046     1.0  0.61046  0.34544  0.73036  1.0000
  C   C1793     1.0  0.65086  0.38087  0.04718  1.0000
  H   H3047     1.0  0.52451  0.45781  0.92617  1.0000
  H   H3048     1.0  0.54872  0.35635  0.61985  1.0000
  H   H3049     1.0  0.55999  0.45157  0.99843  1.0000
  H   H3050     1.0  0.62029  0.49434  0.29623  1.0000
  H   H3051     1.0  0.53516  0.38271  0.55058  1.0000
  H   H3052     1.0  0.54723  0.45183  0.10291  1.0000
  C   C1794     1.0  0.56029  0.44779  0.02909  1.0000
  H   H3053     1.0  0.55964  0.47438  0.08392  1.0000
  H   H3054     1.0  0.72290  0.38734  0.89741  1.0000
  N   N130      1.0  0.55904  0.46306  0.05397  1.0000
  H   H3055     1.0  0.56532  0.44283  0.02467  1.0000
  H   H3056     1.0  0.53945  0.45652  0.62140  1.0000
  H   H3057     1.0  0.53933  0.48969  0.32552  1.0000
  C   C1795     1.0  0.59016  0.35173  0.27092  1.0000
  C   C1796     1.0  0.60736  0.35293  0.83331  1.0000
  C   C1797     1.0  0.54124  0.45647  0.05336  1.0000
  H   H3058     1.0  0.72650  0.36185  0.35526  1.0000
  H   H3059     1.0  0.59754  0.39823  0.43114  1.0000
  C   C1798     1.0  0.55668  0.47945  0.01146  1.0000
  C   C1799     1.0  0.66285  0.35030  0.24901  1.0000
  C   C1800     1.0  0.60853  0.49469  0.37712  1.0000
  H   H3060     1.0  0.73797  0.35544  0.23702  1.0000
  C   C1801     1.0  0.73244  0.36223  0.36950  1.0000
  H   H3061     1.0  0.52919  0.39350  0.06081  1.0000
  C   C1802     1.0  0.61263  0.42144  0.57384  1.0000
  H   H3062     1.0  0.64383  0.35784  0.77881  1.0000
  H   H3063     1.0  0.54458  0.45463  0.02550  1.0000
  C   C1803     1.0  0.59464  0.34225  0.74623  1.0000
  H   H3064     1.0  0.55688  0.48322  0.97970  1.0000
  H   H3065     1.0  0.65463  0.36104  0.97075  1.0000
  H   H3066     1.0  0.56135  0.48487  0.02016  1.0000
  H   H3067     1.0  0.63938  0.34915  0.83052  1.0000
  C   C1804     1.0  0.54373  0.36064  0.60823  1.0000
  C   C1805     1.0  0.51076  0.47272  0.72966  1.0000
  H   H3068     1.0  0.52474  0.49501  0.63131  1.0000
  H   H3069     1.0  0.50563  0.41359  0.10261  1.0000
  C   C1806     1.0  0.73469  0.39837  0.08821  1.0000
  H   H3070     1.0  0.59422  0.36437  0.48049  1.0000
  C   C1807     1.0  0.73871  0.38561  0.27105  1.0000
  C   C1808     1.0  0.52306  0.48828  0.69506  1.0000
  H   H3071     1.0  0.62324  0.41465  0.59458  1.0000
  H   H3072     1.0  0.61572  0.42802  0.58143  1.0000
  C   C1809     1.0  0.60401  0.41105  0.70927  1.0000
  H   H3073     1.0  0.60642  0.35995  0.81512  1.0000
  H   H3074     1.0  0.61707  0.34800  0.25924  1.0000
  H   H3075     1.0  0.61182  0.36960  0.29597  1.0000
  H   H3076     1.0  0.64625  0.36102  0.11951  1.0000
  H   H3077     1.0  0.62149  0.40265  0.65693  1.0000
  H   H3078     1.0  0.60063  0.39315  0.60584  1.0000
  H   H3079     1.0  0.59406  0.40833  0.64773  1.0000
  H   H3080     1.0  0.60810  0.40675  0.72657  1.0000
  H   H3081     1.0  0.58857  0.39497  0.62132  1.0000
  C   C1810     1.0  0.73729  0.39221  0.90252  1.0000
  Fe  Fe266     1.0  0.57842  0.36837  0.31472  1.0000
  H   H3082     1.0  0.61056  0.40339  0.41863  1.0000
  C   C1811     1.0  0.59851  0.40277  0.64564  1.0000
  H   H3083     1.0  0.58048  0.35239  0.82479  1.0000
  S   S528      1.0  0.56295  0.36280  0.35958  1.0000
  H   H3084     1.0  0.71118  0.34313  0.09743  1.0000
  H   H3085     1.0  0.59503  0.39663  0.67517  1.0000
  C   C1812     1.0  0.57309  0.48945  0.82423  1.0000
  H   H3086     1.0  0.50829  0.42618  0.37695  1.0000
  C   C1813     1.0  0.59653  0.39871  0.61167  1.0000
  H   H3087     1.0  0.60989  0.39597  0.69321  1.0000
  H   H3088     1.0  0.50928  0.45132  0.79742  1.0000
  C   C1814     1.0  0.74364  0.37955  0.93941  1.0000
  H   H3089     1.0  0.59812  0.40468  0.58240  1.0000
  H   H3090     1.0  0.74754  0.34319  0.09744  1.0000
  C   C1815     1.0  0.52056  0.46358  0.91704  1.0000
  H   H3091     1.0  0.60640  0.38542  0.65424  1.0000
  C   C1816     1.0  0.52927  0.35763  0.68981  1.0000
  C   C1817     1.0  0.61389  0.39042  0.64353  1.0000
  Fe  Fe267     1.0  0.69884  0.36371  0.22673  1.0000
  C   C1818     1.0  0.74038  0.39239  0.02970  1.0000
  H   H3092     1.0  0.64228  0.36674  0.89148  1.0000
  H   H3093     1.0  0.52599  0.47999  0.50669  1.0000
  C   C1819     1.0  0.74527  0.39005  0.28807  1.0000
  H   H3094     1.0  0.54674  0.48782  0.21714  1.0000
  C   C1820     1.0  0.73751  0.35364  0.36831  1.0000
  H   H3095     1.0  0.53638  0.35537  0.61911  1.0000
  S   S529      1.0  0.56688  0.35706  0.47026  1.0000
  H   H3096     1.0  0.59313  0.35501  0.79616  1.0000
  H   H3097     1.0  0.61855  0.38599  0.65661  1.0000
  H   H3098     1.0  0.54622  0.46391  0.57103  1.0000
  H   H3099     1.0  0.61710  0.39262  0.60979  1.0000
  C   C1821     1.0  0.73512  0.39876  0.13076  1.0000
  N   N131      1.0  0.74889  0.35783  0.86396  1.0000
  C   C1822     1.0  0.56035  0.48839  0.25815  1.0000
  C   C1823     1.0  0.53940  0.36518  0.67074  1.0000
  H   H3100     1.0  0.59213  0.45502  0.03419  1.0000
  H   H3101     1.0  0.65648  0.38786  0.03993  1.0000
  H   H3102     1.0  0.62871  0.35777  0.14027  1.0000
  H   H3103     1.0  0.53973  0.47512  0.52816  1.0000
  H   H3104     1.0  0.73469  0.38528  0.04546  1.0000
  H   H3105     1.0  0.51342  0.45392  0.68203  1.0000
  H   H3106     1.0  0.54449  0.47708  0.25801  1.0000
  C   C1824     1.0  0.56613  0.49138  0.21204  1.0000
  H   H3107     1.0  0.51497  0.42503  0.95100  1.0000
  C   C1825     1.0  0.51153  0.45762  0.31514  1.0000
  H   H3108     1.0  0.73817  0.39987  0.88543  1.0000
  H   H3109     1.0  0.58721  0.48129  0.37409  1.0000
  H   H3110     1.0  0.70030  0.36201  0.12567  1.0000
  H   H3111     1.0  0.63239  0.36788  0.09385  1.0000
  H   H3112     1.0  0.63633  0.36403  0.28130  1.0000
  H   H3113     1.0  0.73672  0.35991  0.84089  1.0000
  C   C1826     1.0  0.71807  0.36208  0.09408  1.0000
  H   H3114     1.0  0.70581  0.36411  0.02365  1.0000
  C   C1827     1.0  0.71136  0.36619  0.03803  1.0000
  H   H3115     1.0  0.56736  0.49939  0.19604  1.0000
  H   H3116     1.0  0.75111  0.39170  0.10493  1.0000
  H   H3117     1.0  0.59473  0.34847  0.72137  1.0000
  H   H3118     1.0  0.64717  0.38210  0.02341  1.0000
  H   H3119     1.0  0.53782  0.45287  0.54235  1.0000
  C   C1828     1.0  0.51276  0.42250  0.98398  1.0000
  C   C1829     1.0  0.59653  0.35023  0.23708  1.0000
  H   H3120     1.0  0.64011  0.38026  0.84817  1.0000
  H   H3121     1.0  0.71698  0.36885  0.10215  1.0000
  H   H3122     1.0  0.58183  0.47098  0.41940  1.0000
  H   H3123     1.0  0.57356  0.48995  0.20875  1.0000
  C   C1830     1.0  0.55460  0.38437  0.62981  1.0000
  H   H3124     1.0  0.72887  0.36165  0.40194  1.0000
  H   H3125     1.0  0.64842  0.34709  0.79108  1.0000
  S   S530      1.0  0.51617  0.43449  0.07125  1.0000
  H   H3126     1.0  0.51941  0.43056  0.38761  1.0000
  H   H3127     1.0  0.58956  0.36477  0.89145  1.0000
  S   S531      1.0  0.51999  0.48012  0.77708  1.0000
  H   H3128     1.0  0.58904  0.36172  0.83121  1.0000
  H   H3129     1.0  0.52568  0.45263  0.66916  1.0000
  C   C1831     1.0  0.56990  0.49905  0.33289  1.0000
  H   H3130     1.0  0.65224  0.34817  0.05032  1.0000
  H   H3131     1.0  0.65992  0.37225  0.07045  1.0000
  H   H3132     1.0  0.51944  0.45827  0.80571  1.0000
  H   H3133     1.0  0.67055  0.36049  0.84046  1.0000
  C   C1832     1.0  0.74110  0.37871  0.10751  1.0000
  C   C1833     1.0  0.71193  0.34902  0.06877  1.0000
  Fe  Fe268     1.0  0.57341  0.35312  0.73469  1.0000
  H   H3134     1.0  0.51756  0.45690  0.59820  1.0000
  S   S532      1.0  0.54584  0.49608  0.42856  1.0000
  H   H3135     1.0  0.54783  0.35622  0.55358  1.0000
  C   C1834     1.0  0.51315  0.48157  0.65859  1.0000
  C   C1835     1.0  0.50544  0.48701  0.33041  1.0000
  C   C1836     1.0  0.56730  0.48825  0.86414  1.0000
  C   C1837     1.0  0.66942  0.34141  0.90308  1.0000
  C   C1838     1.0  0.58805  0.35441  0.82645  1.0000
  N   N132      1.0  0.54331  0.36928  0.62449  1.0000
  H   H3136     1.0  0.51726  0.47367  0.55606  1.0000
  H   H3137     1.0  0.51760  0.49970  0.29595  1.0000
  C   C1839     1.0  0.65612  0.37244  0.04703  1.0000
  H   H3138     1.0  0.54751  0.38225  0.54619  1.0000
  C   C1840     1.0  0.75140  0.40600  0.03663  1.0000
  H   H3139     1.0  0.53832  0.47851  0.65688  1.0000
  H   H3140     1.0  0.69850  0.34905  0.13310  1.0000
  H   H3141     1.0  0.59329  0.44683  0.10281  1.0000
  Fe  Fe269     1.0  0.53055  0.49570  0.42634  1.0000
  H   H3142     1.0  0.51858  0.46165  0.31654  1.0000
  C   C1841     1.0  0.63243  0.36005  0.10671  1.0000
  H   H3143     1.0  0.72392  0.35880  0.14512  1.0000
  H   H3144     1.0  0.60116  0.49476  0.37417  1.0000
  C   C1842     1.0  0.53609  0.45059  0.57613  1.0000
  C   C1843     1.0  0.59793  0.35346  0.90211  1.0000
  H   H3145     1.0  0.60816  0.45789  0.40420  1.0000
  H   H3146     1.0  0.71164  0.35169  0.15755  1.0000
  H   H3147     1.0  0.52876  0.47827  0.25922  1.0000
  H   H3148     1.0  0.55835  0.37082  0.62500  1.0000
  C   C1844     1.0  0.65871  0.34390  0.23086  1.0000
  H   H3149     1.0  0.59891  0.35587  0.20741  1.0000
  H   H3150     1.0  0.61412  0.50088  0.35172  1.0000
  N   N133      1.0  0.64978  0.36235  0.05476  1.0000
  H   H3151     1.0  0.51672  0.44008  0.32033  1.0000
  C   C1845     1.0  0.55365  0.37549  0.61335  1.0000
  H   H3152     1.0  0.63520  0.34706  0.91923  1.0000
  C   C1846     1.0  0.50756  0.41610  0.06958  1.0000
  H   H3153     1.0  0.73985  0.34360  0.86996  1.0000
  H   H3154     1.0  0.74950  0.37003  0.29497  1.0000
  H   H3155     1.0  0.51816  0.45110  0.40466  1.0000
  H   H3156     1.0  0.52559  0.47101  0.90861  1.0000
  H   H3157     1.0  0.71856  0.36702  0.01524  1.0000
  S   S533      1.0  0.66873  0.34486  0.97639  1.0000
  C   C1847     1.0  0.60731  0.36307  0.32229  1.0000
  H   H3158     1.0  0.53370  0.37915  0.63146  1.0000
  C   C1848     1.0  0.50431  0.45053  0.38913  1.0000
  H   H3159     1.0  0.56254  0.48688  0.19649  1.0000
  S   S534      1.0  0.52634  0.50190  0.47783  1.0000
  S   S535      1.0  0.69177  0.34987  0.21562  1.0000
  C   C1849     1.0  0.55190  0.50170  0.24996  1.0000
  C   C1850     1.0  0.54598  0.50246  0.60450  1.0000
  H   H3160     1.0  0.60092  0.48894  0.32451  1.0000
  H   H3161     1.0  0.61766  0.36083  0.85718  1.0000
  H   H3162     1.0  0.53856  0.37126  0.68420  1.0000
  H   H3163     1.0  0.61718  0.46768  0.40782  1.0000
  H   H3164     1.0  0.53064  0.47998  0.60368  1.0000
  C   C1851     1.0  0.52106  0.46070  0.61631  1.0000
  C   C1852     1.0  0.74129  0.36346  0.85653  1.0000
  H   H3165     1.0  0.66209  0.37480  0.01713  1.0000
  H   H3166     1.0  0.75027  0.37606  0.80091  1.0000
  H   H3167     1.0  0.51681  0.46311  0.37787  1.0000
  C   C1853     1.0  0.54397  0.48491  0.25121  1.0000
  C   C1854     1.0  0.61489  0.46400  0.38694  1.0000
  H   H3168     1.0  0.56425  0.49571  0.36241  1.0000
  H   H3169     1.0  0.60853  0.49654  0.40550  1.0000
  C   C1855     1.0  0.54074  0.38304  0.56673  1.0000
  C   C1856     1.0  0.52512  0.47755  0.53990  1.0000
  H   H3170     1.0  0.56855  0.48336  0.88997  1.0000
  H   H3171     1.0  0.54071  0.44541  0.58379  1.0000
  H   H3172     1.0  0.66804  0.36037  0.07439  1.0000
  H   H3173     1.0  0.74857  0.34685  0.00422  1.0000
  C   C1857     1.0  0.73592  0.39899  0.00137  1.0000
  S   S536      1.0  0.54594  0.49855  0.53359  1.0000
  C   C1858     1.0  0.51440  0.49347  0.32385  1.0000
  C   C1859     1.0  0.73542  0.34544  0.92950  1.0000
  C   C1860     1.0  0.53647  0.37512  0.60979  1.0000
  H   H3174     1.0  0.68448  0.35195  0.11845  1.0000
  S   S537      1.0  0.51312  0.41408  0.17965  1.0000
  H   H3175     1.0  0.60596  0.34815  0.31977  1.0000
  C   C1861     1.0  0.51287  0.45571  0.40046  1.0000
  C   C1862     1.0  0.52083  0.48879  0.65871  1.0000
  H   H3176     1.0  0.62315  0.35927  0.80904  1.0000
  N   N134      1.0  0.55038  0.49066  0.26885  1.0000
  H   H3177     1.0  0.73824  0.34890  0.94991  1.0000
  C   C1863     1.0  0.67299  0.35230  0.24391  1.0000
  C   C1864     1.0  0.74505  0.37456  0.83186  1.0000
  H   H3178     1.0  0.51439  0.46298  0.94415  1.0000
  C   C1865     1.0  0.58876  0.47675  0.40089  1.0000
  H   H3179     1.0  0.54959  0.38909  0.62262  1.0000
  H   H3180     1.0  0.52667  0.35649  0.72330  1.0000
  C   C1866     1.0  0.64288  0.35825  0.09856  1.0000
  H   H3181     1.0  0.54281  0.47869  0.58635  1.0000
  H   H3182     1.0  0.54470  0.36158  0.68314  1.0000
  H   H3183     1.0  0.62787  0.35540  0.09454  1.0000
  C   C1867     1.0  0.50836  0.47337  0.69367  1.0000
  H   H3184     1.0  0.63951  0.35498  0.03108  1.0000
  H   H3185     1.0  0.74255  0.40031  0.13376  1.0000
  H   H3186     1.0  0.52123  0.40164  0.06173  1.0000
  H   H3187     1.0  0.55154  0.47431  0.33708  1.0000
  C   C1868     1.0  0.61747  0.35554  0.83958  1.0000
  H   H3188     1.0  0.63295  0.34655  0.30581  1.0000
  H   H3189     1.0  0.74450  0.37459  0.12892  1.0000
  H   H3190     1.0  0.71787  0.38051  0.04318  1.0000
  C   C1869     1.0  0.70511  0.34416  0.04896  1.0000
  H   H3191     1.0  0.66209  0.35850  0.01774  1.0000
  C   C1870     1.0  0.50609  0.47744  0.39621  1.0000
  C   C1871     1.0  0.53209  0.47073  0.54726  1.0000
  H   H3192     1.0  0.52616  0.49679  0.34795  1.0000
  H   H3193     1.0  0.74009  0.37434  0.08687  1.0000
  H   H3194     1.0  0.60405  0.35328  0.91555  1.0000
  C   C1872     1.0  0.61112  0.35354  0.32673  1.0000
  H   H3195     1.0  0.59644  0.36787  0.42663  1.0000
  N   N135      1.0  0.53158  0.46616  0.59129  1.0000
  S   S538      1.0  0.52449  0.49980  0.83124  1.0000
  H   H3196     1.0  0.53192  0.39562  0.99434  1.0000
  H   H3197     1.0  0.61974  0.48689  0.36530  1.0000
  H   H3198     1.0  0.55983  0.48038  0.27112  1.0000
  C   C1873     1.0  0.54700  0.36309  0.56134  1.0000
  H   H3199     1.0  0.50981  0.45693  0.43028  1.0000
  C   C1874     1.0  0.55994  0.49348  0.87055  1.0000
  Fe  Fe270     1.0  0.50959  0.42247  0.22473  1.0000
  C   C1875     1.0  0.53518  0.47450  0.60617  1.0000
  H   H3200     1.0  0.74823  0.37887  0.84907  1.0000
  C   C1876     1.0  0.51235  0.45259  0.82160  1.0000
  H   H3201     1.0  0.52770  0.46866  0.67288  1.0000
  H   H3202     1.0  0.73607  0.36320  0.88591  1.0000
  C   C1877     1.0  0.51921  0.49187  0.35344  1.0000
  C   C1878     1.0  0.53864  0.45954  0.59093  1.0000
  H   H3203     1.0  0.51648  0.44523  0.65668  1.0000
  H   H3204     1.0  0.74865  0.34271  0.89636  1.0000
  H   H3205     1.0  0.51663  0.46606  0.62259  1.0000
  H   H3206     1.0  0.52866  0.49412  0.69566  1.0000
  C   C1879     1.0  0.58922  0.34617  0.86113  1.0000
  H   H3207     1.0  0.67679  0.34619  0.89074  1.0000
  H   H3208     1.0  0.64690  0.34684  0.89048  1.0000
  H   H3209     1.0  0.57604  0.49698  0.76012  1.0000
  H   H3210     1.0  0.50495  0.46369  0.83280  1.0000
  H   H3211     1.0  0.74857  0.41141  0.01702  1.0000
  H   H3212     1.0  0.52280  0.45944  0.86294  1.0000
  H   H3213     1.0  0.62978  0.35420  0.24211  1.0000
  H   H3214     1.0  0.75133  0.34313  0.38915  1.0000
  N   N136      1.0  0.62161  0.35457  0.30173  1.0000
  H   H3215     1.0  0.59028  0.48119  0.42067  1.0000
  H   H3216     1.0  0.74167  0.40530  0.97732  1.0000
  H   H3217     1.0  0.61908  0.48494  0.27131  1.0000
  H   H3218     1.0  0.62100  0.47572  0.32998  1.0000
  H   H3219     1.0  0.61339  0.49495  0.26110  1.0000
  C   C1880     1.0  0.51727  0.46260  0.88007  1.0000
  H   H3220     1.0  0.51261  0.44318  0.90243  1.0000
  H   H3221     1.0  0.52968  0.48409  0.29579  1.0000
  H   H3222     1.0  0.51248  0.50163  0.41079  1.0000
  H   H3223     1.0  0.72199  0.34870  0.12583  1.0000
  H   H3224     1.0  0.73156  0.34664  0.38072  1.0000
  H   H3225     1.0  0.74498  0.34731  0.25463  1.0000
  H   H3226     1.0  0.51842  0.47011  0.85847  1.0000
  H   H3227     1.0  0.72882  0.34792  0.92499  1.0000
  H   H3228     1.0  0.75007  0.41485  0.07872  1.0000
  H   H3229     1.0  0.60623  0.36510  0.35083  1.0000
  H   H3230     1.0  0.58269  0.34466  0.88861  1.0000
  S   S539      1.0  0.64586  0.34145  0.23979  1.0000
  H   H3231     1.0  0.50833  0.43267  0.41407  1.0000
  H   H3232     1.0  0.58203  0.34536  0.33525  1.0000
  C   C1881     1.0  0.50755  0.41269  0.00607  1.0000
  C   C1882     1.0  0.50640  0.44609  0.91651  1.0000
  C   C1883     1.0  0.58701  0.34433  0.30906  1.0000
  C   C1884     1.0  0.51517  0.42913  0.00447  1.0000
  C   C1885     1.0  0.74817  0.34527  0.33026  1.0000
  H   H3233     1.0  0.50710  0.45364  0.26523  1.0000
  H   H3234     1.0  0.69754  0.34082  0.07078  1.0000
  H   H3235     1.0  0.53648  0.50280  0.27302  1.0000
  H   H3236     1.0  0.50727  0.47591  0.90251  1.0000
  C   C1886     1.0  0.50490  0.40952  0.04901  1.0000
  H   H3237     1.0  0.54453  0.50685  0.29990  1.0000
  H   H3238     1.0  0.55256  0.50363  0.21687  1.0000
  S   S540      1.0  0.50450  0.40437  0.98015  1.0000
  C   C1887     1.0  0.50561  0.50517  0.64806  1.0000
  H   H3239     1.0  0.75263  0.34530  0.29981  1.0000
  C   C1888     1.0  0.75240  0.36375  0.30832  1.0000
  C   C1889     1.0  0.54405  0.50655  0.26968  1.0000
  H   H3240     1.0  0.61002  0.35026  0.36002  1.0000
  N   N137      1.0  0.50703  0.45637  0.89023  1.0000
  C   C1890     1.0  0.54523  0.50614  0.56526  1.0000
  H   H3241     1.0  0.62424  0.34496  0.35388  1.0000
  C   C1891     1.0  0.50500  0.45620  0.85093  1.0000
  C   C1892     1.0  0.59987  0.34152  0.24132  1.0000
  C   C1893     1.0  0.67496  0.34144  0.20252  1.0000
  H   H3242     1.0  0.55897  0.50585  0.25109  1.0000
  H   H3243     1.0  0.51332  0.50466  0.64157  1.0000
  H   H3244     1.0  0.56278  0.50585  0.77139  1.0000
  C   C1894     1.0  0.50718  0.50600  0.40401  1.0000
  H   H3245     1.0  0.50614  0.50617  0.47997  1.0000
  S   S541      1.0  0.54891  0.50624  0.84570  1.0000
  H   H3246     1.0  0.50406  0.49747  0.71127  1.0000
  C   C1895     1.0  0.60355  0.34050  0.75136  1.0000
  H   H3247     1.0  0.60473  0.34045  0.21494  1.0000
  H   H3248     1.0  0.54665  0.54337  0.90525  1.0000
  S   S542      1.0  0.53444  0.51038  0.37753  1.0000
  C   C1896     1.0  0.50882  0.54901  0.84141  1.0000
  H   H3249     1.0  0.52475  0.53148  0.61306  1.0000
  S   S543      1.0  0.50766  0.54978  0.29296  1.0000
  C   C1897     1.0  0.54292  0.53661  0.93182  1.0000
  C   C1898     1.0  0.50943  0.52383  0.62548  1.0000
  H   H3250     1.0  0.53420  0.51763  0.87301  1.0000
  H   H3251     1.0  0.53184  0.52322  0.95086  1.0000
  S   S544      1.0  0.56240  0.51596  0.32424  1.0000
  H   H3252     1.0  0.54896  0.53425  0.94261  1.0000
  C   C1899     1.0  0.52839  0.52162  0.88083  1.0000
  Fe  Fe271     1.0  0.53140  0.51677  0.42909  1.0000
  H   H3253     1.0  0.50826  0.58175  0.83674  1.0000
  S   S545      1.0  0.52077  0.52653  0.43976  1.0000
  H   H3254     1.0  0.51882  0.52416  0.66495  1.0000
  H   H3255     1.0  0.51815  0.59701  0.29354  1.0000
  Fe  Fe272     1.0  0.52088  0.51349  0.79781  1.0000
  C   C1900     1.0  0.52609  0.54641  0.89904  1.0000
  H   H3256     1.0  0.52815  0.55091  0.86629  1.0000
  H   H3257     1.0  0.54743  0.52772  0.82518  1.0000
  H   H3258     1.0  0.51136  0.58171  0.78596  1.0000
  C   C1901     1.0  0.52985  0.58985  0.33355  1.0000
  S   S546      1.0  0.54709  0.51918  0.43015  1.0000
  H   H3259     1.0  0.52430  0.52184  0.55890  1.0000
  C   C1902     1.0  0.50788  0.58273  0.33571  1.0000
  H   H3260     1.0  0.53414  0.57275  0.30380  1.0000
  H   H3261     1.0  0.53181  0.54880  0.91208  1.0000
  N   N138      1.0  0.53243  0.53094  0.88920  1.0000
  C   C1903     1.0  0.57806  0.51307  0.27148  1.0000
  C   C1904     1.0  0.53955  0.53801  0.84909  1.0000
  H   H3262     1.0  0.54247  0.52338  0.91359  1.0000
  Fe  Fe273     1.0  0.53697  0.51604  0.71880  1.0000
  S   S547      1.0  0.54240  0.52491  0.65161  1.0000
  C   C1905     1.0  0.50871  0.53661  0.40711  1.0000
  S   S548      1.0  0.53662  0.52231  0.77085  1.0000
  H   H3263     1.0  0.51336  0.59008  0.72427  1.0000
  C   C1906     1.0  0.54393  0.51572  0.55214  1.0000
  C   C1907     1.0  0.54332  0.52155  0.57839  1.0000
  C   C1908     1.0  0.54374  0.51773  0.61819  1.0000
  C   C1909     1.0  0.51110  0.58679  0.80454  1.0000
  H   H3264     1.0  0.55360  0.53428  0.85210  1.0000
  H   H3265     1.0  0.54347  0.51866  0.52172  1.0000
  H   H3266     1.0  0.54239  0.52897  0.56804  1.0000
  H   H3267     1.0  0.52578  0.52348  0.85370  1.0000
  H   H3268     1.0  0.52138  0.51491  0.52765  1.0000
  H   H3269     1.0  0.51835  0.53408  0.88860  1.0000
  H   H3270     1.0  0.51926  0.54818  0.91508  1.0000
  Fe  Fe274     1.0  0.54963  0.51118  0.38301  1.0000
  N   N139      1.0  0.51506  0.57625  0.33832  1.0000
  C   C1910     1.0  0.51097  0.59215  0.29817  1.0000
  H   H3271     1.0  0.50451  0.52522  0.65209  1.0000
  C   C1911     1.0  0.50829  0.52980  0.83549  1.0000
  C   C1912     1.0  0.51952  0.52430  0.63302  1.0000
  C   C1913     1.0  0.52233  0.57983  0.35800  1.0000
  H   H3272     1.0  0.55352  0.54049  0.80190  1.0000
  H   H3273     1.0  0.53790  0.53851  0.95652  1.0000
  H   H3274     1.0  0.51448  0.57224  0.28438  1.0000
  H   H3275     1.0  0.53580  0.53932  0.82526  1.0000
  C   C1914     1.0  0.50546  0.54143  0.37515  1.0000
  H   H3276     1.0  0.50587  0.58509  0.36353  1.0000
  C   C1915     1.0  0.53736  0.52810  0.92132  1.0000
  H   H3277     1.0  0.54213  0.54546  0.85117  1.0000
  C   C1916     1.0  0.52793  0.56951  0.29478  1.0000
  C   C1917     1.0  0.51595  0.53784  0.80805  1.0000
  H   H3278     1.0  0.59031  0.51120  0.22730  1.0000
  H   H3279     1.0  0.52319  0.51850  0.62679  1.0000
  H   H3280     1.0  0.51625  0.60235  0.69198  1.0000
  C   C1918     1.0  0.52005  0.57556  0.29663  1.0000
  C   C1919     1.0  0.52387  0.53522  0.90451  1.0000
  H   H3281     1.0  0.57876  0.52059  0.25328  1.0000
  H   H3282     1.0  0.52165  0.53668  0.78451  1.0000
  H   H3283     1.0  0.52208  0.55363  0.78953  1.0000
  C   C1920     1.0  0.51702  0.53272  0.39877  1.0000
  H   H3284     1.0  0.51986  0.53126  0.93764  1.0000
  H   H3285     1.0  0.51103  0.59026  0.26984  1.0000
  C   C1921     1.0  0.51075  0.54278  0.33444  1.0000
  C   C1922     1.0  0.51903  0.53887  0.32615  1.0000
  C   C1923     1.0  0.52209  0.53375  0.35819  1.0000
  H   H3286     1.0  0.52178  0.51100  0.94381  1.0000
  H   H3287     1.0  0.51839  0.58068  0.38769  1.0000
  H   H3288     1.0  0.52317  0.53987  0.29472  1.0000
  H   H3289     1.0  0.52851  0.53081  0.35137  1.0000
  H   H3290     1.0  0.52481  0.56162  0.31347  1.0000
  Fe  Fe275     1.0  0.54030  0.50818  0.80090  1.0000
  H   H3291     1.0  0.50476  0.53586  0.43842  1.0000
  H   H3292     1.0  0.52683  0.59606  0.34018  1.0000
  C   C1924     1.0  0.54899  0.53481  0.83160  1.0000
  H   H3293     1.0  0.52376  0.58293  0.27350  1.0000
  H   H3294     1.0  0.52644  0.57419  0.36704  1.0000
  C   C1925     1.0  0.51618  0.54743  0.81090  1.0000
  C   C1926     1.0  0.51973  0.51389  0.91600  1.0000
  C   C1927     1.0  0.51036  0.59668  0.71835  1.0000
  H   H3295     1.0  0.53103  0.56959  0.26267  1.0000
  H   H3296     1.0  0.53663  0.58990  0.34252  1.0000
  H   H3297     1.0  0.51046  0.53034  0.59847  1.0000
  H   H3298     1.0  0.51417  0.56096  0.37102  1.0000
  S   S549      1.0  0.50772  0.51760  0.83388  1.0000
  H   H3299     1.0  0.53238  0.59124  0.30010  1.0000
  H   H3300     1.0  0.51451  0.60665  0.75057  1.0000
  H   H3301     1.0  0.50909  0.51312  0.40968  1.0000
  H   H3302     1.0  0.54553  0.51435  0.25011  1.0000
  C   C1928     1.0  0.50855  0.51454  0.57603  1.0000
  S   S550      1.0  0.50933  0.56104  0.84531  1.0000
  H   H3303     1.0  0.52622  0.58634  0.79971  1.0000
  H   H3304     1.0  0.51308  0.51679  0.92367  1.0000
  H   H3305     1.0  0.50440  0.50789  0.57172  1.0000
  C   C1929     1.0  0.51957  0.51489  0.55990  1.0000
  H   H3306     1.0  0.50758  0.52112  0.55434  1.0000
  C   C1930     1.0  0.57065  0.50880  0.30941  1.0000
  H   H3307     1.0  0.51106  0.60396  0.82222  1.0000
  H   H3308     1.0  0.52268  0.59584  0.81903  1.0000
  H   H3309     1.0  0.52532  0.59727  0.76473  1.0000
  C   C1931     1.0  0.52191  0.59204  0.79632  1.0000
  C   C1932     1.0  0.58461  0.50774  0.25672  1.0000
  C   C1933     1.0  0.54513  0.50819  0.63102  1.0000
  S   S551      1.0  0.52088  0.50835  0.74363  1.0000
  H   H3310     1.0  0.52155  0.50832  0.57688  1.0000
  C   C1934     1.0  0.50796  0.60080  0.75463  1.0000
  C   C1935     1.0  0.50922  0.56591  0.36522  1.0000
  H   H3311     1.0  0.50823  0.50778  0.37070  1.0000
  H   H3312     1.0  0.50453  0.56254  0.34955  1.0000
  H   H3313     1.0  0.50637  0.56745  0.42722  1.0000
  H   H3314     1.0  0.50535  0.59651  0.30280  1.0000
  N   N140      1.0  0.50457  0.51444  0.61975  1.0000
  H   H3315     1.0  0.50440  0.51034  0.70197  1.0000
  H   H3316     1.0  0.51755  0.50747  0.90576  1.0000
  N   N141      1.0  0.50429  0.59344  0.79723  1.0000
  C   C1936     1.0  0.53361  0.95889  0.82477  1.0000
  S   S552      1.0  0.52107  0.94045  0.85553  1.0000
  Fe  Fe276     1.0  0.53382  0.00546  0.43893  1.0000
  H   H3317     1.0  0.55771  0.94277  0.84322  1.0000
  Fe  Fe277     1.0  0.54174  0.98756  0.42747  1.0000
  S   S553      1.0  0.53141  0.99021  0.48034  1.0000
  S   S554      1.0  0.53516  0.97206  0.42538  1.0000
  H   H3318     1.0  0.51261  0.96000  0.49703  1.0000
  S   S555      1.0  0.54357  0.00279  0.38473  1.0000
  Fe  Fe278     1.0  0.54437  0.99630  0.49706  1.0000
  S   S556      1.0  0.54243  0.99045  0.56502  1.0000
  C   C1937     1.0  0.51215  0.00135  0.43136  1.0000
  S   S557      1.0  0.55485  0.99264  0.44722  1.0000
  H   H3319     1.0  0.53309  0.95858  0.79538  1.0000
  H   H3320     1.0  0.51257  0.98145  0.39704  1.0000
  H   H3321     1.0  0.52367  0.98590  0.79709  1.0000
  Fe  Fe279     1.0  0.55113  0.99273  0.82362  1.0000
  S   S558      1.0  0.54375  0.99414  0.77525  1.0000
  S   S559      1.0  0.54965  0.97737  0.86625  1.0000
  H   H3322     1.0  0.55505  0.94351  0.09772  1.0000
  C   C1938     1.0  0.51591  0.99453  0.41417  1.0000
  H   H3323     1.0  0.54167  0.90487  0.98983  1.0000
  C   C1939     1.0  0.52778  0.00570  0.68013  1.0000
  H   H3324     1.0  0.51633  0.91323  0.16773  1.0000
  H   H3325     1.0  0.53271  0.91448  0.95326  1.0000
  H   H3326     1.0  0.54423  0.97305  0.79868  1.0000
  C   C1940     1.0  0.53918  0.93089  0.88863  1.0000
  C   C1941     1.0  0.54098  0.96752  0.86405  1.0000
  C   C1942     1.0  0.53545  0.95965  0.89992  1.0000
  C   C1943     1.0  0.52894  0.95148  0.89822  1.0000
  H   H3327     1.0  0.51108  0.98399  0.28550  1.0000
  H   H3328     1.0  0.54049  0.97866  0.33495  1.0000
  H   H3329     1.0  0.50969  0.97639  0.33724  1.0000
  H   H3330     1.0  0.53621  0.95990  0.92904  1.0000
  H   H3331     1.0  0.52465  0.94553  0.92594  1.0000
  C   C1944     1.0  0.53599  0.97114  0.34679  1.0000
  H   H3332     1.0  0.50833  0.87749  0.41448  1.0000
  H   H3333     1.0  0.52496  0.92923  0.96472  1.0000
  H   H3334     1.0  0.51391  0.96986  0.89755  1.0000
  C   C1945     1.0  0.51617  0.96994  0.24474  1.0000
  H   H3335     1.0  0.53107  0.92878  0.90284  1.0000
  C   C1946     1.0  0.50481  0.96742  0.25683  1.0000
  H   H3336     1.0  0.53713  0.96978  0.28688  1.0000
  C   C1947     1.0  0.51734  0.98775  0.78942  1.0000
  H   H3337     1.0  0.54308  0.91318  0.91793  1.0000
  H   H3338     1.0  0.51938  0.97410  0.21148  1.0000
  C   C1948     1.0  0.54741  0.99696  0.59381  1.0000
  H   H3339     1.0  0.55914  0.95696  0.08042  1.0000
  H   H3340     1.0  0.52898  0.93487  0.99850  1.0000
  H   H3341     1.0  0.52929  0.92233  0.00356  1.0000
  H   H3342     1.0  0.51211  0.97147  0.61729  1.0000
  C   C1949     1.0  0.54652  0.99183  0.63441  1.0000
  H   H3343     1.0  0.50935  0.87625  0.46505  1.0000
  H   H3344     1.0  0.52374  0.95272  0.43643  1.0000
  H   H3345     1.0  0.55007  0.99252  0.68898  1.0000
  H   H3346     1.0  0.54267  0.98407  0.64762  1.0000
  C   C1950     1.0  0.53237  0.96637  0.38922  1.0000
  S   S560      1.0  0.50672  0.89809  0.33825  1.0000
  C   C1951     1.0  0.54126  0.92615  0.85411  1.0000
  N   N142      1.0  0.54413  0.92812  0.92071  1.0000
  C   C1952     1.0  0.52454  0.95150  0.37656  1.0000
  C   C1953     1.0  0.52657  0.95654  0.40377  1.0000
  H   H3347     1.0  0.51558  0.96827  0.84822  1.0000
  H   H3348     1.0  0.51453  0.97538  0.76698  1.0000
  C   C1954     1.0  0.51191  0.93003  0.09223  1.0000
  H   H3349     1.0  0.55879  0.93053  0.92613  1.0000
  H   H3350     1.0  0.56769  0.94365  0.86363  1.0000
  H   H3351     1.0  0.51196  0.99441  0.53623  1.0000
  C   C1955     1.0  0.50583  0.99812  0.78810  1.0000
  H   H3352     1.0  0.52200  0.98963  0.66044  1.0000
  C   C1956     1.0  0.50957  0.98674  0.41003  1.0000
  C   C1957     1.0  0.50729  0.96439  0.49021  1.0000
  C   C1958     1.0  0.51210  0.98174  0.77276  1.0000
  Fe  Fe280     1.0  0.51594  0.93640  0.29684  1.0000
  H   H3353     1.0  0.54222  0.94150  0.93540  1.0000
  H   H3354     1.0  0.58711  0.00211  0.55979  1.0000
  C   C1959     1.0  0.51417  0.00168  0.65419  1.0000
  H   H3355     1.0  0.54609  0.93333  0.97087  1.0000
  H   H3356     1.0  0.52371  0.99513  0.40431  1.0000
  C   C1960     1.0  0.55520  0.93119  0.90187  1.0000
  H   H3357     1.0  0.54345  0.91637  0.00008  1.0000
  C   C1961     1.0  0.52818  0.95099  0.86041  1.0000
  H   H3358     1.0  0.51200  0.98777  0.64102  1.0000
  C   C1962     1.0  0.51684  0.97389  0.58488  1.0000
  H   H3359     1.0  0.57634  0.98955  0.55715  1.0000
  H   H3360     1.0  0.52331  0.99635  0.60788  1.0000
  C   C1963     1.0  0.53991  0.96715  0.82659  1.0000
  H   H3361     1.0  0.52021  0.94391  0.38847  1.0000
  C   C1964     1.0  0.54090  0.91706  0.94083  1.0000
  C   C1965     1.0  0.57223  0.99912  0.50850  1.0000
  H   H3362     1.0  0.53575  0.91902  0.86262  1.0000
  S   S561      1.0  0.52660  0.95005  0.29785  1.0000
  H   H3363     1.0  0.54084  0.93906  0.87435  1.0000
  C   C1966     1.0  0.51827  0.99350  0.63991  1.0000
  C   C1967     1.0  0.53050  0.92968  0.98083  1.0000
  C   C1968     1.0  0.54511  0.91295  0.97546  1.0000
  C   C1969     1.0  0.53408  0.96605  0.31955  1.0000
  C   C1970     1.0  0.52839  0.95617  0.33414  1.0000
  H   H3364     1.0  0.54873  0.92486  0.84591  1.0000
  H   H3365     1.0  0.57355  0.99367  0.49199  1.0000
  C   C1971     1.0  0.55587  0.00657  0.64102  1.0000
  C   C1972     1.0  0.54121  0.93349  0.95139  1.0000
  H   H3366     1.0  0.50854  0.92717  0.04023  1.0000
  H   H3367     1.0  0.55280  0.94126  0.16295  1.0000
  H   H3368     1.0  0.54757  0.97441  0.14535  1.0000
  H   H3369     1.0  0.55793  0.92612  0.88532  1.0000
  H   H3370     1.0  0.51031  0.95496  0.83064  1.0000
  S   S562      1.0  0.52135  0.92547  0.26621  1.0000
  H   H3371     1.0  0.54080  0.93127  0.82572  1.0000
  H   H3372     1.0  0.55318  0.91384  0.96341  1.0000
  S   S563      1.0  0.54316  0.00209  0.85513  1.0000
  C   C1973     1.0  0.52823  0.95905  0.15925  1.0000
  H   H3373     1.0  0.51924  0.97446  0.26133  1.0000
  C   C1974     1.0  0.51083  0.91421  0.07922  1.0000
  H   H3374     1.0  0.51144  0.97203  0.47109  1.0000
  H   H3375     1.0  0.50993  0.00442  0.63358  1.0000
  H   H3376     1.0  0.56514  0.00080  0.50589  1.0000
  H   H3377     1.0  0.52547  0.95563  0.13849  1.0000
  H   H3378     1.0  0.59056  0.99890  0.48897  1.0000
  H   H3379     1.0  0.51163  0.96258  0.32342  1.0000
  H   H3380     1.0  0.56935  0.99795  0.57416  1.0000
  H   H3381     1.0  0.50861  0.99792  0.68503  1.0000
  S   S564      1.0  0.51406  0.91215  0.92808  1.0000
  S   S565      1.0  0.50758  0.94087  0.25285  1.0000
  Fe  Fe281     1.0  0.53662  0.00419  0.80442  1.0000
  H   H3382     1.0  0.50447  0.95188  0.79617  1.0000
  H   H3383     1.0  0.51826  0.97123  0.52797  1.0000
  H   H3384     1.0  0.50440  0.85981  0.51191  1.0000
  H   H3385     1.0  0.50789  0.88752  0.43449  1.0000
  C   C1975     1.0  0.55952  0.94189  0.87215  1.0000
  H   H3386     1.0  0.51026  0.98360  0.50124  1.0000
  S   S566      1.0  0.51718  0.93414  0.15585  1.0000
  H   H3387     1.0  0.51875  0.96305  0.24991  1.0000
  Fe  Fe282     1.0  0.51213  0.92933  0.22542  1.0000
  C   C1976     1.0  0.55069  0.99661  0.65798  1.0000
  H   H3388     1.0  0.53265  0.96670  0.14204  1.0000
  H   H3389     1.0  0.56349  0.98739  0.56470  1.0000
  C   C1977     1.0  0.51243  0.96878  0.55832  1.0000
  H   H3390     1.0  0.55700  0.94744  0.88612  1.0000
  C   C1978     1.0  0.51303  0.91035  0.11540  1.0000
  C   C1979     1.0  0.51446  0.91623  0.14036  1.0000
  H   H3391     1.0  0.51382  0.90284  0.12373  1.0000
  C   C1980     1.0  0.51422  0.99598  0.79686  1.0000
  C   C1981     1.0  0.51401  0.92614  0.12861  1.0000
  Fe  Fe283     1.0  0.51069  0.92695  0.90652  1.0000
  H   H3392     1.0  0.53341  0.00293  0.66137  1.0000
  H   H3393     1.0  0.52311  0.99911  0.70644  1.0000
  H   H3394     1.0  0.51887  0.98205  0.57164  1.0000
  C   C1982     1.0  0.57040  0.99334  0.55371  1.0000
  H   H3395     1.0  0.52387  0.97180  0.58534  1.0000
  H   H3396     1.0  0.55237  0.94644  0.22357  1.0000
  C   C1983     1.0  0.51073  0.96545  0.88061  1.0000
  S   S567      1.0  0.50932  0.90658  0.04838  1.0000
  H   H3397     1.0  0.51116  0.95783  0.89463  1.0000
  H   H3398     1.0  0.57725  0.99959  0.42493  1.0000
  Fe  Fe284     1.0  0.50736  0.91431  0.30981  1.0000
  H   H3399     1.0  0.52857  0.94509  0.19684  1.0000
  S   S568      1.0  0.52065  0.00387  0.81639  1.0000
  C   C1984     1.0  0.54588  0.94120  0.22351  1.0000
  C   C1985     1.0  0.51016  0.92406  0.06802  1.0000
  H   H3400     1.0  0.54652  0.93362  0.23789  1.0000
  H   H3401     1.0  0.59015  0.00292  0.42144  1.0000
  C   C1986     1.0  0.50561  0.87932  0.44315  1.0000
  H   H3402     1.0  0.51173  0.96069  0.57145  1.0000
  H   H3403     1.0  0.52159  0.95951  0.18201  1.0000
  H   H3404     1.0  0.54962  0.97071  0.09971  1.0000
  H   H3405     1.0  0.53453  0.95532  0.20773  1.0000
  H   H3406     1.0  0.54098  0.95729  0.09864  1.0000
  C   C1987     1.0  0.53379  0.95255  0.18204  1.0000
  H   H3407     1.0  0.55138  0.96094  0.18401  1.0000
  H   H3408     1.0  0.51167  0.93772  0.08264  1.0000
  N   N143      1.0  0.54365  0.95177  0.15704  1.0000
  H   H3409     1.0  0.53753  0.94434  0.12037  1.0000
  C   C1988     1.0  0.54328  0.95102  0.11598  1.0000
  C   C1989     1.0  0.55204  0.97065  0.12664  1.0000
  H   H3410     1.0  0.53909  0.94214  0.24347  1.0000
  C   C1990     1.0  0.54559  0.94224  0.17963  1.0000
  H   H3411     1.0  0.55190  0.95076  0.05664  1.0000
  C   C1991     1.0  0.55298  0.95054  0.08657  1.0000
  H   H3412     1.0  0.53991  0.93573  0.18174  1.0000
  H   H3413     1.0  0.55978  0.97519  0.11367  1.0000
  C   C1992     1.0  0.55180  0.96025  0.15325  1.0000
  H   H3414     1.0  0.55918  0.95879  0.14248  1.0000
  H   H3415     1.0  0.59963  0.00400  0.53034  1.0000
  S   S569      1.0  0.56434  0.00567  0.78478  1.0000
  C   C1993     1.0  0.58366  0.00580  0.41841  1.0000
  C   C1994     1.0  0.59021  0.00634  0.49198  1.0000
  H   H3416     1.0  0.50580  0.95183  0.31560  1.0000
  C   C1995     1.0  0.50430  0.95811  0.32694  1.0000
  C   C1996     1.0  0.50464  0.98904  0.55124  1.0000
  C   C1997     1.0  0.50587  0.98002  0.31661  1.0000
  C   C1998     1.0  0.59289  0.00675  0.53088  1.0000
  Fe  Fe285     1.0  0.50496  0.91168  0.99085  1.0000
  H   H3417     1.0  0.50636  0.88714  0.25852  1.0000
  H   H3418     1.0  0.50386  0.95010  0.38833  1.0000
  Fe  Fe286     1.0  0.76339  0.29853  0.27260  1.0000
  S   S570      1.0  0.76471  0.31053  0.21560  1.0000
  C   C1999     1.0  0.82289  0.30948  0.19500  1.0000
  Fe  Fe287     1.0  0.78226  0.30992  0.28321  1.0000
  S   S571      1.0  0.78508  0.32238  0.22538  1.0000
  S   S572      1.0  0.79196  0.30925  0.32520  1.0000
  Fe  Fe288     1.0  0.76885  0.32109  0.24829  1.0000
  H   H3419     1.0  0.76497  0.26856  0.10612  1.0000
  Fe  Fe289     1.0  0.78073  0.31072  0.19778  1.0000
  S   S573      1.0  0.78907  0.31266  0.13203  1.0000
  S   S574      1.0  0.76607  0.30917  0.30766  1.0000
  S   S575      1.0  0.77939  0.29816  0.25323  1.0000
  C   C2000     1.0  0.81054  0.31744  0.22466  1.0000
  H   H3420     1.0  0.80007  0.33070  0.28141  1.0000
  C   C2001     1.0  0.80262  0.33799  0.81001  1.0000
  H   H3421     1.0  0.79981  0.29925  0.26839  1.0000
  H   H3422     1.0  0.83540  0.33852  0.69316  1.0000
  H   H3423     1.0  0.81257  0.30615  0.29742  1.0000
  H   H3424     1.0  0.81170  0.33316  0.20010  1.0000
  H   H3425     1.0  0.80964  0.29291  0.17585  1.0000
  C   C2002     1.0  0.80909  0.31595  0.73405  1.0000
  H   H3426     1.0  0.78673  0.33782  0.00948  1.0000
  Fe  Fe290     1.0  0.77185  0.31430  0.89777  1.0000
  S   S576      1.0  0.76995  0.31636  0.95934  1.0000
  S   S577      1.0  0.78478  0.32422  0.84179  1.0000
  C   C2003     1.0  0.78250  0.30618  0.10755  1.0000
  H   H3427     1.0  0.83392  0.30094  0.18773  1.0000
  C   C2004     1.0  0.81509  0.33309  0.34039  1.0000
  S   S578      1.0  0.76413  0.33538  0.24196  1.0000
  C   C2005     1.0  0.80771  0.29961  0.25388  1.0000
  Fe  Fe291     1.0  0.76312  0.30005  0.98446  1.0000
  S   S579      1.0  0.76481  0.29057  0.04246  1.0000
  H   H3428     1.0  0.87747  0.33649  0.51914  1.0000
  S   S580      1.0  0.76606  0.29756  0.92274  1.0000
  C   C2006     1.0  0.82630  0.30045  0.18633  1.0000
  H   H3429     1.0  0.81071  0.31186  0.15306  1.0000
  Fe  Fe292     1.0  0.75480  0.31767  0.95863  1.0000
  C   C2007     1.0  0.81296  0.29970  0.28630  1.0000
  H   H3430     1.0  0.82565  0.31545  0.16488  1.0000
  C   C2008     1.0  0.80343  0.29641  0.18199  1.0000
  H   H3431     1.0  0.78325  0.30570  0.01145  1.0000
  C   C2009     1.0  0.81696  0.30911  0.80594  1.0000
  H   H3432     1.0  0.82074  0.29936  0.27501  1.0000
  H   H3433     1.0  0.76154  0.28866  0.12739  1.0000
  H   H3434     1.0  0.86477  0.33688  0.52253  1.0000
  C   C2010     1.0  0.78087  0.33134  0.03198  1.0000
  H   H3435     1.0  0.79304  0.31238  0.75628  1.0000
  H   H3436     1.0  0.76064  0.26324  0.17286  1.0000
  H   H3437     1.0  0.80294  0.30862  0.38189  1.0000
  N   N144      1.0  0.81200  0.30815  0.21434  1.0000
  C   C2011     1.0  0.78056  0.30381  0.04448  1.0000
  H   H3438     1.0  0.80890  0.32650  0.16724  1.0000
  C   C2012     1.0  0.81065  0.33565  0.30960  1.0000
  S   S581      1.0  0.75697  0.31663  0.89569  1.0000
  C   C2013     1.0  0.81916  0.33267  0.71794  1.0000
  H   H3439     1.0  0.81220  0.32277  0.79790  1.0000
  C   C2014     1.0  0.76047  0.31793  0.06823  1.0000
  H   H3440     1.0  0.75504  0.24987  0.13206  1.0000
  C   C2015     1.0  0.80060  0.31873  0.33091  1.0000
  H   H3441     1.0  0.80270  0.31644  0.24220  1.0000
  H   H3442     1.0  0.82282  0.31665  0.66191  1.0000
  C   C2016     1.0  0.77367  0.29900  0.13003  1.0000
  H   H3443     1.0  0.81310  0.33503  0.73636  1.0000
  H   H3444     1.0  0.82430  0.30756  0.80391  1.0000
  H   H3445     1.0  0.80758  0.29234  0.24887  1.0000
  H   H3446     1.0  0.76862  0.33256  0.15979  1.0000
  H   H3447     1.0  0.78027  0.32560  0.01662  1.0000
  C   C2017     1.0  0.77184  0.33306  0.12722  1.0000
  N   N145      1.0  0.81836  0.32180  0.73697  1.0000
  C   C2018     1.0  0.80504  0.31618  0.36164  1.0000
  C   C2019     1.0  0.81333  0.32703  0.18802  1.0000
  H   H3448     1.0  0.76876  0.33599  0.01582  1.0000
  C   C2020     1.0  0.80646  0.30691  0.18476  1.0000
  C   C2021     1.0  0.78598  0.30849  0.06479  1.0000
  H   H3449     1.0  0.81548  0.32118  0.39039  1.0000
  C   C2022     1.0  0.77174  0.29662  0.06698  1.0000
  C   C2023     1.0  0.81217  0.32330  0.36657  1.0000
  H   H3450     1.0  0.84722  0.33456  0.59382  1.0000
  H   H3451     1.0  0.81268  0.30360  0.79645  1.0000
  H   H3452     1.0  0.83566  0.31835  0.65552  1.0000
  C   C2024     1.0  0.79652  0.32968  0.84302  1.0000
  C   C2025     1.0  0.80027  0.32542  0.87393  1.0000
  C   C2026     1.0  0.81013  0.32916  0.87085  1.0000
  H   H3453     1.0  0.77943  0.33208  0.12389  1.0000
  C   C2027     1.0  0.82900  0.32081  0.66849  1.0000
  C   C2028     1.0  0.80343  0.32855  0.30501  1.0000
  H   H3454     1.0  0.79568  0.31900  0.89940  1.0000
  H   H3455     1.0  0.81304  0.32561  0.89429  1.0000
  H   H3456     1.0  0.82616  0.31056  0.72818  1.0000
  H   H3457     1.0  0.83048  0.32882  0.65187  1.0000
  H   H3458     1.0  0.82631  0.30029  0.15533  1.0000
  H   H3459     1.0  0.81484  0.31907  0.24482  1.0000
  C   C2029     1.0  0.81633  0.33725  0.83714  1.0000
  H   H3460     1.0  0.79282  0.31401  0.04723  1.0000
  H   H3461     1.0  0.80864  0.31859  0.70246  1.0000
  H   H3462     1.0  0.80915  0.29304  0.31359  1.0000
  H   H3463     1.0  0.77789  0.33201  0.28711  1.0000
  C   C2030     1.0  0.82707  0.31868  0.71495  1.0000
  H   H3464     1.0  0.82192  0.29327  0.20932  1.0000
  H   H3465     1.0  0.79745  0.29150  0.21007  1.0000
  H   H3466     1.0  0.80911  0.30801  0.73921  1.0000
  C   C2031     1.0  0.77114  0.33451  0.04343  1.0000
  C   C2032     1.0  0.79930  0.31634  0.76316  1.0000
  H   H3467     1.0  0.81282  0.30782  0.83860  1.0000
  H   H3468     1.0  0.77092  0.29712  0.16303  1.0000
  H   H3469     1.0  0.82721  0.31228  0.21318  1.0000
  H   H3470     1.0  0.79943  0.30923  0.19285  1.0000
  H   H3471     1.0  0.83394  0.32215  0.71960  1.0000
  H   H3472     1.0  0.76825  0.26094  0.07522  1.0000
  H   H3473     1.0  0.76690  0.31463  0.06309  1.0000
  C   C2033     1.0  0.76227  0.26428  0.08793  1.0000
  H   H3474     1.0  0.79855  0.32403  0.75928  1.0000
  C   C2034     1.0  0.76837  0.29415  0.10982  1.0000
  H   H3475     1.0  0.80034  0.29691  0.15627  1.0000
  H   H3476     1.0  0.86918  0.33729  0.56415  1.0000
  N   N146      1.0  0.76290  0.32721  0.07957  1.0000
  C   C2035     1.0  0.81807  0.31995  0.78088  1.0000
  H   H3477     1.0  0.82130  0.32922  0.17055  1.0000
  H   H3478     1.0  0.76821  0.33573  0.92412  1.0000
  H   H3479     1.0  0.81816  0.33418  0.68718  1.0000
  H   H3480     1.0  0.79839  0.31256  0.79577  1.0000
  H   H3481     1.0  0.75687  0.33645  0.35780  1.0000
  H   H3482     1.0  0.76995  0.31884  0.11812  1.0000
  H   H3483     1.0  0.78337  0.32864  0.05875  1.0000
  C   C2036     1.0  0.76565  0.32457  0.11830  1.0000
  H   H3484     1.0  0.75890  0.32103  0.14542  1.0000
  H   H3485     1.0  0.75881  0.31967  0.03871  1.0000
  H   H3486     1.0  0.76120  0.26945  0.06130  1.0000
  H   H3487     1.0  0.86172  0.33982  0.44735  1.0000
  H   H3488     1.0  0.82493  0.32427  0.78269  1.0000
  S   S582      1.0  0.84379  0.33979  0.51542  1.0000
  H   H3489     1.0  0.87291  0.33809  0.45567  1.0000
  C   C2037     1.0  0.75381  0.33118  0.08599  1.0000
  H   H3490     1.0  0.82985  0.33976  0.74281  1.0000
  C   C2038     1.0  0.77786  0.33976  0.27918  1.0000
  C   C2039     1.0  0.82884  0.33988  0.71294  1.0000
  C   C2040     1.0  0.87136  0.33981  0.53014  1.0000
  C   C2041     1.0  0.75756  0.34018  0.96598  1.0000
  S   S583      1.0  0.79295  0.40843  0.25092  1.0000
  H   H3491     1.0  0.87492  0.46240  0.53037  1.0000
  H   H3492     1.0  0.76694  0.38996  0.22256  1.0000
  H   H3493     1.0  0.93459  0.42807  0.01682  1.0000
  S   S584      1.0  0.80697  0.40288  0.34133  1.0000
  H   H3494     1.0  0.89653  0.48273  0.47504  1.0000
  H   H3495     1.0  0.95865  0.45917  0.84745  1.0000
  S   S585      1.0  0.80660  0.40867  0.85342  1.0000
  C   C2042     1.0  0.83259  0.39024  0.65414  1.0000
  H   H3496     1.0  0.93238  0.48346  0.15971  1.0000
  H   H3497     1.0  0.95931  0.43616  0.24607  1.0000
  H   H3498     1.0  0.84803  0.40887  0.53683  1.0000
  C   C2043     1.0  0.84444  0.40614  0.57072  1.0000
  S   S586      1.0  0.77924  0.40735  0.93507  1.0000
  Fe  Fe293     1.0  0.92899  0.42644  0.21610  1.0000
  S   S587      1.0  0.92823  0.41788  0.27923  1.0000
  S   S588      1.0  0.92540  0.44120  0.20465  1.0000
  Fe  Fe294     1.0  0.93492  0.41091  0.17926  1.0000
  S   S589      1.0  0.93479  0.40092  0.24010  1.0000
  S   S590      1.0  0.94105  0.40945  0.11589  1.0000
  Fe  Fe295     1.0  0.92050  0.40481  0.26614  1.0000
  S   S591      1.0  0.90674  0.39564  0.31938  1.0000
  Fe  Fe296     1.0  0.94249  0.41479  0.24886  1.0000
  S   S592      1.0  0.95496  0.41437  0.27745  1.0000
  S   S593      1.0  0.92018  0.41382  0.20484  1.0000
  S   S594      1.0  0.94374  0.42438  0.18618  1.0000
  Fe  Fe297     1.0  0.94713  0.48203  0.26867  1.0000
  S   S595      1.0  0.94162  0.48881  0.31753  1.0000
  S   S596      1.0  0.95022  0.46695  0.27987  1.0000
  H   H3499     1.0  0.75887  0.40726  0.08279  1.0000
  H   H3500     1.0  0.75773  0.40454  0.01532  1.0000
  C   C2044     1.0  0.87432  0.35121  0.51456  1.0000
  C   C2045     1.0  0.75759  0.36715  0.33705  1.0000
  H   H3501     1.0  0.86297  0.35316  0.46931  1.0000
  Fe  Fe298     1.0  0.93192  0.49374  0.27998  1.0000
  S   S597      1.0  0.91544  0.49186  0.30713  1.0000
  S   S598      1.0  0.95928  0.49540  0.22928  1.0000
  S   S599      1.0  0.93675  0.48597  0.23421  1.0000
  Fe  Fe299     1.0  0.85037  0.43529  0.39468  1.0000
  S   S600      1.0  0.86394  0.42985  0.37576  1.0000
  S   S601      1.0  0.84075  0.43578  0.35248  1.0000
  Fe  Fe300     1.0  0.85602  0.43954  0.46774  1.0000
  S   S602      1.0  0.86976  0.43417  0.45352  1.0000
  S   S603      1.0  0.85165  0.44458  0.52413  1.0000
  Fe  Fe301     1.0  0.87224  0.44269  0.38788  1.0000
  S   S604      1.0  0.88817  0.44907  0.34704  1.0000
  Fe  Fe302     1.0  0.86032  0.42200  0.44252  1.0000
  S   S605      1.0  0.86134  0.40637  0.46555  1.0000
  S   S606      1.0  0.85900  0.44899  0.40207  1.0000
  S   S607      1.0  0.84623  0.42655  0.46164  1.0000
  Fe  Fe303     1.0  0.93042  0.49141  0.97222  1.0000
  S   S608      1.0  0.93032  0.50059  0.91070  1.0000
  S   S609      1.0  0.92511  0.49577  0.02933  1.0000
  Fe  Fe304     1.0  0.93767  0.47602  0.93782  1.0000
  S   S610      1.0  0.93837  0.48394  0.87375  1.0000
  S   S611      1.0  0.94176  0.46151  0.95190  1.0000
  Fe  Fe305     1.0  0.94507  0.49751  0.88632  1.0000
  H   H3502     1.0  0.90733  0.37993  0.88386  1.0000
  Fe  Fe306     1.0  0.92353  0.48614  0.90352  1.0000
  S   S612      1.0  0.90988  0.48474  0.88208  1.0000
  S   S613      1.0  0.94559  0.48932  0.94819  1.0000
  S   S614      1.0  0.92248  0.47728  0.96725  1.0000
  Fe  Fe307     1.0  0.92224  0.40233  0.93289  1.0000
  S   S615      1.0  0.92334  0.39388  0.88721  1.0000
  S   S616      1.0  0.91790  0.39565  0.00234  1.0000
  Fe  Fe308     1.0  0.92315  0.42136  0.86931  1.0000
  S   S617      1.0  0.92394  0.41460  0.81925  1.0000
  S   S618      1.0  0.92243  0.43719  0.85722  1.0000
  Fe  Fe309     1.0  0.91227  0.40145  0.86567  1.0000
  S   S619      1.0  0.89694  0.39526  0.86153  1.0000
  Fe  Fe310     1.0  0.93494  0.40771  0.84367  1.0000
  S   S620      1.0  0.94940  0.40972  0.79505  1.0000
  S   S621      1.0  0.91062  0.40906  0.91393  1.0000
  S   S622      1.0  0.93473  0.41531  0.89113  1.0000
  H   H3503     1.0  0.86263  0.40551  0.54579  1.0000
  Fe  Fe311     1.0  0.85655  0.44530  0.78311  1.0000
  S   S623      1.0  0.86996  0.45685  0.73573  1.0000
  S   S624      1.0  0.84090  0.44710  0.80460  1.0000
  Fe  Fe312     1.0  0.86747  0.42941  0.79410  1.0000
  S   S625      1.0  0.88146  0.43929  0.74789  1.0000
  S   S626      1.0  0.86706  0.41356  0.82460  1.0000
  Fe  Fe313     1.0  0.87838  0.45084  0.77829  1.0000
  S   S627      1.0  0.89291  0.45730  0.78768  1.0000
  Fe  Fe314     1.0  0.87225  0.44453  0.70903  1.0000
  S   S628      1.0  0.87759  0.44438  0.64318  1.0000
  S   S629      1.0  0.86474  0.44037  0.82735  1.0000
  S   S630      1.0  0.85852  0.43360  0.75299  1.0000
  C   C2046     1.0  0.99291  0.47011  0.46208  1.0000
  H   H3504     1.0  0.90568  0.49668  0.17243  1.0000
  H   H3505     1.0  0.80646  0.37023  0.19083  1.0000
  H   H3506     1.0  0.78871  0.34343  0.30778  1.0000
  C   C2047     1.0  0.75564  0.41172  0.06175  1.0000
  H   H3507     1.0  0.96346  0.48156  0.29400  1.0000
  C   C2048     1.0  0.86146  0.39787  0.79915  1.0000
  C   C2049     1.0  0.85891  0.40596  0.80996  1.0000
  C   C2050     1.0  0.85042  0.40865  0.80438  1.0000
  C   C2051     1.0  0.84476  0.40360  0.78613  1.0000
  C   C2052     1.0  0.98368  0.47969  0.32433  1.0000
  H   H3508     1.0  0.86803  0.39580  0.80338  1.0000
  H   H3509     1.0  0.84827  0.41463  0.81421  1.0000
  H   H3510     1.0  0.83818  0.40569  0.78213  1.0000
  Fe  Fe315     1.0  0.95313  0.50275  0.27534  1.0000
  C   C2053     1.0  0.84905  0.36271  0.56020  1.0000
  C   C2054     1.0  0.92448  0.45726  0.06104  1.0000
  H   H3511     1.0  0.99486  0.50152  0.24395  1.0000
  S   S631      1.0  0.84271  0.36278  0.34603  1.0000
  H   H3512     1.0  0.85377  0.41872  0.57885  1.0000
  H   H3513     1.0  0.88987  0.44115  0.92066  1.0000
  C   C2055     1.0  0.93042  0.44998  0.07642  1.0000
  H   H3514     1.0  0.90536  0.38553  0.80166  1.0000
  C   C2056     1.0  0.93476  0.48638  0.76933  1.0000
  C   C2057     1.0  0.79929  0.38035  0.05281  1.0000
  H   H3515     1.0  0.89262  0.47358  0.54719  1.0000
  C   C2058     1.0  0.84663  0.40278  0.43246  1.0000
  H   H3516     1.0  0.84537  0.36055  0.50772  1.0000
  H   H3517     1.0  0.91455  0.49549  0.79479  1.0000
  H   H3518     1.0  0.93354  0.47122  0.16360  1.0000
  Fe  Fe316     1.0  0.84063  0.35397  0.78301  1.0000
  C   C2059     1.0  0.90504  0.47651  0.85829  1.0000
  C   C2060     1.0  0.91060  0.47080  0.84042  1.0000
  C   C2061     1.0  0.90670  0.46488  0.81953  1.0000
  C   C2062     1.0  0.89716  0.46449  0.81652  1.0000
  C   C2063     1.0  0.89154  0.47010  0.83491  1.0000
  C   C2064     1.0  0.89550  0.47612  0.85530  1.0000
  H   H3519     1.0  0.91795  0.47106  0.84220  1.0000
  H   H3520     1.0  0.91113  0.46057  0.80553  1.0000
  H   H3521     1.0  0.88422  0.46995  0.83275  1.0000
  H   H3522     1.0  0.89113  0.48055  0.86878  1.0000
  C   C2065     1.0  0.93545  0.45410  0.93016  1.0000
  C   C2066     1.0  0.93710  0.44476  0.93127  1.0000
  C   C2067     1.0  0.93251  0.43915  0.91146  1.0000
  C   C2068     1.0  0.92671  0.44308  0.88877  1.0000
  C   C2069     1.0  0.92477  0.45222  0.88907  1.0000
  C   C2070     1.0  0.92897  0.45763  0.91041  1.0000
  H   H3523     1.0  0.94203  0.44193  0.94679  1.0000
  H   H3524     1.0  0.93381  0.43198  0.91255  1.0000
  H   H3525     1.0  0.92004  0.45513  0.87260  1.0000
  H   H3526     1.0  0.92722  0.46457  0.91110  1.0000
  C   C2071     1.0  0.85856  0.44396  0.55863  1.0000
  C   C2072     1.0  0.85648  0.44862  0.58883  1.0000
  C   C2073     1.0  0.86199  0.44848  0.61609  1.0000
  C   C2074     1.0  0.86971  0.44374  0.61309  1.0000
  C   C2075     1.0  0.87177  0.43906  0.58302  1.0000
  C   C2076     1.0  0.86616  0.43907  0.55625  1.0000
  H   H3527     1.0  0.85070  0.45254  0.59058  1.0000
  H   H3528     1.0  0.86054  0.45236  0.63835  1.0000
  H   H3529     1.0  0.87780  0.43546  0.58020  1.0000
  H   H3530     1.0  0.86782  0.43540  0.53346  1.0000
  C   C2077     1.0  0.96402  0.43412  0.26420  1.0000
  H   H3531     1.0  0.93058  0.42544  0.10436  1.0000
  H   H3532     1.0  0.88762  0.47217  0.41566  1.0000
  C   C2078     1.0  0.85272  0.39875  0.45335  1.0000
  C   C2079     1.0  0.88305  0.47131  0.44703  1.0000
  H   H3533     1.0  0.91465  0.41957  0.12981  1.0000
  H   H3534     1.0  0.89021  0.42963  0.95642  1.0000
  H   H3535     1.0  0.85660  0.38539  0.48065  1.0000
  H   H3536     1.0  0.84710  0.41063  0.42414  1.0000
  C   C2080     1.0  0.85201  0.38857  0.46405  1.0000
  H   H3537     1.0  0.80606  0.43733  0.25406  1.0000
  H   H3538     1.0  0.81147  0.35818  0.84141  1.0000
  H   H3539     1.0  0.77982  0.35299  0.15895  1.0000
  C   C2081     1.0  0.93335  0.49533  0.78442  1.0000
  H   H3540     1.0  0.90742  0.43427  0.80850  1.0000
  H   H3541     1.0  0.86988  0.36968  0.51235  1.0000
  C   C2082     1.0  0.77310  0.35625  0.95259  1.0000
  H   H3542     1.0  0.78485  0.43985  0.29518  1.0000
  H   H3543     1.0  0.92051  0.44081  0.03055  1.0000
  S   S632      1.0  0.99715  0.45857  0.69619  1.0000
  H   H3544     1.0  0.76202  0.34934  0.34332  1.0000
  H   H3545     1.0  0.99783  0.46698  0.44203  1.0000
  C   C2083     1.0  0.93308  0.49799  0.05753  1.0000
  C   C2084     1.0  0.94186  0.49489  0.05211  1.0000
  C   C2085     1.0  0.94805  0.49684  0.07506  1.0000
  H   H3546     1.0  0.76929  0.41351  0.35981  1.0000
  H   H3547     1.0  0.77838  0.41257  0.31581  1.0000
  H   H3548     1.0  0.94387  0.49100  0.03033  1.0000
  H   H3549     1.0  0.95486  0.49449  0.07056  1.0000
  C   C2086     1.0  0.90779  0.47998  0.31859  1.0000
  C   C2087     1.0  0.89749  0.47851  0.33041  1.0000
  C   C2088     1.0  0.89132  0.46903  0.33995  1.0000
  C   C2089     1.0  0.89545  0.46101  0.33725  1.0000
  C   C2090     1.0  0.90574  0.46253  0.32512  1.0000
  C   C2091     1.0  0.91186  0.47194  0.31630  1.0000
  H   H3550     1.0  0.89429  0.48472  0.33211  1.0000
  H   H3551     1.0  0.88340  0.46795  0.34876  1.0000
  H   H3552     1.0  0.90899  0.45638  0.32274  1.0000
  H   H3553     1.0  0.91975  0.47300  0.30795  1.0000
  H   H3554     1.0  0.90274  0.42732  0.89621  1.0000
  H   H3555     1.0  0.83026  0.39093  0.68536  1.0000
  C   C2092     1.0  0.84588  0.41511  0.58630  1.0000
  H   H3556     1.0  0.93572  0.43811  0.41857  1.0000
  H   H3557     1.0  0.92271  0.42715  0.01198  1.0000
  C   C2093     1.0  0.93422  0.40622  0.08449  1.0000
  C   C2094     1.0  0.93906  0.40851  0.04229  1.0000
  C   C2095     1.0  0.93405  0.40571  0.01647  1.0000
  C   C2096     1.0  0.92418  0.40032  0.03280  1.0000
  C   C2097     1.0  0.91931  0.39813  0.07495  1.0000
  C   C2098     1.0  0.92425  0.40116  0.10061  1.0000
  H   H3558     1.0  0.94677  0.41239  0.02949  1.0000
  H   H3559     1.0  0.93792  0.40739  0.98419  1.0000
  H   H3560     1.0  0.91170  0.39392  0.08796  1.0000
  H   H3561     1.0  0.92044  0.39929  0.13304  1.0000
  H   H3562     1.0  0.90473  0.42853  0.68921  1.0000
  H   H3563     1.0  0.77727  0.36739  0.25431  1.0000
  H   H3564     1.0  0.80782  0.40558  0.05831  1.0000
  H   H3565     1.0  0.76850  0.35335  0.79490  1.0000
  H   H3566     1.0  0.94096  0.42778  0.42343  1.0000
  C   C2099     1.0  0.93236  0.44827  0.22555  1.0000
  C   C2100     1.0  0.94208  0.44780  0.22242  1.0000
  C   C2101     1.0  0.94761  0.45361  0.23883  1.0000
  C   C2102     1.0  0.94341  0.45987  0.25842  1.0000
  C   C2103     1.0  0.93364  0.46015  0.26225  1.0000
  C   C2104     1.0  0.92809  0.45429  0.24621  1.0000
  H   H3567     1.0  0.94542  0.44311  0.20674  1.0000
  H   H3568     1.0  0.95518  0.45336  0.23582  1.0000
  H   H3569     1.0  0.93026  0.46466  0.27875  1.0000
  H   H3570     1.0  0.92042  0.45420  0.25073  1.0000
  C   C2105     1.0  0.81567  0.41893  0.85025  1.0000
  C   C2106     1.0  0.82555  0.41840  0.83976  1.0000
  C   C2107     1.0  0.83321  0.42692  0.82853  1.0000
  C   C2108     1.0  0.83118  0.43614  0.82608  1.0000
  C   C2109     1.0  0.82129  0.43666  0.83796  1.0000
  C   C2110     1.0  0.81354  0.42806  0.85033  1.0000
  H   H3571     1.0  0.82730  0.41141  0.83942  1.0000
  H   H3572     1.0  0.84076  0.42646  0.82070  1.0000
  H   H3573     1.0  0.81961  0.44376  0.83639  1.0000
  H   H3574     1.0  0.80597  0.42862  0.85762  1.0000
  H   H3575     1.0  0.95928  0.44535  0.88790  1.0000
  H   H3576     1.0  0.83647  0.40394  0.57491  1.0000
  C   C2111     1.0  0.87924  0.40626  0.36990  1.0000
  C   C2112     1.0  0.83659  0.38729  0.56213  1.0000
  H   H3577     1.0  0.80493  0.37162  0.91261  1.0000
  C   C2113     1.0  0.81720  0.41165  0.34144  1.0000
  C   C2114     1.0  0.82184  0.42052  0.30923  1.0000
  C   C2115     1.0  0.82912  0.42773  0.31291  1.0000
  C   C2116     1.0  0.83204  0.42611  0.34835  1.0000
  C   C2117     1.0  0.82758  0.41713  0.38005  1.0000
  C   C2118     1.0  0.82017  0.41001  0.37672  1.0000
  H   H3578     1.0  0.81969  0.42193  0.28185  1.0000
  H   H3579     1.0  0.83249  0.43464  0.28817  1.0000
  H   H3580     1.0  0.82967  0.41576  0.40761  1.0000
  H   H3581     1.0  0.81665  0.40319  0.40192  1.0000
  H   H3582     1.0  0.92381  0.42174  0.06081  1.0000
  N   N147      1.0  0.88832  0.41356  0.69446  1.0000
  H   H3583     1.0  0.91610  0.43686  0.14026  1.0000
  H   H3584     1.0  0.91140  0.44037  0.09864  1.0000
  C   C2119     1.0  0.91617  0.43583  0.11023  1.0000
  H   H3585     1.0  0.84264  0.42081  0.57054  1.0000
  H   H3586     1.0  0.89833  0.45833  0.20518  1.0000
  H   H3587     1.0  0.87987  0.35369  0.52869  1.0000
  H   H3588     1.0  0.90125  0.43834  0.86396  1.0000
  C   C2120     1.0  0.79571  0.42566  0.30781  1.0000
  C   C2121     1.0  0.89325  0.38554  0.99271  1.0000
  H   H3589     1.0  0.80717  0.34974  0.45247  1.0000
  H   H3590     1.0  0.88870  0.39809  0.70960  1.0000
  H   H3591     1.0  0.88289  0.39913  0.30284  1.0000
  S   S633      1.0  0.76350  0.39637  0.29551  1.0000
  H   H3592     1.0  0.85499  0.39166  0.30382  1.0000
  H   H3593     1.0  0.82869  0.39481  0.63707  1.0000
  H   H3594     1.0  0.83001  0.38607  0.58856  1.0000
  C   C2122     1.0  0.79814  0.37050  0.08565  1.0000
  H   H3595     1.0  0.89774  0.39293  0.98888  1.0000
  C   C2123     1.0  0.85589  0.39288  0.78036  1.0000
  C   C2124     1.0  0.89682  0.38718  0.31673  1.0000
  H   H3596     1.0  0.79541  0.40235  0.02350  1.0000
  C   C2125     1.0  0.88792  0.41410  0.73650  1.0000
  C   C2126     1.0  0.77754  0.35975  0.26095  1.0000
  H   H3597     1.0  0.87536  0.39886  0.39265  1.0000
  H   H3598     1.0  0.83265  0.45119  0.71886  1.0000
  C   C2127     1.0  0.80005  0.40416  0.07463  1.0000
  C   C2128     1.0  0.89495  0.40915  0.75588  1.0000
  C   C2129     1.0  0.88765  0.35363  0.45094  1.0000
  H   H3599     1.0  0.89349  0.41275  0.24213  1.0000
  S   S634      1.0  0.98830  0.43624  0.80126  1.0000
  C   C2130     1.0  0.89177  0.38789  0.83512  1.0000
  H   H3600     1.0  0.90876  0.42405  0.09186  1.0000
  H   H3601     1.0  0.94545  0.43748  0.04181  1.0000
  C   C2131     1.0  0.88247  0.42037  0.67751  1.0000
  H   H3602     1.0  0.93399  0.43859  0.31225  1.0000
  N   N148      1.0  0.81645  0.36998  0.86412  1.0000
  H   H3603     1.0  0.98552  0.46165  0.57972  1.0000
  C   C2132     1.0  0.82451  0.37941  0.84890  1.0000
  C   C2133     1.0  0.81700  0.36540  0.83033  1.0000
  C   C2134     1.0  0.80631  0.37152  0.88048  1.0000
  Fe  Fe317     1.0  0.85564  0.35871  0.36345  1.0000
  C   C2135     1.0  0.82524  0.38474  0.88074  1.0000
  C   C2136     1.0  0.81506  0.37137  0.79184  1.0000
  C   C2137     1.0  0.80405  0.38110  0.85708  1.0000
  C   C2138     1.0  0.97938  0.47281  0.25611  1.0000
  C   C2139     1.0  0.75583  0.34756  0.98396  1.0000
  H   H3604     1.0  0.82387  0.38494  0.82230  1.0000
  H   H3605     1.0  0.83183  0.37789  0.83709  1.0000
  H   H3606     1.0  0.77221  0.39891  0.13334  1.0000
  H   H3607     1.0  0.82434  0.36377  0.82024  1.0000
  C   C2140     1.0  0.75467  0.34111  0.09490  1.0000
  H   H3608     1.0  0.79186  0.36049  0.19042  1.0000
  H   H3609     1.0  0.82205  0.36918  0.30966  1.0000
  H   H3610     1.0  0.78508  0.37410  0.17518  1.0000
  H   H3611     1.0  0.89037  0.37338  0.25899  1.0000
  C   C2141     1.0  0.76360  0.35566  0.97699  1.0000
  C   C2142     1.0  0.81858  0.36285  0.89832  1.0000
  C   C2143     1.0  0.98200  0.49501  0.49862  1.0000
  C   C2144     1.0  0.99938  0.47856  0.46960  1.0000
  H   H3612     1.0  0.82018  0.37880  0.77679  1.0000
  H   H3613     1.0  0.80730  0.37191  0.79877  1.0000
  H   H3614     1.0  0.88661  0.38681  0.98432  1.0000
  H   H3615     1.0  0.80896  0.38490  0.82536  1.0000
  H   H3616     1.0  0.88591  0.34939  0.00796  1.0000
  H   H3617     1.0  0.89276  0.44790  0.44914  1.0000
  H   H3618     1.0  0.88185  0.40715  0.63719  1.0000
  C   C2145     1.0  0.88176  0.46847  0.51862  1.0000
  C   C2146     1.0  0.95608  0.44210  0.36356  1.0000
  C   C2147     1.0  0.88413  0.40296  0.69832  1.0000
  H   H3619     1.0  0.93798  0.40943  0.35708  1.0000
  H   H3620     1.0  0.88066  0.46704  0.58200  1.0000
  H   H3621     1.0  0.89325  0.40922  0.78800  1.0000
  H   H3622     1.0  0.88039  0.41056  0.75832  1.0000
  C   C2148     1.0  0.88344  0.40100  0.65842  1.0000
  S   S635      1.0  0.84090  0.39000  0.74795  1.0000
  H   H3623     1.0  0.89037  0.45770  0.25380  1.0000
  C   C2149     1.0  0.91063  0.42506  0.11904  1.0000
  H   H3624     1.0  0.90352  0.42334  0.14390  1.0000
  C   C2150     1.0  0.89808  0.46057  0.23269  1.0000
  H   H3625     1.0  0.89494  0.47486  0.21599  1.0000
  C   C2151     1.0  0.90457  0.37180  0.89375  1.0000
  H   H3626     1.0  0.87273  0.40235  0.94188  1.0000
  C   C2152     1.0  0.90112  0.47189  0.22320  1.0000
  H   H3627     1.0  0.90268  0.45683  0.24915  1.0000
  H   H3628     1.0  0.87057  0.41191  0.90430  1.0000
  H   H3629     1.0  0.87940  0.40496  0.88923  1.0000
  N   N149      1.0  0.92655  0.43922  0.08083  1.0000
  C   C2153     1.0  0.93296  0.43347  0.09934  1.0000
  C   C2154     1.0  0.92697  0.42823  0.03291  1.0000
  H   H3630     1.0  0.93228  0.43400  0.13053  1.0000
  H   H3631     1.0  0.84205  0.41306  0.61963  1.0000
  H   H3632     1.0  0.83003  0.38235  0.65655  1.0000
  H   H3633     1.0  0.90112  0.47296  0.25299  1.0000
  H   H3634     1.0  0.90341  0.48396  0.14842  1.0000
  C   C2155     1.0  0.93667  0.50481  0.10945  1.0000
  H   H3635     1.0  0.89913  0.46850  0.14083  1.0000
  C   C2156     1.0  0.87636  0.40845  0.91243  1.0000
  H   H3636     1.0  0.94777  0.43110  0.08722  1.0000
  H   H3637     1.0  0.90004  0.48998  0.22696  1.0000
  H   H3638     1.0  0.91088  0.46567  0.13976  1.0000
  C   C2157     1.0  0.92681  0.43844  0.03920  1.0000
  C   C2158     1.0  0.94406  0.43674  0.07464  1.0000
  N   N150      1.0  0.91082  0.47751  0.19026  1.0000
  C   C2159     1.0  0.90952  0.48020  0.14853  1.0000
  C   C2160     1.0  0.90709  0.49373  0.20183  1.0000
  C   C2161     1.0  0.90720  0.47165  0.13131  1.0000
  H   H3639     1.0  0.86639  0.42696  0.91199  1.0000
  H   H3640     1.0  0.93100  0.45074  0.10616  1.0000
  H   H3641     1.0  0.94764  0.44379  0.07767  1.0000
  H   H3642     1.0  0.86245  0.38888  0.62126  1.0000
  H   H3643     1.0  0.89024  0.41187  0.92302  1.0000
  H   H3644     1.0  0.99287  0.49449  0.44536  1.0000
  H   H3645     1.0  0.88819  0.41825  0.83599  1.0000
  C   C2162     1.0  0.91432  0.48699  0.19864  1.0000
  H   H3646     1.0  0.91613  0.48535  0.22784  1.0000
  H   H3647     1.0  0.91615  0.46413  0.19181  1.0000
  H   H3648     1.0  0.91601  0.48586  0.12525  1.0000
  H   H3649     1.0  0.87798  0.42793  0.85356  1.0000
  H   H3650     1.0  0.84652  0.39921  0.65032  1.0000
  H   H3651     1.0  0.83662  0.39339  0.53554  1.0000
  C   C2163     1.0  0.91855  0.47173  0.19271  1.0000
  H   H3652     1.0  0.91987  0.47071  0.22276  1.0000
  H   H3653     1.0  0.91009  0.47457  0.09725  1.0000
  C   C2164     1.0  0.88452  0.41586  0.91746  1.0000
  H   H3654     1.0  0.88135  0.41722  0.94670  1.0000
  C   C2165     1.0  0.84390  0.39376  0.63595  1.0000
  H   H3655     1.0  0.92123  0.49166  0.17451  1.0000
  C   C2166     1.0  0.87360  0.43161  0.90906  1.0000
  C   C2167     1.0  0.89389  0.42246  0.84504  1.0000
  C   C2168     1.0  0.88181  0.43111  0.87233  1.0000
  H   H3656     1.0  0.89870  0.41740  0.85227  1.0000
  H   H3657     1.0  0.87488  0.42962  0.93894  1.0000
  N   N151      1.0  0.84823  0.39754  0.58985  1.0000
  Fe  Fe318     1.0  0.00225  0.45190  0.40982  1.0000
  H   H3658     1.0  0.95386  0.47885  0.36637  1.0000
  H   H3659     1.0  0.83154  0.41919  0.75359  1.0000
  C   C2169     1.0  0.92863  0.47627  0.15875  1.0000
  H   H3660     1.0  0.90577  0.47432  0.40697  1.0000
  N   N152      1.0  0.88916  0.42535  0.88202  1.0000
  H   H3661     1.0  0.90193  0.42810  0.77966  1.0000
  H   H3662     1.0  0.87270  0.43932  0.90275  1.0000
  H   H3663     1.0  0.93801  0.45298  0.05413  1.0000
  H   H3664     1.0  0.93357  0.44364  0.01576  1.0000
  H   H3665     1.0  0.86103  0.40654  0.59554  1.0000
  H   H3666     1.0  0.96473  0.48373  0.37633  1.0000
  H   H3667     1.0  0.99730  0.46649  0.54365  1.0000
  H   H3668     1.0  0.92801  0.47709  0.12776  1.0000
  C   C2170     1.0  0.84538  0.38249  0.45301  1.0000
  C   C2171     1.0  0.89791  0.47606  0.46637  1.0000
  C   C2172     1.0  0.90420  0.48015  0.42066  1.0000
  H   H3669     1.0  0.90274  0.47310  0.48372  1.0000
  H   H3670     1.0  0.88860  0.46021  0.56105  1.0000
  H   H3671     1.0  0.91144  0.48481  0.41741  1.0000
  C   C2173     1.0  0.90023  0.43103  0.80587  1.0000
  H   H3672     1.0  0.88569  0.43886  0.85284  1.0000
  H   H3673     1.0  0.89638  0.43693  0.79798  1.0000
  H   H3674     1.0  0.95637  0.41191  0.86241  1.0000
  C   C2174     1.0  0.96140  0.48380  0.35181  1.0000
  H   H3675     1.0  0.87927  0.47548  0.51507  1.0000
  H   H3676     1.0  0.88164  0.47876  0.44507  1.0000
  H   H3677     1.0  0.91745  0.45638  0.08498  1.0000
  H   H3678     1.0  0.92882  0.46497  0.05354  1.0000
  H   H3679     1.0  0.96055  0.49136  0.33867  1.0000
  C   C2175     1.0  0.89723  0.43159  0.89069  1.0000
  C   C2176     1.0  0.97633  0.45945  0.79435  1.0000
  C   C2177     1.0  0.88632  0.46726  0.55369  1.0000
  H   H3680     1.0  0.90073  0.48508  0.40228  1.0000
  H   H3681     1.0  0.92307  0.45663  0.03259  1.0000
  C   C2178     1.0  0.85925  0.40127  0.57908  1.0000
  N   N153      1.0  0.88831  0.46844  0.47799  1.0000
  C   C2179     1.0  0.98024  0.49587  0.29209  1.0000
  C   C2180     1.0  0.96718  0.48022  0.31777  1.0000
  C   C2181     1.0  0.88998  0.45818  0.48349  1.0000
  H   H3682     1.0  0.89436  0.45655  0.50467  1.0000
  H   H3683     1.0  0.86744  0.46389  0.48276  1.0000
  C   C2182     1.0  0.89417  0.43557  0.92694  1.0000
  C   C2183     1.0  0.98260  0.48128  0.36632  1.0000
  H   H3684     1.0  0.96569  0.47202  0.33059  1.0000
  H   H3685     1.0  0.76177  0.41810  0.04027  1.0000
  C   C2184     1.0  0.87316  0.46409  0.45478  1.0000
  H   H3686     1.0  0.87034  0.46669  0.42876  1.0000
  H   H3687     1.0  0.89381  0.45973  0.41715  1.0000
  H   H3688     1.0  0.86915  0.41650  0.73052  1.0000
  N   N154      1.0  0.97812  0.48487  0.29880  1.0000
  Fe  Fe319     1.0  0.84568  0.37611  0.74691  1.0000
  H   H3689     1.0  0.89307  0.35571  0.46631  1.0000
  C   C2185     1.0  0.79349  0.37521  0.41494  1.0000
  C   C2186     1.0  0.89539  0.45590  0.44487  1.0000
  H   H3690     1.0  0.88295  0.45239  0.49936  1.0000
  C   C2187     1.0  0.96179  0.41678  0.83403  1.0000
  H   H3691     1.0  0.87396  0.45650  0.45639  1.0000
  H   H3692     1.0  0.90348  0.45764  0.43901  1.0000
  H   H3693     1.0  0.86776  0.42253  0.68280  1.0000
  H   H3694     1.0  0.87681  0.39973  0.72248  1.0000
  H   H3695     1.0  0.89401  0.40130  0.75726  1.0000
  H   H3696     1.0  0.88935  0.42189  0.73674  1.0000
  H   H3697     1.0  0.86797  0.40979  0.69472  1.0000
  C   C2188     1.0  0.87120  0.41694  0.69787  1.0000
  C   C2189     1.0  0.78697  0.40234  0.13621  1.0000
  H   H3698     1.0  0.76820  0.35461  0.84368  1.0000
  H   H3699     1.0  0.97097  0.44925  0.25601  1.0000
  C   C2190     1.0  0.96020  0.41715  0.79670  1.0000
  H   H3700     1.0  0.84670  0.38215  0.59239  1.0000
  H   H3701     1.0  0.90278  0.41318  0.73989  1.0000
  H   H3702     1.0  0.90097  0.43953  0.93052  1.0000
  H   H3703     1.0  0.88711  0.37651  0.92631  1.0000
  H   H3704     1.0  0.95880  0.43279  0.89129  1.0000
  C   C2191     1.0  0.88152  0.38591  0.84192  1.0000
  H   H3705     1.0  0.88471  0.42780  0.68075  1.0000
  H   H3706     1.0  0.97153  0.46875  0.27078  1.0000
  C   C2192     1.0  0.96924  0.41954  0.16499  1.0000
  C   C2193     1.0  0.96345  0.42410  0.28227  1.0000
  Fe  Fe320     1.0  0.79856  0.39962  0.21006  1.0000
  H   H3707     1.0  0.86472  0.38828  0.56977  1.0000
  H   H3708     1.0  0.88406  0.42190  0.64394  1.0000
  H   H3709     1.0  0.87721  0.39451  0.66617  1.0000
  C   C2194     1.0  0.97067  0.44154  0.26985  1.0000
  C   C2195     1.0  0.98136  0.48358  0.25701  1.0000
  H   H3710     1.0  0.97776  0.48772  0.23638  1.0000
  H   H3711     1.0  0.94818  0.43783  0.85228  1.0000
  H   H3712     1.0  0.85095  0.41574  0.29729  1.0000
  C   C2196     1.0  0.88041  0.36719  0.46087  1.0000
  H   H3713     1.0  0.97176  0.42206  0.86366  1.0000
  C   C2197     1.0  0.85062  0.35827  0.59728  1.0000
  C   C2198     1.0  0.96129  0.44046  0.86947  1.0000
  H   H3714     1.0  0.96940  0.44190  0.85616  1.0000
  H   H3715     1.0  0.97370  0.45870  0.82718  1.0000
  S   S636      1.0  0.99330  0.46010  0.37668  1.0000
  S   S637      1.0  0.98473  0.44886  0.30102  1.0000
  H   H3716     1.0  0.90317  0.41162  0.67605  1.0000
  C   C2199     1.0  0.89876  0.41683  0.66589  1.0000
  S   S638      1.0  0.82889  0.35044  0.44068  1.0000
  H   H3717     1.0  0.96246  0.42459  0.11659  1.0000
  C   C2200     1.0  0.97374  0.48689  0.82335  1.0000
  H   H3718     1.0  0.96931  0.48056  0.85076  1.0000
  S   S639      1.0  0.83281  0.37927  0.40984  1.0000
  H   H3719     1.0  0.96107  0.40264  0.22808  1.0000
  H   H3720     1.0  0.89034  0.39942  0.64205  1.0000
  H   H3721     1.0  0.89893  0.41656  0.63480  1.0000
  H   H3722     1.0  0.96071  0.44193  0.74117  1.0000
  H   H3723     1.0  0.94691  0.45524  0.84425  1.0000
  Fe  Fe321     1.0  0.77828  0.39534  0.99170  1.0000
  H   H3724     1.0  0.99771  0.49336  0.53149  1.0000
  C   C2201     1.0  0.79304  0.40230  0.05496  1.0000
  C   C2202     1.0  0.84634  0.38927  0.57194  1.0000
  C   C2203     1.0  0.80522  0.35675  0.45479  1.0000
  C   C2204     1.0  0.98041  0.49060  0.90199  1.0000
  Fe  Fe322     1.0  0.79957  0.39957  0.29481  1.0000
  Fe  Fe323     1.0  0.79168  0.40172  0.90310  1.0000
  H   H3725     1.0  0.81827  0.43921  0.64807  1.0000
  C   C2205     1.0  0.93085  0.43579  0.34633  1.0000
  S   S640      1.0  0.78324  0.36525  0.94881  1.0000
  H   H3726     1.0  0.96546  0.48885  0.89752  1.0000
  H   H3727     1.0  0.89860  0.35501  0.39330  1.0000
  H   H3728     1.0  0.75817  0.36320  0.28213  1.0000
  H   H3729     1.0  0.85764  0.39510  0.36702  1.0000
  H   H3730     1.0  0.92755  0.41438  0.36877  1.0000
  H   H3731     1.0  0.98073  0.49854  0.89801  1.0000
  H   H3732     1.0  0.97884  0.39384  0.15843  1.0000
  S   S641      1.0  0.84780  0.36622  0.80220  1.0000
  C   C2206     1.0  0.77761  0.37102  0.13361  1.0000
  H   H3733     1.0  0.97581  0.42857  0.09950  1.0000
  H   H3734     1.0  0.80169  0.35853  0.15408  1.0000
  C   C2207     1.0  0.80567  0.35711  0.36594  1.0000
  H   H3735     1.0  0.85220  0.39072  0.54241  1.0000
  H   H3736     1.0  0.88636  0.40591  0.34994  1.0000
  H   H3737     1.0  0.98943  0.48668  0.24182  1.0000
  C   C2208     1.0  0.93491  0.41457  0.37239  1.0000
  H   H3738     1.0  0.98050  0.47210  0.53310  1.0000
  H   H3739     1.0  0.96611  0.48673  0.94805  1.0000
  H   H3740     1.0  0.82856  0.34756  0.69769  1.0000
  H   H3741     1.0  0.97605  0.49009  0.52661  1.0000
  C   C2209     1.0  0.90436  0.42743  0.65997  1.0000
  H   H3742     1.0  0.89031  0.41754  0.28364  1.0000
  H   H3743     1.0  0.83589  0.38048  0.55296  1.0000
  C   C2210     1.0  0.96934  0.48548  0.91845  1.0000
  H   H3744     1.0  0.75810  0.35629  0.90255  1.0000
  H   H3745     1.0  0.84653  0.43860  0.69009  1.0000
  H   H3746     1.0  0.78457  0.40264  0.16709  1.0000
  C   C2211     1.0  0.82576  0.44252  0.64781  1.0000
  C   C2212     1.0  0.84230  0.41995  0.69737  1.0000
  S   S642      1.0  0.80569  0.40510  0.14159  1.0000
  H   H3747     1.0  0.90106  0.43310  0.64444  1.0000
  C   C2213     1.0  0.92520  0.42411  0.43599  1.0000
  H   H3748     1.0  0.95446  0.47357  0.81498  1.0000
  C   C2214     1.0  0.95623  0.44089  0.83637  1.0000
  C   C2215     1.0  0.87038  0.35340  0.44945  1.0000
  H   H3749     1.0  0.98288  0.45628  0.78982  1.0000
  H   H3750     1.0  0.91207  0.42884  0.63999  1.0000
  H   H3751     1.0  0.84898  0.40363  0.33140  1.0000
  C   C2216     1.0  0.84762  0.39586  0.77324  1.0000
  Fe  Fe324     1.0  0.79176  0.38031  0.27924  1.0000
  H   H3752     1.0  0.93428  0.41150  0.40511  1.0000
  C   C2217     1.0  0.95482  0.45813  0.82528  1.0000
  H   H3753     1.0  0.95865  0.43545  0.82160  1.0000
  H   H3754     1.0  0.92500  0.42914  0.35216  1.0000
  C   C2218     1.0  0.88791  0.38396  0.34929  1.0000
  C   C2219     1.0  0.85414  0.41108  0.31806  1.0000
  C   C2220     1.0  0.88028  0.36079  0.95152  1.0000
  H   H3755     1.0  0.75651  0.36149  0.36644  1.0000
  H   H3756     1.0  0.90012  0.35884  0.94523  1.0000
  H   H3757     1.0  0.96861  0.49147  0.81571  1.0000
  H   H3758     1.0  0.88721  0.38693  0.37450  1.0000
  N   N155      1.0  0.95815  0.45081  0.80455  1.0000
  C   C2221     1.0  0.94209  0.42491  0.35240  1.0000
  H   H3759     1.0  0.94391  0.42662  0.31857  1.0000
  H   H3760     1.0  0.94898  0.42391  0.35902  1.0000
  C   C2222     1.0  0.97054  0.42252  0.83465  1.0000
  H   H3761     1.0  0.77229  0.34064  0.10879  1.0000
  H   H3762     1.0  0.85429  0.41445  0.34252  1.0000
  H   H3763     1.0  0.96208  0.44887  0.34504  1.0000
  H   H3764     1.0  0.00044  0.47836  0.82855  1.0000
  C   C2223     1.0  0.79700  0.40397  0.11559  1.0000
  H   H3765     1.0  0.87621  0.41849  0.32891  1.0000
  H   H3766     1.0  0.96932  0.41393  0.31989  1.0000
  H   H3767     1.0  0.86583  0.41037  0.36914  1.0000
  N   N156      1.0  0.93874  0.43333  0.36499  1.0000
  H   H3768     1.0  0.79836  0.37849  0.19263  1.0000
  H   H3769     1.0  0.97873  0.47369  0.88017  1.0000
  C   C2224     1.0  0.83235  0.42155  0.72026  1.0000
  C   C2225     1.0  0.96968  0.42165  0.30568  1.0000
  H   H3770     1.0  0.95037  0.46848  0.78003  1.0000
  H   H3771     1.0  0.95055  0.44363  0.31218  1.0000
  C   C2226     1.0  0.95590  0.46855  0.79638  1.0000
  C   C2227     1.0  0.89748  0.38410  0.80745  1.0000
  H   H3772     1.0  0.95392  0.44229  0.39550  1.0000
  H   H3773     1.0  0.94959  0.43378  0.78067  1.0000
  C   C2228     1.0  0.80486  0.37748  0.13079  1.0000
  H   H3774     1.0  0.93071  0.45095  0.34933  1.0000
  C   C2229     1.0  0.92566  0.44350  0.35959  1.0000
  H   H3775     1.0  0.97914  0.46744  0.77618  1.0000
  H   H3776     1.0  0.77502  0.42878  0.31495  1.0000
  H   H3777     1.0  0.86869  0.41875  0.27794  1.0000
  C   C2230     1.0  0.96882  0.45424  0.77779  1.0000
  H   H3778     1.0  0.94377  0.44780  0.79616  1.0000
  H   H3779     1.0  0.80588  0.35911  0.33333  1.0000
  H   H3780     1.0  0.97151  0.44790  0.77054  1.0000
  Fe  Fe325     1.0  0.84289  0.34745  0.45194  1.0000
  H   H3781     1.0  0.92196  0.44120  0.39306  1.0000
  C   C2231     1.0  0.86453  0.41087  0.29319  1.0000
  H   H3782     1.0  0.86832  0.39059  0.35871  1.0000
  C   C2232     1.0  0.98626  0.47848  0.87045  1.0000
  H   H3783     1.0  0.87291  0.39703  0.58061  1.0000
  H   H3784     1.0  0.91985  0.44432  0.34481  1.0000
  C   C2233     1.0  0.94744  0.44228  0.34573  1.0000
  H   H3785     1.0  0.76180  0.37711  0.88122  1.0000
  C   C2234     1.0  0.95291  0.44129  0.75789  1.0000
  S   S643      1.0  0.80614  0.39176  0.25140  1.0000
  N   N157      1.0  0.87013  0.40517  0.31709  1.0000
  H   H3786     1.0  0.94518  0.44911  0.34865  1.0000
  C   C2235     1.0  0.95174  0.44948  0.77808  1.0000
  H   H3787     1.0  0.96341  0.47176  0.77397  1.0000
  H   H3788     1.0  0.95319  0.45644  0.75250  1.0000
  H   H3789     1.0  0.86371  0.40797  0.26787  1.0000
  H   H3790     1.0  0.95935  0.43574  0.36206  1.0000
  C   C2236     1.0  0.87264  0.41050  0.34563  1.0000
  H   H3791     1.0  0.88098  0.41120  0.38769  1.0000
  C   C2237     1.0  0.89762  0.38346  0.28384  1.0000
  C   C2238     1.0  0.89224  0.36403  0.01225  1.0000
  H   H3792     1.0  0.91044  0.36896  0.87671  1.0000
  C   C2239     1.0  0.86403  0.39486  0.34241  1.0000
  C   C2240     1.0  0.93554  0.43109  0.41084  1.0000
  H   H3793     1.0  0.92079  0.42175  0.41764  1.0000
  C   C2241     1.0  0.84011  0.39667  0.42088  1.0000
  H   H3794     1.0  0.94885  0.44193  0.73530  1.0000
  C   C2242     1.0  0.77563  0.41037  0.34963  1.0000
  H   H3795     1.0  0.88802  0.34910  0.05524  1.0000
  H   H3796     1.0  0.92080  0.42782  0.45519  1.0000
  H   H3797     1.0  0.96957  0.45953  0.74751  1.0000
  C   C2243     1.0  0.87931  0.40446  0.28723  1.0000
  C   C2244     1.0  0.96743  0.42336  0.76005  1.0000
  C   C2245     1.0  0.86007  0.38847  0.31878  1.0000
  H   H3798     1.0  0.85822  0.38694  0.77038  1.0000
  Fe  Fe326     1.0  0.77951  0.39551  0.27798  1.0000
  H   H3799     1.0  0.92589  0.41732  0.45739  1.0000
  H   H3800     1.0  0.87698  0.38882  0.86304  1.0000
  S   S644      1.0  0.82423  0.34242  0.34433  1.0000
  H   H3801     1.0  0.98359  0.48801  0.92696  1.0000
  H   H3802     1.0  0.90444  0.38587  0.25858  1.0000
  S   S645      1.0  0.78145  0.39085  0.88777  1.0000
  H   H3803     1.0  0.98905  0.47575  0.89656  1.0000
  C   C2246     1.0  0.97686  0.43909  0.29357  1.0000
  C   C2247     1.0  0.88723  0.41428  0.26328  1.0000
  H   H3804     1.0  0.91048  0.50022  0.20924  1.0000
  C   C2248     1.0  0.77908  0.43468  0.32326  1.0000
  H   H3805     1.0  0.84826  0.42284  0.70856  1.0000
  H   H3806     1.0  0.83566  0.39984  0.40340  1.0000
  H   H3807     1.0  0.77446  0.37730  0.12208  1.0000
  C   C2249     1.0  0.89300  0.37848  0.78688  1.0000
  S   S646      1.0  0.79144  0.39062  0.96104  1.0000
  H   H3808     1.0  0.84663  0.38726  0.64885  1.0000
  H   H3809     1.0  0.98155  0.43413  0.73239  1.0000
  C   C2250     1.0  0.76355  0.35206  0.82633  1.0000
  C   C2251     1.0  0.78298  0.40018  0.07643  1.0000
  H   H3810     1.0  0.88524  0.35627  0.94118  1.0000
  H   H3811     1.0  0.88648  0.36953  0.47278  1.0000
  C   C2252     1.0  0.86502  0.39331  0.58846  1.0000
  H   H3812     1.0  0.78203  0.34959  0.91408  1.0000
  H   H3813     1.0  0.96632  0.42358  0.73102  1.0000
  S   S647      1.0  0.77391  0.39681  0.05480  1.0000
  H   H3814     1.0  0.93695  0.48105  0.79196  1.0000
  C   C2253     1.0  0.90232  0.36689  0.94020  1.0000
  H   H3815     1.0  0.82703  0.42758  0.65798  1.0000
  H   H3816     1.0  0.81143  0.42455  0.70953  1.0000
  H   H3817     1.0  0.88441  0.41979  0.24427  1.0000
  H   H3818     1.0  0.87745  0.40142  0.26375  1.0000
  H   H3819     1.0  0.98537  0.41413  0.13764  1.0000
  C   C2254     1.0  0.75912  0.38866  0.23662  1.0000
  H   H3820     1.0  0.84172  0.41188  0.70382  1.0000
  H   H3821     1.0  0.85578  0.38113  0.34100  1.0000
  H   H3822     1.0  0.82648  0.37533  0.34214  1.0000
  H   H3823     1.0  0.98864  0.49556  0.79827  1.0000
  Fe  Fe327     1.0  0.83833  0.36577  0.40577  1.0000
  H   H3824     1.0  0.82531  0.44799  0.66441  1.0000
  C   C2255     1.0  0.97606  0.42933  0.76074  1.0000
  Fe  Fe328     1.0  0.76898  0.39535  0.92521  1.0000
  H   H3825     1.0  0.76235  0.36118  0.99194  1.0000
  S   S648      1.0  0.78550  0.38742  0.32547  1.0000
  C   C2256     1.0  0.83970  0.38656  0.43012  1.0000
  C   C2257     1.0  0.82165  0.37535  0.32270  1.0000
  H   H3826     1.0  0.84449  0.42335  0.66371  1.0000
  C   C2258     1.0  0.97633  0.42907  0.31138  1.0000
  C   C2259     1.0  0.78718  0.37506  0.14186  1.0000
  H   H3827     1.0  0.86608  0.38714  0.29583  1.0000
  H   H3828     1.0  0.96788  0.39500  0.20877  1.0000
  H   H3829     1.0  0.95882  0.50394  0.37541  1.0000
  C   C2260     1.0  0.87988  0.37704  0.34919  1.0000
  H   H3830     1.0  0.83969  0.43642  0.74206  1.0000
  H   H3831     1.0  0.97804  0.39748  0.10703  1.0000
  H   H3832     1.0  0.89119  0.38126  0.02564  1.0000
  H   H3833     1.0  0.99292  0.43927  0.56695  1.0000
  S   S649      1.0  0.95381  0.50516  0.12883  1.0000
  Fe  Fe329     1.0  0.00016  0.44861  0.74938  1.0000
  H   H3834     1.0  0.90131  0.38584  0.93291  1.0000
  H   H3835     1.0  0.84460  0.37464  0.46235  1.0000
  H   H3836     1.0  0.94044  0.49857  0.78810  1.0000
  H   H3837     1.0  0.87670  0.36267  0.92745  1.0000
  C   C2261     1.0  0.83085  0.43430  0.66281  1.0000
  S   S650      1.0  0.86023  0.37689  0.70410  1.0000
  C   C2262     1.0  0.87705  0.38029  0.82136  1.0000
  Fe  Fe330     1.0  0.86214  0.36628  0.75838  1.0000
  H   H3838     1.0  0.80502  0.36797  0.07665  1.0000
  C   C2263     1.0  0.98804  0.48914  0.47564  1.0000
  C   C2264     1.0  0.83936  0.43883  0.71025  1.0000
  C   C2265     1.0  0.88963  0.37638  0.28417  1.0000
  H   H3839     1.0  0.81177  0.37566  0.11557  1.0000
  H   H3840     1.0  0.82203  0.43074  0.76717  1.0000
  H   H3841     1.0  0.80542  0.38631  0.05099  1.0000
  H   H3842     1.0  0.98099  0.42704  0.32979  1.0000
  S   S651      1.0  0.78479  0.38741  0.23448  1.0000
  H   H3843     1.0  0.78919  0.38324  0.12734  1.0000
  H   H3844     1.0  0.84980  0.37061  0.54985  1.0000
  C   C2266     1.0  0.82140  0.43210  0.73594  1.0000
  C   C2267     1.0  0.88276  0.37657  0.79340  1.0000
  C   C2268     1.0  0.98126  0.39990  0.12901  1.0000
  H   H3845     1.0  0.89753  0.37560  0.76557  1.0000
  Fe  Fe331     1.0  0.78054  0.38019  0.94748  1.0000
  S   S652      1.0  0.76727  0.38373  0.98379  1.0000
  C   C2269     1.0  0.77470  0.34911  0.93324  1.0000
  C   C2270     1.0  0.91427  0.50584  0.73875  1.0000
  C   C2271     1.0  0.81214  0.42449  0.73975  1.0000
  H   H3846     1.0  0.79025  0.34899  0.38204  1.0000
  C   C2272     1.0  0.94546  0.50178  0.10386  1.0000
  H   H3847     1.0  0.98136  0.47154  0.33104  1.0000
  H   H3848     1.0  0.81205  0.41691  0.75769  1.0000
  H   H3849     1.0  0.80550  0.42630  0.75720  1.0000
  H   H3850     1.0  0.83850  0.43639  0.64131  1.0000
  H   H3851     1.0  0.82655  0.41607  0.71677  1.0000
  H   H3852     1.0  0.81780  0.36414  0.40249  1.0000
  H   H3853     1.0  0.86917  0.37879  0.82728  1.0000
  H   H3854     1.0  0.78642  0.42504  0.43182  1.0000
  C   C2273     1.0  0.97767  0.42890  0.79813  1.0000
  N   N158      1.0  0.83092  0.43190  0.70656  1.0000
  S   S653      1.0  0.79154  0.36413  0.29726  1.0000
  S   S654      1.0  0.99682  0.44532  0.47938  1.0000
  C   C2274     1.0  0.81099  0.37516  0.34608  1.0000
  N   N159      1.0  0.92982  0.50314  0.75855  1.0000
  H   H3855     1.0  0.80056  0.36513  0.88223  1.0000
  H   H3856     1.0  0.79164  0.36782  0.37114  1.0000
  C   C2275     1.0  0.77998  0.40037  0.11681  1.0000
  H   H3857     1.0  0.81621  0.36734  0.76903  1.0000
  H   H3858     1.0  0.81976  0.43946  0.72864  1.0000
  C   C2276     1.0  0.81029  0.36522  0.41401  1.0000
  N   N160      1.0  0.87808  0.35612  0.46872  1.0000
  H   H3859     1.0  0.87303  0.37474  0.37414  1.0000
  C   C2277     1.0  0.89271  0.35864  0.40428  1.0000
  C   C2278     1.0  0.88074  0.37310  0.31693  1.0000
  C   C2279     1.0  0.84664  0.35704  0.53586  1.0000
  N   N161      1.0  0.79590  0.37080  0.12903  1.0000
  H   H3860     1.0  0.80563  0.38538  0.11379  1.0000
  N   N162      1.0  0.80533  0.36589  0.38156  1.0000
  C   C2280     1.0  0.99131  0.46866  0.56275  1.0000
  H   H3861     1.0  0.82478  0.38235  0.29657  1.0000
  H   H3862     1.0  0.82994  0.44677  0.61515  1.0000
  C   C2281     1.0  0.83934  0.44986  0.69974  1.0000
  H   H3863     1.0  0.84564  0.45383  0.70650  1.0000
  H   H3864     1.0  0.84057  0.45328  0.66661  1.0000
  S   S655      1.0  0.87753  0.36946  0.76626  1.0000
  C   C2282     1.0  0.77157  0.35332  0.24847  1.0000
  S   S656      1.0  0.87104  0.36390  0.31686  1.0000
  H   H3865     1.0  0.79647  0.37924  0.85537  1.0000
  C   C2283     1.0  0.78341  0.43073  0.35782  1.0000
  H   H3866     1.0  0.81310  0.34835  0.94506  1.0000
  H   H3867     1.0  0.95424  0.40810  0.16466  1.0000
  H   H3868     1.0  0.92807  0.49223  0.81606  1.0000
  Fe  Fe332     1.0  0.99669  0.45179  0.33128  1.0000
  H   H3869     1.0  0.81134  0.38336  0.17105  1.0000
  H   H3870     1.0  0.89805  0.36998  0.88387  1.0000
  H   H3871     1.0  0.81296  0.34790  0.89600  1.0000
  H   H3872     1.0  0.80101  0.37924  0.02229  1.0000
  C   C2284     1.0  0.95673  0.39409  0.16348  1.0000
  H   H3873     1.0  0.79234  0.38281  0.05794  1.0000
  H   H3874     1.0  0.81710  0.34807  0.78121  1.0000
  H   H3875     1.0  0.80773  0.35877  0.47914  1.0000
  Fe  Fe333     1.0  0.85218  0.36380  0.69215  1.0000
  H   H3876     1.0  0.94073  0.48854  0.73966  1.0000
  H   H3877     1.0  0.99076  0.47913  0.80536  1.0000
  S   S657      1.0  0.85196  0.36306  0.42008  1.0000
  H   H3878     1.0  0.95293  0.39082  0.19702  1.0000
  H   H3879     1.0  0.87413  0.37971  0.46571  1.0000
  H   H3880     1.0  0.79576  0.34511  0.42187  1.0000
  H   H3881     1.0  0.79833  0.42403  0.43524  1.0000
  H   H3882     1.0  0.81260  0.35478  0.36593  1.0000
  H   H3883     1.0  0.77710  0.42734  0.38679  1.0000
  C   C2285     1.0  0.96070  0.40541  0.15105  1.0000
  H   H3884     1.0  0.79619  0.37452  0.44164  1.0000
  H   H3885     1.0  0.96275  0.41937  0.19034  1.0000
  C   C2286     1.0  0.89947  0.38076  0.96451  1.0000
  C   C2287     1.0  0.97897  0.40975  0.13284  1.0000
  H   H3886     1.0  0.97634  0.47555  0.39074  1.0000
  H   H3887     1.0  0.97927  0.41404  0.10153  1.0000
  C   C2288     1.0  0.97639  0.40607  0.22430  1.0000
  S   S658      1.0  0.82893  0.34101  0.83282  1.0000
  H   H3888     1.0  0.95109  0.39254  0.14848  1.0000
  H   H3889     1.0  0.99395  0.47146  0.58529  1.0000
  H   H3890     1.0  0.78848  0.40778  0.36594  1.0000
  H   H3891     1.0  0.96237  0.40840  0.11722  1.0000
  H   H3892     1.0  0.97619  0.41322  0.23027  1.0000
  H   H3893     1.0  0.98383  0.40644  0.20456  1.0000
  C   C2289     1.0  0.80362  0.43560  0.28791  1.0000
  C   C2290     1.0  0.96826  0.40286  0.20646  1.0000
  N   N163      1.0  0.98631  0.48929  0.86295  1.0000
  C   C2291     1.0  0.96900  0.42701  0.12551  1.0000
  H   H3894     1.0  0.88678  0.34557  0.45690  1.0000
  H   H3895     1.0  0.97656  0.49947  0.27058  1.0000
  C   C2292     1.0  0.99241  0.47593  0.83387  1.0000
  C   C2293     1.0  0.76297  0.37150  0.86535  1.0000
  H   H3896     1.0  0.79713  0.35552  0.46571  1.0000
  H   H3897     1.0  0.96851  0.43416  0.13122  1.0000
  N   N164      1.0  0.96937  0.40917  0.16373  1.0000
  H   H3898     1.0  0.79244  0.36499  0.08216  1.0000
  H   H3899     1.0  0.96246  0.39024  0.15382  1.0000
  S   S659      1.0  0.85471  0.36607  0.62396  1.0000
  C   C2294     1.0  0.89105  0.35276  0.02151  1.0000
  H   H3900     1.0  0.97581  0.42296  0.17169  1.0000
  C   C2295     1.0  0.79700  0.42440  0.37557  1.0000
  H   H3901     1.0  0.98942  0.48066  0.37415  1.0000
  H   H3902     1.0  0.81804  0.38567  0.89743  1.0000
  H   H3903     1.0  0.80158  0.43213  0.36537  1.0000
  H   H3904     1.0  0.78996  0.41335  0.43693  1.0000
  H   H3905     1.0  0.93503  0.50024  0.70089  1.0000
  H   H3906     1.0  0.86519  0.36910  0.47027  1.0000
  H   H3907     1.0  0.97506  0.40050  0.25454  1.0000
  C   C2296     1.0  0.79251  0.42152  0.42255  1.0000
  C   C2297     1.0  0.78365  0.41300  0.36877  1.0000
  C   C2298     1.0  0.78380  0.35623  0.28204  1.0000
  C   C2299     1.0  0.75545  0.35773  0.82359  1.0000
  N   N165      1.0  0.78978  0.42357  0.35204  1.0000
  H   H3908     1.0  0.77962  0.41095  0.40203  1.0000
  H   H3909     1.0  0.80228  0.41977  0.36946  1.0000
  H   H3910     1.0  0.98142  0.47289  0.22374  1.0000
  H   H3911     1.0  0.89829  0.35101  0.01137  1.0000
  H   H3912     1.0  0.98938  0.40098  0.11746  1.0000
  H   H3913     1.0  0.86758  0.35342  0.52860  1.0000
  H   H3914     1.0  0.90625  0.50378  0.75570  1.0000
  H   H3915     1.0  0.81818  0.36578  0.92448  1.0000
  H   H3916     1.0  0.83020  0.39228  0.86472  1.0000
  H   H3917     1.0  0.79963  0.41973  0.30461  1.0000
  H   H3918     1.0  0.92788  0.48230  0.76710  1.0000
  C   C2300     1.0  0.79487  0.36678  0.39655  1.0000
  H   H3919     1.0  0.80702  0.37645  0.32309  1.0000
  H   H3920     1.0  0.78757  0.43744  0.36165  1.0000
  H   H3921     1.0  0.81159  0.38183  0.35630  1.0000
  C   C2301     1.0  0.98263  0.49354  0.82788  1.0000
  H   H3922     1.0  0.97620  0.48415  0.79692  1.0000
  C   C2302     1.0  0.80515  0.37727  0.17400  1.0000
  H   H3923     1.0  0.76369  0.37508  0.83304  1.0000
  H   H3924     1.0  0.82623  0.36194  0.88778  1.0000
  H   H3925     1.0  0.91885  0.49236  0.75054  1.0000
  H   H3926     1.0  0.87169  0.35924  0.41993  1.0000
  H   H3927     1.0  0.97714  0.49760  0.32053  1.0000
  H   H3928     1.0  0.79094  0.42551  0.28815  1.0000
  H   H3929     1.0  0.80371  0.35247  0.92630  1.0000
  H   H3930     1.0  0.89805  0.36647  0.02538  1.0000
  H   H3931     1.0  0.77018  0.36999  0.86658  1.0000
  H   H3932     1.0  0.98405  0.46869  0.27036  1.0000
  S   S660      1.0  0.83733  0.36403  0.73124  1.0000
  H   H3933     1.0  0.81175  0.37233  0.42074  1.0000
  H   H3934     1.0  0.87999  0.37244  0.97793  1.0000
  H   H3935     1.0  0.89637  0.36658  0.39687  1.0000
  H   H3936     1.0  0.79018  0.35027  0.12576  1.0000
  C   C2303     1.0  0.87181  0.37149  0.47859  1.0000
  H   H3937     1.0  0.81025  0.43510  0.29759  1.0000
  H   H3938     1.0  0.88530  0.36503  0.03137  1.0000
  H   H3939     1.0  0.77201  0.36592  0.16235  1.0000
  H   H3940     1.0  0.79705  0.38261  0.39185  1.0000
  C   C2304     1.0  0.98706  0.47625  0.53772  1.0000
  H   H3941     1.0  0.98183  0.48874  0.36685  1.0000
  C   C2305     1.0  0.78734  0.35192  0.15471  1.0000
  H   H3942     1.0  0.76678  0.35606  0.23199  1.0000
  H   H3943     1.0  0.77852  0.36722  0.11028  1.0000
  H   H3944     1.0  0.98389  0.48024  0.55880  1.0000
  H   H3945     1.0  0.82858  0.38085  0.90289  1.0000
  H   H3946     1.0  0.90661  0.38112  0.97101  1.0000
  H   H3947     1.0  0.78997  0.35991  0.42032  1.0000
  H   H3948     1.0  0.88756  0.35805  0.38642  1.0000
  H   H3949     1.0  0.98667  0.50062  0.50632  1.0000
  C   C2306     1.0  0.79712  0.34774  0.38847  1.0000
  H   H3950     1.0  0.78550  0.37488  0.42591  1.0000
  S   S661      1.0  0.99849  0.48419  0.71564  1.0000
  S   S662      1.0  0.85522  0.35297  0.74318  1.0000
  H   H3951     1.0  0.98879  0.46395  0.49082  1.0000
  C   C2307     1.0  0.88561  0.37046  0.95554  1.0000
  C   C2308     1.0  0.75551  0.39147  0.27135  1.0000
  H   H3952     1.0  0.90941  0.36804  0.94706  1.0000
  S   S663      1.0  0.84748  0.34265  0.39531  1.0000
  N   N166      1.0  0.89476  0.37029  0.96798  1.0000
  C   C2309     1.0  0.84980  0.34804  0.60965  1.0000
  C   C2310     1.0  0.79449  0.36059  0.15807  1.0000
  C   C2311     1.0  0.81159  0.35235  0.91704  1.0000
  H   H3953     1.0  0.87450  0.35623  0.98086  1.0000
  H   H3954     1.0  0.96778  0.47735  0.92493  1.0000
  N   N167      1.0  0.99403  0.48353  0.49778  1.0000
  H   H3955     1.0  0.99165  0.48149  0.30683  1.0000
  H   H3956     1.0  1.00000  0.49167  0.87744  1.0000
  C   C2312     1.0  0.99122  0.50148  0.27545  1.0000
  H   H3957     1.0  0.80088  0.44185  0.29528  1.0000
  C   C2313     1.0  0.77170  0.34332  0.25766  1.0000
  Fe  Fe334     1.0  0.94840  0.49998  0.19836  1.0000
  H   H3958     1.0  0.75447  0.38797  0.06133  1.0000
  H   H3959     1.0  0.80393  0.38643  0.87462  1.0000
  C   C2314     1.0  0.99928  0.44554  0.55329  1.0000
  H   H3960     1.0  0.98259  0.48407  0.46862  1.0000
  H   H3961     1.0  0.97833  0.49909  0.47838  1.0000
  H   H3962     1.0  0.76567  0.36968  0.32099  1.0000
  H   H3963     1.0  0.88315  0.37120  0.42753  1.0000
  C   C2315     1.0  0.99686  0.49488  0.85303  1.0000
  H   H3964     1.0  0.79896  0.34165  0.37657  1.0000
  Fe  Fe335     1.0  0.83408  0.34702  0.38129  1.0000
  H   H3965     1.0  0.77378  0.43896  0.33364  1.0000
  H   H3966     1.0  0.98780  0.47267  0.44589  1.0000
  C   C2316     1.0  0.84600  0.34688  0.54759  1.0000
  C   C2317     1.0  0.91932  0.49880  0.76222  1.0000
  H   H3967     1.0  0.77268  0.40220  0.36074  1.0000
  H   H3968     1.0  0.77301  0.34187  0.04720  1.0000
  C   C2318     1.0  0.93051  0.50293  0.08634  1.0000
  H   H3969     1.0  0.87277  0.34503  0.40571  1.0000
  H   H3970     1.0  0.99069  0.46776  0.84067  1.0000
  H   H3971     1.0  0.99535  0.49854  0.29601  1.0000
  H   H3972     1.0  0.00110  0.44573  0.61156  1.0000
  H   H3973     1.0  0.85130  0.34457  0.63742  1.0000
  H   H3974     1.0  0.81277  0.34321  0.28934  1.0000
  S   S664      1.0  0.75573  0.39859  0.90669  1.0000
  H   H3975     1.0  0.91534  0.50530  0.70745  1.0000
  H   H3976     1.0  0.95052  0.50506  0.72121  1.0000
  C   C2319     1.0  0.78393  0.34622  0.29120  1.0000
  C   C2320     1.0  0.00285  0.44995  0.51047  1.0000
  C   C2321     1.0  0.81245  0.34181  0.80717  1.0000
  H   H3977     1.0  0.75919  0.36526  0.80213  1.0000
  H   H3978     1.0  0.78664  0.34511  0.17978  1.0000
  C   C2322     1.0  0.00135  0.49100  0.50520  1.0000
  H   H3979     1.0  0.99916  0.50368  0.72227  1.0000
  H   H3980     1.0  0.76032  0.34728  0.06993  1.0000
  H   H3981     1.0  0.99740  0.50449  0.60589  1.0000
  C   C2323     1.0  0.86963  0.34355  0.43928  1.0000
  H   H3982     1.0  0.92302  0.50419  0.83957  1.0000
  H   H3983     1.0  0.92377  0.50540  0.09048  1.0000
  H   H3984     1.0  0.76043  0.34393  0.83997  1.0000
  H   H3985     1.0  0.98068  0.50062  0.82944  1.0000
  C   C2324     1.0  0.84754  0.34239  0.58478  1.0000
  H   H3986     1.0  0.00161  0.49416  0.82452  1.0000
  H   H3987     1.0  0.75535  0.37375  0.34330  1.0000
  H   H3988     1.0  0.75547  0.38189  0.19338  1.0000
  C   C2325     1.0  0.99868  0.50613  0.84633  1.0000
  H   H3989     1.0  0.00373  0.48412  0.43928  1.0000
  C   C2326     1.0  0.76690  0.34119  0.93931  1.0000
  H   H3990     1.0  0.75591  0.34046  0.12477  1.0000
  H   H3991     1.0  0.79977  0.34134  0.78602  1.0000
  H   H3992     1.0  0.00355  0.50253  0.35242  1.0000
  C   C2327     1.0  0.75460  0.36191  0.88832  1.0000
  C   C2328     1.0  0.75492  0.34363  0.35698  1.0000
  C   C2329     1.0  0.93599  0.50639  0.71411  1.0000
  H   H3993     1.0  0.96656  0.50647  0.42771  1.0000
  H   H3994     1.0  0.97807  0.51660  0.99081  1.0000
  C   C2330     1.0  0.97970  0.52140  0.31333  1.0000
  H   H3995     1.0  0.94369  0.52520  0.98615  1.0000
  H   H3996     1.0  0.98335  0.52571  0.28143  1.0000
  C   C2331     1.0  0.97782  0.51799  0.88791  1.0000
  S   S665      1.0  0.98436  0.51930  0.42377  1.0000
  H   H3997     1.0  0.93346  0.51234  0.69556  1.0000
  H   H3998     1.0  0.94687  0.51473  0.97194  1.0000
  C   C2332     1.0  0.98417  0.52279  0.34292  1.0000
  H   H3999     1.0  0.97849  0.51651  0.91823  1.0000
  C   C2333     1.0  0.97033  0.51058  0.39569  1.0000
  C   C2334     1.0  0.97598  0.53559  0.95529  1.0000
  C   C2335     1.0  0.97628  0.52130  0.80948  1.0000
  S   S666      1.0  0.99542  0.53198  0.86307  1.0000
  H   H4000     1.0  0.99034  0.53192  0.78905  1.0000
  C   C2336     1.0  0.96635  0.52298  0.02019  1.0000
  C   C2337     1.0  0.95959  0.52658  0.96134  1.0000
  C   C2338     1.0  0.94898  0.52044  0.98601  1.0000
  Fe  Fe336     1.0  0.99908  0.52756  0.42600  1.0000
  H   H4001     1.0  0.95886  0.53259  0.93631  1.0000
  H   H4002     1.0  0.94863  0.51743  0.71294  1.0000
  S   S667      1.0  0.96529  0.51331  0.28548  1.0000
  C   C2339     1.0  0.96857  0.51455  0.84307  1.0000
  N   N168      1.0  0.96562  0.53082  0.98435  1.0000
  H   H4003     1.0  0.94681  0.52967  0.04149  1.0000
  S   S668      1.0  0.00248  0.54093  0.44678  1.0000
  H   H4004     1.0  0.97931  0.53019  0.94281  1.0000
  H   H4005     1.0  0.95917  0.51957  0.04465  1.0000
  C   C2340     1.0  0.98463  0.52651  0.81511  1.0000
  C   C2341     1.0  0.96153  0.53876  0.99856  1.0000
  H   H4006     1.0  0.94808  0.51621  0.01781  1.0000
  H   H4007     1.0  0.93798  0.51401  0.77775  1.0000
  H   H4008     1.0  0.93472  0.50881  0.13097  1.0000
  C   C2342     1.0  0.97945  0.51747  0.38446  1.0000
  H   H4009     1.0  0.96744  0.54413  0.00213  1.0000
  H   H4010     1.0  0.96342  0.52205  0.94474  1.0000
  C   C2343     1.0  0.97711  0.54438  0.91735  1.0000
  H   H4011     1.0  0.99115  0.52813  0.33368  1.0000
  C   C2344     1.0  0.98539  0.52498  0.85445  1.0000
  H   H4012     1.0  0.98088  0.53828  0.97171  1.0000
  C   C2345     1.0  0.97025  0.51426  0.01037  1.0000
  C   C2346     1.0  0.96591  0.50911  0.36603  1.0000
  H   H4013     1.0  0.95025  0.54184  0.04416  1.0000
  H   H4014     1.0  0.91539  0.51000  0.81289  1.0000
  S   S669      1.0  0.95810  0.50837  0.83453  1.0000
  C   C2347     1.0  0.96942  0.51283  0.88235  1.0000
  H   H4015     1.0  0.97572  0.52267  0.77893  1.0000
  C   C2348     1.0  0.92294  0.51068  0.81506  1.0000
  H   H4016     1.0  0.97371  0.54197  0.89589  1.0000
  H   H4017     1.0  0.95095  0.51238  0.67171  1.0000
  H   H4018     1.0  0.97115  0.52637  0.03537  1.0000
  H   H4019     1.0  0.99174  0.50935  0.27387  1.0000
  H   H4020     1.0  0.92473  0.51730  0.82464  1.0000
  H   H4021     1.0  0.95881  0.54322  0.97512  1.0000
  H   H4022     1.0  0.99761  0.52947  0.64472  1.0000
  C   C2349     1.0  0.95311  0.53538  0.03985  1.0000
  H   H4023     1.0  0.96562  0.51026  0.99642  1.0000
  C   C2350     1.0  0.97053  0.51460  0.32458  1.0000
  H   H4024     1.0  0.99566  0.50997  0.82284  1.0000
  H   H4025     1.0  0.98509  0.54750  0.90002  1.0000
  H   H4026     1.0  0.97419  0.55048  0.92553  1.0000
  H   H4027     1.0  0.91690  0.51369  0.73613  1.0000
  H   H4028     1.0  0.95582  0.53262  0.06608  1.0000
  S   S670      1.0  0.00263  0.52966  0.56154  1.0000
  H   H4029     1.0  0.93027  0.51872  0.75096  1.0000
  C   C2351     1.0  0.94713  0.51051  0.70508  1.0000
  C   C2352     1.0  0.93063  0.51198  0.77378  1.0000
  S   S671      1.0  0.94290  0.50833  0.24128  1.0000
  H   H4030     1.0  0.96993  0.50885  0.03957  1.0000
  S   S672      1.0  0.00316  0.51797  0.47673  1.0000
  H   H4031     1.0  0.99582  0.50781  0.87521  1.0000
  H   H4032     1.0  0.96360  0.50756  0.90843  1.0000
