data_image0
_chemical_formula_structural       SFeS2Fe2SFeS3H2CNH2CH3C6H6C2H2CH2CHCH2CH2CHNC8H10CH9CHSC3H9CH6C2HCHCH2C2HFeS2FeS2Fe2S3FeS2FeS2FeHFeS3CHSH2CHCH2C6H4C3H3C2H2CHCH3NCH2NHC2HCH2CHCH4CH8CHC3NHC9H3CH5CH2CH3CH13CH6CH5FeS2FeS2FeSFeHS2CH4CHCH2C4SH3C6H4C4HCHCH4C2HCHC2HNH5C2HC3H4SH3CH4CH3CHNH2C3H3CH2CHNH4CH2C2H2CH5CHCHNC2H5CH4C4NHC2H2CH9CHCHCH3CH3CH2FeS2FeSCFeSFeS3FeS2FeS2FeSFeHS2C2H2CNC4H3CHCH2C6H4CH7CHC3H7CH3CH6CHCHC5NC8H20CHCH2SHNC2NH3CH3FeS2FeS2FeSFeS3FeS2FeS2FeSFeS3C2H3CH3C6H3C7H4C2H4CH3C6H3CHCHCH2CNCH2C3H6CHC3HC3H2CHCH4CHCH2CH5CH5NCH4CH5CHCNH2CH7SHCH2CHCH9FeS2FeS2FeSFeHS3FeS2FeS2FeSFeS2C6H4C2HC6H2CSHCHCH2CH2C6H9CH2C2H7NH5CH2C3NC6H6CH9CNH2CH3CH6CH2CH2C2HSH3CH3CHC2HCSCH4FeS2FeSFeSFeS3FeS2HSFeSFeS3C3H2C6H4C2HCH3CNHC2H6CH3CHCNC8H23CH2C2H5NHC2HCH2CH2CH2CH2C4FeH7CH2CH3CH11CH3C4HCHC3HNHFeS2Fe2CFeS3H2C2H2C2HC6H4CH2SH3C2H5CH2SH2CNHCH2C3H2SHCH2CH6CH2CSNH3CHCH2CHCH2CH2C2H5FeSFeS2FeSFeS3FeS2FeS2FeHFeS3HCHC5HC6H7C2HCH3CHSH5CH5NC8H21C2HCH3CH5CHCH2C2HNHC2H2C3H6CH2CH2CNH4C3HFeS2FeS2FeSFeS3C2H5CH5CHC7H4C3H7CHCH5C2HCH3CH3CHCHCH4C2H2CHCH2CHCH3C2HNHNHCH2CH2CNCHCH2CH2C2H
_chemical_formula_sum              "S128 Fe64 H768 C448 N32"
_cell_length_a       46.1949
_cell_length_b       46.1592
_cell_length_c       39.5693
_cell_angle_alpha    92.4333
_cell_angle_beta     87.5022
_cell_angle_gamma    122.841

_space_group_name_H-M_alt    "P 1"
_space_group_IT_number       1

loop_
  _space_group_symop_operation_xyz
  'x, y, z'

loop_
  _atom_site_type_symbol
  _atom_site_label
  _atom_site_symmetry_multiplicity
  _atom_site_fract_x
  _atom_site_fract_y
  _atom_site_fract_z
  _atom_site_occupancy
  S   S1        1.0  0.33500  0.18518  0.29960  1.0000
  Fe  Fe1       1.0  0.30097  0.13808  0.09986  1.0000
  S   S2        1.0  0.32531  0.19360  0.08744  1.0000
  S   S3        1.0  0.28517  0.11531  0.15285  1.0000
  Fe  Fe2       1.0  0.29886  0.11637  0.02525  1.0000
  Fe  Fe3       1.0  0.36015  0.18619  0.05151  1.0000
  S   S4        1.0  0.41610  0.23254  0.05487  1.0000
  Fe  Fe4       1.0  0.28799  0.17560  0.04465  1.0000
  S   S5        1.0  0.26109  0.20548  0.04034  1.0000
  S   S6        1.0  0.33761  0.13119  0.06624  1.0000
  S   S7        1.0  0.26063  0.11982  0.05980  1.0000
  H   H1        1.0  0.44505  0.23792  0.24607  1.0000
  H   H2        1.0  0.42927  0.15441  0.30419  1.0000
  C   C1        1.0  0.46159  0.21539  0.02655  1.0000
  N   N1        1.0  0.44668  0.22450  0.29750  1.0000
  H   H3        1.0  0.23566  0.02169  0.02947  1.0000
  H   H4        1.0  0.47965  0.20473  0.28700  1.0000
  C   C2        1.0  0.43011  0.21595  0.26344  1.0000
  H   H5        1.0  0.35324  0.21273  0.23297  1.0000
  H   H6        1.0  0.41280  0.18045  0.22031  1.0000
  H   H7        1.0  0.08239  0.23287  0.01232  1.0000
  C   C3        1.0  0.32246  0.16465  0.25899  1.0000
  C   C4        1.0  0.29956  0.12904  0.25477  1.0000
  C   C5        1.0  0.28932  0.11430  0.22202  1.0000
  C   C6        1.0  0.30198  0.13484  0.19309  1.0000
  C   C7        1.0  0.32563  0.17037  0.19727  1.0000
  C   C8        1.0  0.33561  0.18514  0.23002  1.0000
  H   H8        1.0  0.28920  0.11292  0.27674  1.0000
  H   H9        1.0  0.27095  0.08681  0.21914  1.0000
  H   H10       1.0  0.33552  0.18656  0.17534  1.0000
  H   H11       1.0  0.22975  0.11605  0.20007  1.0000
  H   H12       1.0  0.45264  0.33762  0.99529  1.0000
  H   H13       1.0  0.44910  0.17173  0.11587  1.0000
  C   C9        1.0  0.42468  0.18339  0.24509  1.0000
  C   C10       1.0  0.23515  0.00951  0.00534  1.0000
  H   H14       1.0  0.13196  0.20043  0.06718  1.0000
  H   H15       1.0  0.33020  0.25474  0.00368  1.0000
  C   C11       1.0  0.23481  0.24193  0.01606  1.0000
  H   H16       1.0  0.03048  0.19334  0.99728  1.0000
  H   H17       1.0  0.20016  0.12876  0.08541  1.0000
  C   C12       1.0  0.98716  0.24079  0.01131  1.0000
  H   H18       1.0  0.43686  0.19971  0.13534  1.0000
  C   C13       1.0  0.03099  0.16961  0.99547  1.0000
  H   H19       1.0  0.16985  0.13826  0.17671  1.0000
  H   H20       1.0  0.23455  0.24939  0.04229  1.0000
  C   C14       1.0  0.02251  0.26564  0.00492  1.0000
  H   H21       1.0  0.48037  0.22394  0.17385  1.0000
  H   H22       1.0  0.39559  0.18479  0.31642  1.0000
  C   C15       1.0  0.45908  0.19832  0.12579  1.0000
  H   H23       1.0  0.13775  0.17514  0.03614  1.0000
  N   N2        1.0  0.22135  0.16108  0.15428  1.0000
  C   C16       1.0  0.20740  0.12523  0.13956  1.0000
  C   C17       1.0  0.24592  0.16715  0.18162  1.0000
  C   C18       1.0  0.24102  0.18607  0.12616  1.0000
  C   C19       1.0  0.19153  0.16360  0.16733  1.0000
  C   C20       1.0  0.18462  0.11517  0.10832  1.0000
  C   C21       1.0  0.23102  0.13976  0.20936  1.0000
  C   C22       1.0  0.26093  0.22479  0.13551  1.0000
  C   C23       1.0  0.19878  0.18985  0.19653  1.0000
  H   H24       1.0  0.22888  0.12165  0.13222  1.0000
  H   H25       1.0  0.16365  0.11993  0.11260  1.0000
  H   H26       1.0  0.25624  0.19249  0.19473  1.0000
  H   H27       1.0  0.26906  0.16844  0.17024  1.0000
  H   H28       1.0  0.25993  0.18078  0.11393  1.0000
  H   H29       1.0  0.22350  0.18264  0.10580  1.0000
  H   H30       1.0  0.18052  0.16982  0.14641  1.0000
  H   H31       1.0  0.40631  0.15991  0.25939  1.0000
  H   H32       1.0  0.40406  0.21187  0.26583  1.0000
  H   H33       1.0  0.47457  0.18333  0.16801  1.0000
  C   C24       1.0  0.45575  0.31711  0.00418  1.0000
  H   H34       1.0  0.13675  0.39190  0.00665  1.0000
  H   H35       1.0  0.20505  0.13268  0.21857  1.0000
  H   H36       1.0  0.13712  0.28720  0.00957  1.0000
  H   H37       1.0  0.24316  0.23364  0.14080  1.0000
  H   H38       1.0  0.27694  0.23934  0.11313  1.0000
  H   H39       1.0  0.27903  0.23210  0.15638  1.0000
  H   H40       1.0  0.20295  0.18145  0.22068  1.0000
  H   H41       1.0  0.17587  0.19166  0.20078  1.0000
  H   H42       1.0  0.15942  0.26785  0.99366  1.0000
  C   C25       1.0  0.24712  0.22043  0.00736  1.0000
  H   H43       1.0  0.03631  0.28717  0.02248  1.0000
  S   S8        1.0  0.32430  0.17155  0.00795  1.0000
  C   C26       1.0  0.09721  0.18449  0.02492  1.0000
  C   C27       1.0  0.13267  0.19603  0.03941  1.0000
  C   C28       1.0  0.45209  0.25848  0.30986  1.0000
  H   H44       1.0  0.13959  0.25868  0.03612  1.0000
  H   H45       1.0  0.44229  0.30776  0.02908  1.0000
  H   H46       1.0  0.02892  0.15986  0.02116  1.0000
  H   H47       1.0  0.19141  0.10525  0.15865  1.0000
  H   H48       1.0  0.43916  0.19087  0.01899  1.0000
  H   H49       1.0  0.46827  0.27927  0.29160  1.0000
  H   H50       1.0  0.44921  0.18492  0.23984  1.0000
  H   H51       1.0  0.38032  0.25228  0.01375  1.0000
  H   H52       1.0  0.10948  0.41896  0.99302  1.0000
  C   C29       1.0  0.45737  0.23966  0.04457  1.0000
  H   H53       1.0  0.24844  0.14992  0.23127  1.0000
  H   H54       1.0  0.22098  0.21612  0.19132  1.0000
  H   H55       1.0  0.40697  0.25744  0.29155  1.0000
  H   H56       1.0  0.08324  0.19098  0.04433  1.0000
  H   H57       1.0  0.17246  0.08717  0.10268  1.0000
  H   H58       1.0  0.47009  0.21632  0.10458  1.0000
  C   C30       1.0  0.48161  0.22892  0.29551  1.0000
  C   C31       1.0  0.38271  0.26866  0.99259  1.0000
  H   H59       1.0  0.15500  0.22004  0.02921  1.0000
  C   C32       1.0  0.13689  0.26298  0.00943  1.0000
  H   H60       1.0  0.39221  0.29427  0.00464  1.0000
  C   C33       1.0  0.41919  0.25913  0.31571  1.0000
  H   H61       1.0  0.08244  0.15577  0.02335  1.0000
  H   H62       1.0  0.21434  0.27107  0.99841  1.0000
  C   C34       1.0  0.42317  0.19712  0.32282  1.0000
  C   C35       1.0  0.10243  0.23360  0.99509  1.0000
  H   H63       1.0  0.17935  0.42609  0.99249  1.0000
  Fe  Fe5       1.0  0.31231  0.18140  0.42750  1.0000
  S   S9        1.0  0.27741  0.14141  0.38856  1.0000
  S   S10       1.0  0.30428  0.21735  0.46353  1.0000
  Fe  Fe6       1.0  0.37207  0.17026  0.40976  1.0000
  S   S11       1.0  0.34043  0.12958  0.37049  1.0000
  S   S12       1.0  0.42490  0.17860  0.41950  1.0000
  Fe  Fe7       1.0  0.32472  0.16481  0.35375  1.0000
  Fe  Fe8       1.0  0.29602  0.10881  0.40843  1.0000
  S   S13       1.0  0.26529  0.04954  0.41293  1.0000
  S   S14       1.0  0.35856  0.20673  0.39164  1.0000
  S   S15       1.0  0.32855  0.14757  0.44878  1.0000
  Fe  Fe9       1.0  0.17686  0.28520  0.52777  1.0000
  S   S16       1.0  0.13460  0.26229  0.56814  1.0000
  S   S17       1.0  0.18456  0.24674  0.49591  1.0000
  Fe  Fe10      1.0  0.19077  0.35855  0.54211  1.0000
  S   S18       1.0  0.15009  0.33978  0.58344  1.0000
  S   S19       1.0  0.22095  0.41397  0.52246  1.0000
  Fe  Fe11      1.0  0.17094  0.30862  0.60038  1.0000
  H   H64       1.0  0.39659  0.06119  0.47651  1.0000
  Fe  Fe12      1.0  0.11690  0.29489  0.54746  1.0000
  S   S20       1.0  0.06035  0.27860  0.54208  1.0000
  S   S21       1.0  0.21403  0.33018  0.56072  1.0000
  S   S22       1.0  0.15677  0.31506  0.50534  1.0000
  C   C36       1.0  0.46753  0.21337  0.40854  1.0000
  H   H65       1.0  0.17817  0.43036  0.49225  1.0000
  S   S23       1.0  0.18929  0.30613  0.65266  1.0000
  H   H66       1.0  0.42515  0.20864  0.34857  1.0000
  H   H67       1.0  0.45393  0.24973  0.39773  1.0000
  C   C37       1.0  0.24928  0.02039  0.44727  1.0000
  H   H68       1.0  0.33318  0.11614  0.50878  1.0000
  C   C38       1.0  0.24745  0.03068  0.48066  1.0000
  H   H69       1.0  0.33681  0.11145  0.55247  1.0000
  H   H70       1.0  0.25548  0.05714  0.48620  1.0000
  C   C39       1.0  0.27095  0.22584  0.47082  1.0000
  C   C40       1.0  0.27788  0.25481  0.49093  1.0000
  C   C41       1.0  0.25215  0.26208  0.49836  1.0000
  C   C42       1.0  0.21882  0.24013  0.48614  1.0000
  C   C43       1.0  0.21193  0.21122  0.46601  1.0000
  C   C44       1.0  0.23775  0.20417  0.45827  1.0000
  H   H71       1.0  0.30345  0.27189  0.50068  1.0000
  H   H72       1.0  0.25812  0.28466  0.51343  1.0000
  H   H73       1.0  0.18635  0.19406  0.45630  1.0000
  H   H74       1.0  0.23185  0.18178  0.44286  1.0000
  C   C45       1.0  0.03908  0.24823  0.47756  1.0000
  C   C46       1.0  0.03054  0.25813  0.50839  1.0000
  C   C47       1.0  0.16385  0.46724  0.50099  1.0000
  H   H75       1.0  0.36734  0.11301  0.46483  1.0000
  H   H76       1.0  0.06458  0.25290  0.47357  1.0000
  H   H77       1.0  0.34178  0.01962  0.45942  1.0000
  C   C48       1.0  0.23189  0.45928  0.57704  1.0000
  C   C49       1.0  0.23661  0.45527  0.54238  1.0000
  H   H78       1.0  0.14877  0.42749  0.46306  1.0000
  H   H79       1.0  0.21855  0.43682  0.59276  1.0000
  C   C50       1.0  0.34623  0.10933  0.52675  1.0000
  H   H80       1.0  0.15848  0.18193  0.59755  1.0000
  C   C51       1.0  0.36784  0.07964  0.42608  1.0000
  H   H81       1.0  0.37425  0.12858  0.52548  1.0000
  H   H82       1.0  0.46625  0.26690  0.33403  1.0000
  H   H83       1.0  0.35110  0.05317  0.41537  1.0000
  N   N3        1.0  0.35231  0.06497  0.48918  1.0000
  C   C52       1.0  0.15427  0.43051  0.49053  1.0000
  H   H84       1.0  0.24726  0.20713  0.61681  1.0000
  H   H85       1.0  0.11602  0.38902  0.59803  1.0000
  N   N4        1.0  0.22540  0.23738  0.60812  1.0000
  H   H86       1.0  0.39451  0.08610  0.42872  1.0000
  C   C53       1.0  0.21793  0.23890  0.64544  1.0000
  C   C54       1.0  0.35276  0.08483  0.45962  1.0000
  H   H87       1.0  0.44187  0.11384  0.49468  1.0000
  C   C55       1.0  0.25407  0.48498  0.52248  1.0000
  H   H88       1.0  0.09715  0.36046  0.45105  1.0000
  H   H89       1.0  0.24416  0.30599  0.60395  1.0000
  C   C56       1.0  0.41681  0.11068  0.50190  1.0000
  H   H90       1.0  0.36922  0.09745  0.40719  1.0000
  C   C57       1.0  0.26598  0.30408  0.61085  1.0000
  H   H91       1.0  0.09850  0.35538  0.56680  1.0000
  H   H92       1.0  0.09021  0.41903  0.51835  1.0000
  H   H93       1.0  0.27012  0.30914  0.63846  1.0000
  H   H94       1.0  0.30308  0.00359  0.52857  1.0000
  C   C58       1.0  0.16520  0.20272  0.57998  1.0000
  H   H95       1.0  0.04780  0.35015  0.48332  1.0000
  H   H96       1.0  0.41557  0.12885  0.48564  1.0000
  H   H97       1.0  0.21043  0.24888  0.56204  1.0000
  H   H98       1.0  0.23377  0.17671  0.55955  1.0000
  H   H99       1.0  0.38659  0.05929  0.51967  1.0000
  H   H100      1.0  0.16550  0.19380  0.55351  1.0000
  H   H101      1.0  0.19184  0.25546  0.59919  1.0000
  H   H102      1.0  0.32614  0.07790  0.45473  1.0000
  C   C59       1.0  0.31971  0.00153  0.50877  1.0000
  H   H103      1.0  0.08203  0.38317  0.57300  1.0000
  C   C60       1.0  0.23754  0.20250  0.56351  1.0000
  C   C61       1.0  0.23486  0.00658  0.50695  1.0000
  C   C62       1.0  0.47466  0.24537  0.39845  1.0000
  N   N5        1.0  0.12474  0.40118  0.51013  1.0000
  H   H104      1.0  0.17847  0.47612  0.52482  1.0000
  C   C63       1.0  0.12370  0.36892  0.49930  1.0000
  C   C64       1.0  0.13289  0.40830  0.54723  1.0000
  C   C65       1.0  0.09191  0.39927  0.50283  1.0000
  C   C66       1.0  0.33650  0.07194  0.52020  1.0000
  C   C67       1.0  0.11846  0.35936  0.46125  1.0000
  C   C68       1.0  0.10546  0.38211  0.57216  1.0000
  C   C69       1.0  0.05753  0.36402  0.50794  1.0000
  C   C70       1.0  0.26056  0.26894  0.60017  1.0000
  C   C71       1.0  0.38760  0.07256  0.49642  1.0000
  H   H105      1.0  0.10361  0.34601  0.51313  1.0000
  H   H106      1.0  0.14817  0.37153  0.50593  1.0000
  H   H107      1.0  0.45364  0.17753  0.34132  1.0000
  C   C72       1.0  0.19903  0.23785  0.58725  1.0000
  H   H108      1.0  0.26645  0.27036  0.57247  1.0000
  H   H109      1.0  0.09229  0.40585  0.47597  1.0000
  H   H110      1.0  0.18142  0.48551  0.48130  1.0000
  H   H111      1.0  0.20361  0.18186  0.60685  1.0000
  H   H112      1.0  0.11198  0.33249  0.45734  1.0000
  C   C73       1.0  0.32956  0.02705  0.47988  1.0000
  H   H113      1.0  0.14256  0.37618  0.44638  1.0000
  H   H114      1.0  0.30785  0.05636  0.51890  1.0000
  C   C74       1.0  0.22779  0.20639  0.60049  1.0000
  H   H115      1.0  0.28120  0.26762  0.61219  1.0000
  H   H116      1.0  0.03751  0.36864  0.51800  1.0000
  H   H117      1.0  0.05808  0.34655  0.52575  1.0000
  C   C75       1.0  0.01457  0.23224  0.45170  1.0000
  H   H118      1.0  0.13671  0.43339  0.55563  1.0000
  H   H119      1.0  0.25791  0.48230  0.49565  1.0000
  H   H120      1.0  0.02165  0.22484  0.42800  1.0000
  H   H121      1.0  0.28947  0.32504  0.59781  1.0000
  H   H122      1.0  0.40835  0.14814  0.34461  1.0000
  H   H123      1.0  0.34255  0.00445  0.52040  1.0000
  H   H124      1.0  0.34252  0.06361  0.54347  1.0000
  H   H125      1.0  0.15763  0.41047  0.55199  1.0000
  H   H126      1.0  0.23331  0.01485  0.53260  1.0000
  H   H127      1.0  0.21788  0.26252  0.65216  1.0000
  H   H128      1.0  0.22137  0.20447  0.54506  1.0000
  H   H129      1.0  0.14329  0.20629  0.58155  1.0000
  H   H130      1.0  0.41773  0.11882  0.52885  1.0000
  C   C76       1.0  0.99711  0.25176  0.51283  1.0000
  H   H131      1.0  0.26511  0.22177  0.55757  1.0000
  H   H132      1.0  0.30495  0.02118  0.46944  1.0000
  H   H133      1.0  0.17951  0.18360  0.65520  1.0000
  H   H134      1.0  0.14104  0.46929  0.50348  1.0000
  H   H135      1.0  0.42609  0.28398  0.32828  1.0000
  H   H136      1.0  0.39998  0.23840  0.33238  1.0000
  C   C77       1.0  0.42923  0.16778  0.32800  1.0000
  H   H137      1.0  0.99018  0.25943  0.53645  1.0000
  H   H138      1.0  0.98439  0.13239  0.48470  1.0000
  H   H139      1.0  0.16133  0.20955  0.64885  1.0000
  H   H140      1.0  0.09763  0.41472  0.90290  1.0000
  H   H141      1.0  0.12378  0.21133  0.94219  1.0000
  Fe  Fe13      1.0  0.19300  0.36023  0.89781  1.0000
  S   S24       1.0  0.13757  0.33441  0.88392  1.0000
  S   S25       1.0  0.22716  0.41731  0.88354  1.0000
  Fe  Fe14      1.0  0.18334  0.28971  0.91279  1.0000
  S   S26       1.0  0.12720  0.26024  0.89836  1.0000
  S   S27       1.0  0.20748  0.25839  0.92424  1.0000
  Fe  Fe15      1.0  0.14484  0.29610  0.85416  1.0000
  S   S28       1.0  0.12096  0.28205  0.80164  1.0000
  Fe  Fe16      1.0  0.12455  0.30100  0.92894  1.0000
  H   H142      1.0  0.13589  0.35916  0.81413  1.0000
  S   S29       1.0  0.20075  0.32286  0.86620  1.0000
  S   S30       1.0  0.18012  0.32944  0.94529  1.0000
  C   C78       1.0  0.19767  0.38723  0.73338  1.0000
  H   H143      1.0  0.15483  0.39970  0.79413  1.0000
  H   H144      1.0  0.46285  0.29631  0.95718  1.0000
  H   H145      1.0  0.00724  0.15008  0.98206  1.0000
  H   H146      1.0  0.27283  0.43196  0.81049  1.0000
  C   C79       1.0  0.22313  0.24483  0.95699  1.0000
  H   H147      1.0  0.28418  0.40107  0.80141  1.0000
  C   C80       1.0  0.11450  0.40507  0.90777  1.0000
  H   H148      1.0  0.23343  0.36596  0.76500  1.0000
  H   H149      1.0  0.44468  0.23955  0.93848  1.0000
  C   C81       1.0  0.41788  0.22758  0.92995  1.0000
  C   C82       1.0  0.06274  0.17480  0.97508  1.0000
  C   C83       1.0  0.25608  0.01312  0.94775  1.0000
  C   C84       1.0  0.23542  0.22332  0.94833  1.0000
  S   S31       1.0  0.28691  0.07540  0.98327  1.0000
  H   H150      1.0  0.27292  0.02835  0.92704  1.0000
  H   H151      1.0  0.42636  0.28871  0.91497  1.0000
  H   H152      1.0  0.03455  0.23221  0.93149  1.0000
  C   C85       1.0  0.16931  0.29854  0.69366  1.0000
  C   C86       1.0  0.18806  0.30052  0.72177  1.0000
  C   C87       1.0  0.17372  0.29545  0.75491  1.0000
  C   C88       1.0  0.14024  0.28807  0.76036  1.0000
  C   C89       1.0  0.12138  0.28574  0.73221  1.0000
  C   C90       1.0  0.13584  0.29112  0.69909  1.0000
  H   H153      1.0  0.21392  0.30612  0.71790  1.0000
  H   H154      1.0  0.18844  0.29699  0.77621  1.0000
  H   H155      1.0  0.09542  0.27989  0.73606  1.0000
  H   H156      1.0  0.12102  0.28940  0.67779  1.0000
  C   C91       1.0  0.02166  0.23478  0.95380  1.0000
  C   C92       1.0  0.24170  0.45886  0.90179  1.0000
  C   C93       1.0  0.24048  0.46471  0.93668  1.0000
  C   C94       1.0  0.07166  0.36871  0.97230  1.0000
  H   H157      1.0  0.23079  0.44348  0.95370  1.0000
  C   C95       1.0  0.15741  0.39947  0.98713  1.0000
  H   H158      1.0  0.25659  0.19475  0.96588  1.0000
  C   C96       1.0  0.14143  0.41700  0.87837  1.0000
  H   H159      1.0  0.24241  0.42137  0.69955  1.0000
  H   H160      1.0  0.13849  0.35998  0.76932  1.0000
  H   H161      1.0  0.23268  0.44445  0.80141  1.0000
  H   H162      1.0  0.44492  0.34330  0.93747  1.0000
  C   C97       1.0  0.24744  0.21134  0.97319  1.0000
  C   C98       1.0  0.09952  0.40731  0.96758  1.0000
  H   H163      1.0  0.19728  0.38893  0.82013  1.0000
  C   C99       1.0  0.24333  0.39378  0.76972  1.0000
  H   H164      1.0  0.23249  0.37775  0.70205  1.0000
  C   C100      1.0  0.25548  0.48708  0.88018  1.0000
  C   C101      1.0  0.04004  0.26286  0.97617  1.0000
  H   H165      1.0  0.40702  0.19947  0.92687  1.0000
  N   N6        1.0  0.12865  0.41521  0.94297  1.0000
  H   H166      1.0  0.18203  0.39825  0.72831  1.0000
  H   H167      1.0  0.26347  0.40734  0.74979  1.0000
  H   H168      1.0  0.12602  0.36701  0.94592  1.0000
  H   H169      1.0  0.18178  0.21310  0.68710  1.0000
  H   H170      1.0  0.24523  0.38787  0.82446  1.0000
  C   C102      1.0  0.22601  0.43678  0.77439  1.0000
  C   C103      1.0  0.15248  0.37451  0.79241  1.0000
  H   H171      1.0  0.41795  0.23696  0.90461  1.0000
  C   C104      1.0  0.14496  0.47783  0.93593  1.0000
  C   C105      1.0  0.26215  0.40449  0.80361  1.0000
  C   C106      1.0  0.12161  0.16625  0.95795  1.0000
  H   H172      1.0  0.15866  0.40747  0.88047  1.0000
  H   H173      1.0  0.20436  0.44033  0.77113  1.0000
  H   H174      1.0  0.12772  0.40627  0.85420  1.0000
  H   H175      1.0  0.20589  0.38622  0.67892  1.0000
  S   S32       1.0  0.08485  0.29495  0.96981  1.0000
  H   H176      1.0  0.23556  0.21575  0.92209  1.0000
  H   H177      1.0  0.05988  0.35507  0.94815  1.0000
  H   H178      1.0  0.08558  0.41924  0.95948  1.0000
  C   C107      1.0  0.12438  0.20056  0.96657  1.0000
  H   H179      1.0  0.05053  0.36631  0.98900  1.0000
  H   H180      1.0  0.17897  0.45942  0.92952  1.0000
  H   H181      1.0  0.18245  0.35172  0.79422  1.0000
  H   H182      1.0  0.16704  0.40233  0.93371  1.0000
  C   C108      1.0  0.25589  0.46426  0.75216  1.0000
  H   H183      1.0  0.08174  0.35511  0.98496  1.0000
  H   H184      1.0  0.09757  0.37649  0.90492  1.0000
  H   H185      1.0  0.06235  0.18411  0.94962  1.0000
  C   C109      1.0  0.14447  0.39508  0.95081  1.0000
  H   H186      1.0  0.23857  0.24051  0.66059  1.0000
  N   N7        1.0  0.21437  0.39965  0.76747  1.0000
  H   H187      1.0  0.10058  0.15010  0.94004  1.0000
  H   H188      1.0  0.24612  0.46790  0.72859  1.0000
  C   C110      1.0  0.22148  0.39399  0.70208  1.0000
  C   C111      1.0  0.25722  0.02971  0.97890  1.0000
  C   C112      1.0  0.18770  0.37825  0.79443  1.0000
  H   H189      1.0  0.25705  0.48309  0.85322  1.0000
  H   H190      1.0  0.15728  0.44542  0.87610  1.0000
  H   H191      1.0  0.27607  0.45891  0.74576  1.0000
  C   C113      1.0  0.15601  0.45319  0.94554  1.0000
  H   H192      1.0  0.17916  0.35878  0.73316  1.0000
  H   H193      1.0  0.14595  0.17200  0.94490  1.0000
  C   C114      1.0  0.98635  0.20987  0.96026  1.0000
  H   H194      1.0  0.34592  0.27357  0.96326  1.0000
  N   N8        1.0  0.40731  0.26978  0.96539  1.0000
  H   H195      1.0  0.16554  0.46079  0.97179  1.0000
  H   H196      1.0  0.09949  0.24213  0.97028  1.0000
  H   H197      1.0  0.11799  0.15134  0.98067  1.0000
  H   H198      1.0  0.15079  0.21875  0.97542  1.0000
  C   C115      1.0  0.22316  0.25422  0.99115  1.0000
  H   H199      1.0  0.05759  0.14846  0.97076  1.0000
  H   H200      1.0  0.38237  0.27190  0.92090  1.0000
  C   C116      1.0  0.40734  0.28733  0.93415  1.0000
  C   C117      1.0  0.39505  0.23285  0.95591  1.0000
  H   H201      1.0  0.36888  0.21891  0.94516  1.0000
  H   H202      1.0  0.40445  0.33038  0.91880  1.0000
  C   C118      1.0  0.41656  0.32471  0.93898  1.0000
  H   H203      1.0  0.16698  0.38221  0.98984  1.0000
  H   H204      1.0  0.12417  0.47552  0.95300  1.0000
  H   H205      1.0  0.13667  0.47392  0.90938  1.0000
  H   H206      1.0  0.40622  0.32924  0.96292  1.0000
  H   H207      1.0  0.33242  0.22938  0.96989  1.0000
  C   C119      1.0  0.44351  0.28687  0.97847  1.0000
  H   H208      1.0  0.39294  0.21855  0.97889  1.0000
  C   C120      1.0  0.34595  0.25574  0.98116  1.0000
  H   H209      1.0  0.44682  0.26792  0.99133  1.0000
  N   N9        1.0  0.09738  0.19850  0.99107  1.0000
  C   C121      1.0  0.18304  0.20919  0.65929  1.0000
  C   C122      1.0  0.34827  0.63066  0.99584  1.0000
  H   H210      1.0  0.43753  0.72420  0.03362  1.0000
  H   H211      1.0  0.00667  0.74596  0.03053  1.0000
  H   H212      1.0  0.09484  0.86247  0.02542  1.0000
  H   H213      1.0  0.38785  0.65889  0.05623  1.0000
  H   H214      1.0  0.42844  0.74730  0.00560  1.0000
  C   C123      1.0  0.32260  0.63150  0.02152  1.0000
  H   H215      1.0  0.29654  0.60800  0.01742  1.0000
  H   H216      1.0  0.29375  0.92038  0.05951  1.0000
  H   H217      1.0  0.32931  0.63152  0.04806  1.0000
  H   H218      1.0  0.20893  0.88519  0.01386  1.0000
  C   C124      1.0  0.01427  0.82749  0.01791  1.0000
  C   C125      1.0  0.28994  0.92705  0.03414  1.0000
  C   C126      1.0  0.99899  0.74375  0.00463  1.0000
  C   C127      1.0  0.39118  0.69214  0.00337  1.0000
  N   N10       1.0  0.38607  0.65692  0.00153  1.0000
  H   H219      1.0  0.03198  0.82272  0.03073  1.0000
  C   C128      1.0  0.09397  0.84533  0.00467  1.0000
  C   C129      1.0  0.29197  0.90282  0.00715  1.0000
  H   H220      1.0  0.45299  0.68547  0.02375  1.0000
  H   H221      1.0  0.43913  0.64138  0.03163  1.0000
  C   C130      1.0  0.39594  0.64892  0.03412  1.0000
  H   H222      1.0  0.12063  0.85104  0.00248  1.0000
  H   H223      1.0  0.37614  0.69425  0.02494  1.0000
  H   H224      1.0  0.22577  0.86708  0.04114  1.0000
  H   H225      1.0  0.11381  0.94644  0.00578  1.0000
  H   H226      1.0  0.28813  0.88008  0.02037  1.0000
  H   H227      1.0  0.06904  0.88869  0.02018  1.0000
  H   H228      1.0  0.19576  0.95823  0.02138  1.0000
  H   H229      1.0  0.44106  0.66889  0.06515  1.0000
  H   H230      1.0  0.38171  0.62044  0.03713  1.0000
  C   C131      1.0  0.43446  0.66220  0.03807  1.0000
  H   H231      1.0  0.07666  0.81812  0.01227  1.0000
  C   C132      1.0  0.42827  0.72330  0.00798  1.0000
  H   H232      1.0  0.26537  0.92580  0.03581  1.0000
  C   C133      1.0  0.21249  0.97344  0.00063  1.0000
  H   H233      1.0  0.34246  0.60389  0.99617  1.0000
  H   H234      1.0  0.01305  0.84842  0.03133  1.0000
  H   H235      1.0  0.18702  0.83997  0.01879  1.0000
  C   C134      1.0  0.21308  0.86400  0.01693  1.0000
  H   H236      1.0  0.32030  0.65381  0.01740  1.0000
  H   H237      1.0  0.98811  0.80366  0.02056  1.0000
  H   H238      1.0  0.31144  0.95423  0.03031  1.0000
  C   C135      1.0  0.07081  0.89472  0.99309  1.0000
  H   H239      1.0  0.23440  0.83758  0.99301  1.0000
  H   H240      1.0  0.31919  0.91719  0.99747  1.0000
  Fe  Fe17      1.0  0.37082  0.68921  0.54961  1.0000
  S   S33       1.0  0.31749  0.64926  0.53005  1.0000
  S   S34       1.0  0.42137  0.72267  0.51949  1.0000
  Fe  Fe18      1.0  0.34281  0.68923  0.61962  1.0000
  S   S35       1.0  0.28810  0.64983  0.60684  1.0000
  C   C136      1.0  0.08236  0.88004  0.43873  1.0000
  Fe  Fe19      1.0  0.30926  0.62128  0.57868  1.0000
  S   S36       1.0  0.27941  0.56366  0.59201  1.0000
  Fe  Fe20      1.0  0.29914  0.67986  0.55963  1.0000
  S   S37       1.0  0.25740  0.68761  0.54089  1.0000
  S   S38       1.0  0.36392  0.65930  0.59588  1.0000
  S   S39       1.0  0.35250  0.72135  0.57468  1.0000
  Fe  Fe21      1.0  0.19256  0.82335  0.54822  1.0000
  S   S40       1.0  0.19891  0.86547  0.58454  1.0000
  S   S41       1.0  0.23718  0.81482  0.55135  1.0000
  Fe  Fe22      1.0  0.12376  0.81044  0.52266  1.0000
  S   S42       1.0  0.12599  0.85097  0.55808  1.0000
  S   S43       1.0  0.08274  0.78097  0.48183  1.0000
  Fe  Fe23      1.0  0.18231  0.88420  0.54207  1.0000
  S   S44       1.0  0.20829  0.94280  0.53482  1.0000
  Fe  Fe24      1.0  0.14285  0.82940  0.59751  1.0000
  H   H241      1.0  0.24003  0.97743  0.41509  1.0000
  S   S45       1.0  0.17967  0.84468  0.50481  1.0000
  S   S46       1.0  0.13688  0.78632  0.56296  1.0000
  C   C137      1.0  0.22629  0.96173  0.46710  1.0000
  C   C138      1.0  0.22409  0.97192  0.50042  1.0000
  H   H242      1.0  0.18534  0.76021  0.60270  1.0000
  H   H243      1.0  0.21882  0.93545  0.46168  1.0000
  C   C139      1.0  0.47927  0.77745  0.61758  1.0000
  N   N11       1.0  0.10959  0.89728  0.46529  1.0000
  C   C140      1.0  0.01928  0.76797  0.50746  1.0000
  C   C141      1.0  0.03786  0.76527  0.47997  1.0000
  C   C142      1.0  0.02049  0.75010  0.44950  1.0000
  C   C143      1.0  0.15089  0.94379  0.42173  1.0000
  H   H244      1.0  0.03206  0.77946  0.53110  1.0000
  H   H245      1.0  0.03452  0.74796  0.42797  1.0000
  H   H246      1.0  0.21257  0.81932  0.62088  1.0000
  C   C144      1.0  0.26291  0.52234  0.57176  1.0000
  H   H247      1.0  0.09833  0.91064  0.55191  1.0000
  C   C145      1.0  0.26714  0.51825  0.53699  1.0000
  H   H248      1.0  0.43743  0.78742  0.61678  1.0000
  H   H249      1.0  0.28082  0.54075  0.52135  1.0000
  C   C146      1.0  0.25181  0.72297  0.54535  1.0000
  C   C147      1.0  0.22056  0.71836  0.53560  1.0000
  C   C148      1.0  0.21531  0.74587  0.53765  1.0000
  C   C149      1.0  0.24165  0.77868  0.54872  1.0000
  C   C150      1.0  0.27293  0.78328  0.55840  1.0000
  C   C151      1.0  0.27778  0.75555  0.55730  1.0000
  H   H250      1.0  0.20022  0.69330  0.52631  1.0000
  H   H251      1.0  0.19113  0.74181  0.53004  1.0000
  H   H252      1.0  0.29346  0.80847  0.56718  1.0000
  H   H253      1.0  0.30167  0.75948  0.56555  1.0000
  C   C152      1.0  0.46339  0.73400  0.53061  1.0000
  H   H254      1.0  0.30418  0.97477  0.49821  1.0000
  H   H255      1.0  0.44654  0.68741  0.55697  1.0000
  H   H256      1.0  0.13211  0.87183  0.41318  1.0000
  H   H257      1.0  0.12100  0.94913  0.46138  1.0000
  H   H258      1.0  0.16940  0.97220  0.42070  1.0000
  H   H259      1.0  0.03780  0.83099  0.42186  1.0000
  H   H260      1.0  0.17079  0.88671  0.43546  1.0000
  C   C153      1.0  0.44729  0.77356  0.60180  1.0000
  H   H261      1.0  0.15120  0.89544  0.48602  1.0000
  C   C154      1.0  0.05621  0.84103  0.44293  1.0000
  C   C155      1.0  0.11415  0.91777  0.52811  1.0000
  C   C156      1.0  0.13423  0.93493  0.45750  1.0000
  H   H262      1.0  0.07226  0.90294  0.49541  1.0000
  H   H263      1.0  0.06754  0.89265  0.43808  1.0000
  H   H264      1.0  0.15602  0.94718  0.47531  1.0000
  H   H265      1.0  0.13187  0.93712  0.40191  1.0000
  H   H266      1.0  0.13529  0.91383  0.53206  1.0000
  H   H267      1.0  0.45285  0.71312  0.61918  1.0000
  H   H268      1.0  0.07569  0.86838  0.50773  1.0000
  C   C157      1.0  0.23928  0.75079  0.64194  1.0000
  H   H269      1.0  0.32440  0.77372  0.40172  1.0000
  H   H270      1.0  0.06913  0.82661  0.44156  1.0000
  H   H271      1.0  0.16616  0.93229  0.41559  1.0000
  C   C158      1.0  0.23852  0.98571  0.44074  1.0000
  H   H272      1.0  0.04062  0.83504  0.46673  1.0000
  H   H273      1.0  0.12515  0.94561  0.52440  1.0000
  H   H274      1.0  0.24758  0.79626  0.61893  1.0000
  H   H275      1.0  0.42633  0.74615  0.59796  1.0000
  H   H276      1.0  0.09346  0.88308  0.41283  1.0000
  H   H277      1.0  0.42113  0.71516  0.64388  1.0000
  C   C159      1.0  0.09113  0.89533  0.49852  1.0000
  H   H278      1.0  0.11233  0.85522  0.48365  1.0000
  C   C160      1.0  0.44792  0.72110  0.64463  1.0000
  H   H279      1.0  0.13522  0.84305  0.43855  1.0000
  C   C161      1.0  0.46852  0.71196  0.54894  1.0000
  C   C162      1.0  0.12866  0.87956  0.46953  1.0000
  C   C163      1.0  0.14225  0.87016  0.43720  1.0000
  C   C164      1.0  0.14000  0.74231  0.63455  1.0000
  C   C165      1.0  0.20716  0.81262  0.64811  1.0000
  N   N12       1.0  0.35248  0.73912  0.45888  1.0000
  C   C166      1.0  0.36605  0.71617  0.45110  1.0000
  C   C167      1.0  0.31726  0.71704  0.47533  1.0000
  C   C168      1.0  0.37683  0.76737  0.48321  1.0000
  C   C169      1.0  0.35142  0.75396  0.42610  1.0000
  C   C170      1.0  0.40352  0.73427  0.43708  1.0000
  C   C171      1.0  0.28980  0.68661  0.45362  1.0000
  C   C172      1.0  0.36221  0.78485  0.50573  1.0000
  C   C173      1.0  0.33448  0.77505  0.42712  1.0000
  H   H280      1.0  0.36454  0.70230  0.47418  1.0000
  H   H281      1.0  0.35006  0.69571  0.43206  1.0000
  H   H282      1.0  0.30596  0.73213  0.48378  1.0000
  H   H283      1.0  0.31931  0.70630  0.49909  1.0000
  H   H284      1.0  0.38690  0.75720  0.50131  1.0000
  H   H285      1.0  0.39995  0.78821  0.46950  1.0000
  H   H286      1.0  0.37801  0.77170  0.41586  1.0000
  H   H287      1.0  0.33917  0.73371  0.40581  1.0000
  H   H288      1.0  0.40633  0.74471  0.41159  1.0000
  H   H289      1.0  0.42233  0.75487  0.45440  1.0000
  H   H290      1.0  0.41083  0.71495  0.43447  1.0000
  H   H291      1.0  0.26454  0.67440  0.46744  1.0000
  H   H292      1.0  0.28642  0.69506  0.42912  1.0000
  H   H293      1.0  0.29537  0.66617  0.44956  1.0000
  H   H294      1.0  0.34913  0.79438  0.49140  1.0000
  H   H295      1.0  0.38366  0.80735  0.51935  1.0000
  H   H296      1.0  0.34421  0.76701  0.52538  1.0000
  H   H297      1.0  0.35350  0.80253  0.43378  1.0000
  H   H298      1.0  0.31171  0.76489  0.44433  1.0000
  H   H299      1.0  0.26661  0.75844  0.63997  1.0000
  C   C174      1.0  0.23806  0.78360  0.64383  1.0000
  H   H300      1.0  0.12431  0.72461  0.61357  1.0000
  C   C175      1.0  0.17735  0.75184  0.62938  1.0000
  H   H301      1.0  0.13767  0.76486  0.63376  1.0000
  H   H302      1.0  0.22684  0.73506  0.61878  1.0000
  S   S47       1.0  0.11763  0.81365  0.65038  1.0000
  H   H303      1.0  0.45466  0.78519  0.57636  1.0000
  N   N13       1.0  0.47313  0.75932  0.65056  1.0000
  C   C176      1.0  0.24498  0.49255  0.59155  1.0000
  C   C177      1.0  0.98521  0.73794  0.44646  1.0000
  N   N14       1.0  0.20362  0.77864  0.65341  1.0000
  H   H304      1.0  0.24150  0.49529  0.61844  1.0000
  H   H305      1.0  0.17551  0.72693  0.63105  1.0000
  H   H306      1.0  0.18293  0.81145  0.65394  1.0000
  C   C178      1.0  0.98393  0.75548  0.50453  1.0000
  H   H307      1.0  0.45921  0.68252  0.65786  1.0000
  H   H308      1.0  0.26178  0.85167  0.65831  1.0000
  H   H309      1.0  0.12823  0.72814  0.65831  1.0000
  Fe  Fe25      1.0  0.29764  0.67373  0.88429  1.0000
  S   S48       1.0  0.27973  0.61923  0.86738  1.0000
  S   S49       1.0  0.26102  0.69077  0.87082  1.0000
  Fe  Fe26      1.0  0.36997  0.68908  0.90110  1.0000
  S   S50       1.0  0.35681  0.63603  0.88529  1.0000
  S   S51       1.0  0.42296  0.73416  0.91792  1.0000
  Fe  Fe27      1.0  0.33145  0.64222  0.84153  1.0000
  S   S52       1.0  0.33388  0.62122  0.78988  1.0000
  Fe  Fe28      1.0  0.30585  0.61651  0.91233  1.0000
  S   S53       1.0  0.28151  0.56863  0.94517  1.0000
  S   S54       1.0  0.34801  0.69661  0.85502  1.0000
  S   S55       1.0  0.32041  0.66969  0.93196  1.0000
  Fe  Fe29      1.0  0.17547  0.80579  0.90875  1.0000
  S   S56       1.0  0.13535  0.78441  0.86834  1.0000
  S   S57       1.0  0.20830  0.78705  0.92969  1.0000
  Fe  Fe30      1.0  0.16904  0.86879  0.92457  1.0000
  S   S58       1.0  0.12915  0.85202  0.88476  1.0000
  S   S59       1.0  0.18266  0.91109  0.96556  1.0000
  Fe  Fe31      1.0  0.10468  0.79812  0.90461  1.0000
  S   S60       1.0  0.04528  0.76507  0.90988  1.0000
  Fe  Fe32      1.0  0.16195  0.83939  0.85127  1.0000
  S   S61       1.0  0.18259  0.85953  0.79780  1.0000
  S   S62       1.0  0.14278  0.81543  0.94603  1.0000
  S   S63       1.0  0.20375  0.86014  0.89005  1.0000
  C   C179      1.0  0.21138  0.95692  0.96947  1.0000
  C   C180      1.0  0.23332  0.97707  0.94299  1.0000
  H   H310      1.0  0.25212  0.76750  0.95667  1.0000
  H   H311      1.0  0.42031  0.67569  0.67608  1.0000
  H   H312      1.0  0.07292  0.82643  0.95576  1.0000
  C   C181      1.0  0.01462  0.75128  0.94443  1.0000
  H   H313      1.0  0.00406  0.84012  0.97058  1.0000
  H   H314      1.0  0.25140  0.92706  0.98493  1.0000
  H   H315      1.0  0.26375  0.86856  0.92744  1.0000
  C   C182      1.0  0.13572  0.82756  0.69130  1.0000
  C   C183      1.0  0.11596  0.80907  0.71985  1.0000
  C   C184      1.0  0.12969  0.81846  0.75262  1.0000
  C   C185      1.0  0.16340  0.84665  0.75728  1.0000
  C   C186      1.0  0.18304  0.86527  0.72873  1.0000
  C   C187      1.0  0.16928  0.85592  0.69600  1.0000
  H   H316      1.0  0.08989  0.78719  0.71659  1.0000
  H   H317      1.0  0.11420  0.80389  0.77426  1.0000
  H   H318      1.0  0.20903  0.88728  0.73202  1.0000
  C   C188      1.0  0.04318  0.84463  0.90767  1.0000
  C   C189      1.0  0.34406  0.64887  0.75612  1.0000
  C   C190      1.0  0.33643  0.63516  0.72307  1.0000
  C   C191      1.0  0.34233  0.65652  0.69598  1.0000
  C   C192      1.0  0.35604  0.69164  0.70197  1.0000
  C   C193      1.0  0.36459  0.70555  0.73483  1.0000
  C   C194      1.0  0.35866  0.68419  0.76185  1.0000
  H   H319      1.0  0.32523  0.60784  0.71850  1.0000
  H   H320      1.0  0.18446  0.87087  0.67445  1.0000
  H   H321      1.0  0.37514  0.73273  0.73950  1.0000
  H   H322      1.0  0.36530  0.69507  0.78707  1.0000
  C   C195      1.0  0.26625  0.52655  0.92790  1.0000
  C   C196      1.0  0.26758  0.52064  0.89307  1.0000
  H   H323      1.0  0.37380  0.60141  0.95121  1.0000
  H   H324      1.0  0.27819  0.54200  0.87602  1.0000
  H   H325      1.0  0.21585  0.85117  0.96456  1.0000
  H   H326      1.0  0.44232  0.77450  0.72781  1.0000
  C   C197      1.0  0.02399  0.75388  0.97812  1.0000
  H   H327      1.0  0.15266  0.75224  0.72656  1.0000
  H   H328      1.0  0.04423  0.88676  0.93422  1.0000
  H   H329      1.0  0.08537  0.89314  0.92521  1.0000
  C   C198      1.0  0.22314  0.76068  0.91244  1.0000
  C   C199      1.0  0.21383  0.74463  0.88044  1.0000
  C   C200      1.0  0.22579  0.72356  0.86824  1.0000
  C   C201      1.0  0.24746  0.71837  0.88761  1.0000
  C   C202      1.0  0.25708  0.73471  0.91946  1.0000
  C   C203      1.0  0.24488  0.75554  0.93179  1.0000
  H   H330      1.0  0.19710  0.74814  0.86524  1.0000
  H   H331      1.0  0.21796  0.71108  0.84366  1.0000
  H   H332      1.0  0.27354  0.73096  0.93481  1.0000
  C   C204      1.0  0.26359  0.91887  0.96547  1.0000
  H   H333      1.0  0.04463  0.85569  0.88279  1.0000
  C   C205      1.0  0.28236  0.88009  0.94850  1.0000
  H   H334      1.0  0.21837  0.78047  0.70495  1.0000
  C   C206      1.0  0.29686  0.95201  0.95319  1.0000
  H   H335      1.0  0.25164  0.50262  0.97662  1.0000
  H   H336      1.0  0.40144  0.60679  0.98528  1.0000
  C   C207      1.0  0.39936  0.61891  0.96273  1.0000
  N   N15       1.0  0.05943  0.86348  0.97032  1.0000
  C   C208      1.0  0.10794  0.92568  0.98674  1.0000
  H   H337      1.0  0.01561  0.82486  0.91292  1.0000
  H   H338      1.0  0.30091  0.84716  0.93246  1.0000
  C   C209      1.0  0.45276  0.76136  0.71234  1.0000
  C   C210      1.0  0.24998  0.63213  0.70298  1.0000
  C   C211      1.0  0.16891  0.77377  0.70906  1.0000
  H   H339      1.0  0.05785  0.83209  0.90458  1.0000
  H   H340      1.0  0.45994  0.70773  0.69426  1.0000
  H   H341      1.0  0.19239  0.61847  0.80921  1.0000
  H   H342      1.0  0.24174  0.58911  0.80320  1.0000
  H   H343      1.0  0.34101  0.63330  0.97026  1.0000
  H   H344      1.0  0.47755  0.72928  0.78776  1.0000
  C   C212      1.0  0.18847  0.63338  0.79074  1.0000
  H   H345      1.0  0.33553  0.64558  0.67065  1.0000
  C   C213      1.0  0.19464  0.76707  0.68962  1.0000
  C   C214      1.0  0.02314  0.83483  0.97994  1.0000
  C   C215      1.0  0.45858  0.77391  0.67577  1.0000
  H   H346      1.0  0.43303  0.76776  0.66783  1.0000
  C   C216      1.0  0.24466  0.60213  0.77919  1.0000
  C   C217      1.0  0.46437  0.73986  0.91771  1.0000
  C   C218      1.0  0.48172  0.72353  0.81335  1.0000
  H   H347      1.0  0.24966  0.69245  0.80249  1.0000
  H   H348      1.0  0.30572  0.74377  0.79105  1.0000
  C   C219      1.0  0.26709  0.66252  0.72876  1.0000
  H   H349      1.0  0.23364  0.83879  0.69571  1.0000
  C   C220      1.0  0.23287  0.85991  0.98678  1.0000
  H   H350      1.0  0.24996  0.64261  0.81344  1.0000
  H   H351      1.0  0.31086  0.70921  0.79862  1.0000
  H   H352      1.0  0.19331  0.65765  0.80292  1.0000
  H   H353      1.0  0.16076  0.61786  0.78435  1.0000
  C   C221      1.0  0.30034  0.71866  0.78050  1.0000
  H   H354      1.0  0.38134  0.69651  0.98013  1.0000
  C   C222      1.0  0.26100  0.69384  0.77686  1.0000
  H   H355      1.0  0.44688  0.68654  0.90873  1.0000
  H   H356      1.0  0.22672  0.62929  0.69228  1.0000
  C   C223      1.0  0.21041  0.63989  0.75798  1.0000
  H   H357      1.0  0.30396  0.94855  0.92685  1.0000
  H   H358      1.0  0.28628  0.65351  0.78851  1.0000
  H   H359      1.0  0.25224  0.70701  0.76109  1.0000
  H   H360      1.0  0.31448  0.72394  0.75586  1.0000
  H   H361      1.0  0.21885  0.58717  0.76814  1.0000
  C   C224      1.0  0.25784  0.64031  0.78698  1.0000
  H   H362      1.0  0.22752  0.73486  0.66470  1.0000
  H   H363      1.0  0.18272  0.79720  0.72564  1.0000
  H   H364      1.0  0.15097  0.77565  0.69323  1.0000
  H   H365      1.0  0.19959  0.61438  0.74517  1.0000
  H   H366      1.0  0.24345  0.60741  0.71335  1.0000
  N   N16       1.0  0.24877  0.65824  0.76254  1.0000
  C   C225      1.0  0.05885  0.87394  0.93476  1.0000
  H   H367      1.0  0.29223  0.97323  0.95274  1.0000
  H   H368      1.0  0.27086  0.68511  0.71526  1.0000
  H   H369      1.0  0.29335  0.66831  0.73256  1.0000
  H   H370      1.0  0.20479  0.65470  0.74081  1.0000
  C   C226      1.0  0.44754  0.69617  0.66991  1.0000
  H   H371      1.0  0.26840  0.63767  0.68145  1.0000
  H   H372      1.0  0.18427  0.73902  0.69093  1.0000
  H   H373      1.0  0.23286  0.96495  0.91883  1.0000
  H   H374      1.0  0.16744  0.50485  0.93841  1.0000
  H   H375      1.0  0.26333  0.59988  0.76246  1.0000
  C   C227      1.0  0.46877  0.71217  0.91408  1.0000
  H   H376      1.0  0.43377  0.67295  0.97295  1.0000
  C   C228      1.0  0.25255  0.49834  0.94962  1.0000
  N   N17       1.0  0.26794  0.89098  0.97784  1.0000
  H   H377      1.0  0.43301  0.73343  0.71376  1.0000
  H   H378      1.0  0.39885  0.66299  0.94810  1.0000
  C   C229      1.0  0.29270  0.85438  0.95645  1.0000
  H   H379      1.0  0.27124  0.82998  0.96707  1.0000
  H   H380      1.0  0.30617  0.90258  0.93758  1.0000
  H   H381      1.0  0.31482  0.86599  0.97363  1.0000
  H   H382      1.0  0.41899  0.62156  0.94364  1.0000
  H   H383      1.0  0.11155  0.93694  0.96154  1.0000
  H   H384      1.0  0.23351  0.86625  0.66524  1.0000
  H   H385      1.0  0.10810  0.86891  0.95573  1.0000
  S   S64       1.0  0.36086  0.71820  0.66914  1.0000
  H   H386      1.0  0.01671  0.81009  0.96743  1.0000
  C   C230      1.0  0.40560  0.65481  0.97098  1.0000
  H   H387      1.0  0.45768  0.71498  0.82856  1.0000
  H   H388      1.0  0.25804  0.80138  0.66216  1.0000
  C   C231      1.0  0.08383  0.85125  0.97016  1.0000
  H   H389      1.0  0.24533  0.90885  0.94419  1.0000
  C   C232      1.0  0.23574  0.84375  0.66829  1.0000
  H   H390      1.0  0.31892  0.96072  0.96981  1.0000
  H   H391      1.0  0.26950  0.48923  0.76653  1.0000
  H   H392      1.0  0.47684  0.76788  0.72437  1.0000
  H   H393      1.0  0.05041  0.76328  0.98368  1.0000
  H   H394      1.0  0.44661  0.72446  0.98829  1.0000
  H   H395      1.0  0.47549  0.80261  0.67690  1.0000
  H   H396      1.0  0.12717  0.91875  0.98979  1.0000
  H   H397      1.0  0.05309  0.90391  0.99095  1.0000
  H   H398      1.0  0.67423  0.04943  0.00929  1.0000
  Fe  Fe33      1.0  0.80704  0.10607  0.05047  1.0000
  S   S65       1.0  0.82768  0.14648  0.01061  1.0000
  S   S66       1.0  0.76440  0.04824  0.04169  1.0000
  Fe  Fe34      1.0  0.84863  0.16128  0.10597  1.0000
  S   S67       1.0  0.87213  0.20460  0.06837  1.0000
  S   S68       1.0  0.86596  0.18034  0.16056  1.0000
  Fe  Fe35      1.0  0.81831  0.17882  0.04853  1.0000
  S   S69       1.0  0.79642  0.20975  0.02936  1.0000
  Fe  Fe36      1.0  0.87993  0.16928  0.03362  1.0000
  H   H399      1.0  0.55187  0.21893  0.22329  1.0000
  S   S70       1.0  0.79461  0.13728  0.08740  1.0000
  S   S71       1.0  0.85955  0.12722  0.07223  1.0000
  S   S72       1.0  0.72153  0.35381  0.28176  1.0000
  Fe  Fe37      1.0  0.68665  0.36562  0.05633  1.0000
  S   S73       1.0  0.63199  0.34793  0.07227  1.0000
  S   S74       1.0  0.73208  0.42076  0.04427  1.0000
  Fe  Fe38      1.0  0.67734  0.29499  0.07151  1.0000
  S   S75       1.0  0.62228  0.27323  0.08859  1.0000
  S   S76       1.0  0.69571  0.25883  0.08388  1.0000
  Fe  Fe39      1.0  0.61645  0.29818  0.04432  1.0000
  S   S77       1.0  0.56618  0.26336  0.01582  1.0000
  Fe  Fe40      1.0  0.64065  0.32365  0.11534  1.0000
  S   S78       1.0  0.61681  0.32079  0.16700  1.0000
  S   S79       1.0  0.69596  0.34418  0.10195  1.0000
  C   C233      1.0  0.69197  0.34696  0.25123  1.0000
  C   C234      1.0  0.70427  0.36132  0.21931  1.0000
  C   C235      1.0  0.68122  0.35367  0.19349  1.0000
  C   C236      1.0  0.64577  0.33198  0.19964  1.0000
  C   C237      1.0  0.63333  0.31869  0.23197  1.0000
  C   C238      1.0  0.65646  0.32607  0.25778  1.0000
  H   H400      1.0  0.73170  0.37815  0.21449  1.0000
  H   H401      1.0  0.69087  0.36503  0.16902  1.0000
  H   H402      1.0  0.60589  0.30218  0.23690  1.0000
  H   H403      1.0  0.64688  0.31517  0.28252  1.0000
  C   C239      1.0  0.52459  0.25485  0.02743  1.0000
  C   C240      1.0  0.52029  0.27915  0.04527  1.0000
  H   H404      1.0  0.54275  0.30387  0.05239  1.0000
  C   C241      1.0  0.76866  0.22339  0.04547  1.0000
  C   C242      1.0  0.74774  0.20964  0.07456  1.0000
  C   C243      1.0  0.72534  0.22042  0.08545  1.0000
  C   C244      1.0  0.72377  0.24549  0.06785  1.0000
  C   C245      1.0  0.74469  0.25923  0.03879  1.0000
  C   C246      1.0  0.76670  0.24806  0.02761  1.0000
  H   H405      1.0  0.74863  0.19051  0.08851  1.0000
  H   H406      1.0  0.74387  0.27841  0.02481  1.0000
  C   C247      1.0  0.72836  0.29763  0.20476  1.0000
  S   S80       1.0  0.82030  0.11501  0.30783  1.0000
  H   H407      1.0  0.79428  0.32062  0.21315  1.0000
  C   C248      1.0  0.79005  0.33445  0.19347  1.0000
  H   H408      1.0  0.73335  0.26572  0.14307  1.0000
  C   C249      1.0  0.54236  0.23594  0.17713  1.0000
  H   H409      1.0  0.79157  0.26800  0.30832  1.0000
  H   H410      1.0  0.70914  0.20927  0.10777  1.0000
  C   C250      1.0  0.73821  0.46227  0.04051  1.0000
  H   H411      1.0  0.68147  0.28394  0.17775  1.0000
  H   H412      1.0  0.68457  0.44490  0.04200  1.0000
  C   C251      1.0  0.83483  0.13301  0.26694  1.0000
  C   C252      1.0  0.86230  0.16710  0.26237  1.0000
  C   C253      1.0  0.87161  0.18087  0.22961  1.0000
  C   C254      1.0  0.85372  0.16083  0.20096  1.0000
  C   C255      1.0  0.82636  0.12669  0.20553  1.0000
  C   C256      1.0  0.81705  0.11291  0.23831  1.0000
  H   H413      1.0  0.87634  0.18286  0.28405  1.0000
  H   H414      1.0  0.89288  0.20727  0.22638  1.0000
  H   H415      1.0  0.81233  0.11095  0.18382  1.0000
  H   H416      1.0  0.79571  0.08654  0.24151  1.0000
  H   H417      1.0  0.77295  0.36832  0.11391  1.0000
  H   H418      1.0  0.80144  0.35832  0.12950  1.0000
  H   H419      1.0  0.79356  0.48825  0.03780  1.0000
  H   H420      1.0  0.50001  0.27259  0.14099  1.0000
  H   H421      1.0  0.72340  0.30915  0.13862  1.0000
  C   C257      1.0  0.79502  0.36762  0.21029  1.0000
  H   H422      1.0  0.72515  0.12584  0.06759  1.0000
  H   H423      1.0  0.67380  0.26278  0.21667  1.0000
  C   C258      1.0  0.75461  0.27932  0.16132  1.0000
  C   C259      1.0  0.74781  0.32813  0.15137  1.0000
  H   H424      1.0  0.68774  0.24853  0.18045  1.0000
  H   H425      1.0  0.53917  0.25506  0.19194  1.0000
  H   H426      1.0  0.75547  0.13697  0.01744  1.0000
  H   H427      1.0  0.68688  0.09803  0.04531  1.0000
  H   H428      1.0  0.80866  0.29349  0.16031  1.0000
  H   H429      1.0  0.53755  0.18722  0.19004  1.0000
  H   H430      1.0  0.53225  0.25565  0.27084  1.0000
  N   N18       1.0  0.75584  0.31041  0.17704  1.0000
  H   H431      1.0  0.67191  0.09796  0.99373  1.0000
  H   H432      1.0  0.76868  0.32851  0.10031  1.0000
  H   H433      1.0  0.77846  0.36218  0.23334  1.0000
  H   H434      1.0  0.52522  0.24971  0.09863  1.0000
  H   H435      1.0  0.74858  0.26001  0.18090  1.0000
  C   C260      1.0  0.71074  0.46703  0.04006  1.0000
  H   H436      1.0  0.70827  0.08023  0.06454  1.0000
  H   H437      1.0  0.55554  0.20667  0.12947  1.0000
  C   C261      1.0  0.77441  0.34649  0.12232  1.0000
  C   C262      1.0  0.78748  0.28551  0.14260  1.0000
  C   C263      1.0  0.73546  0.10893  0.01872  1.0000
  N   N19       1.0  0.79373  0.20210  0.28920  1.0000
  C   C264      1.0  0.78550  0.17589  0.26087  1.0000
  C   C265      1.0  0.48692  0.27157  0.05376  1.0000
  C   C266      1.0  0.83164  0.22991  0.28627  1.0000
  C   C267      1.0  0.77173  0.21665  0.28491  1.0000
  C   C268      1.0  0.79712  0.19021  0.22480  1.0000
  C   C269      1.0  0.52803  0.28324  0.13868  1.0000
  H   H438      1.0  0.76534  0.47200  0.15546  1.0000
  H   H439      1.0  0.57046  0.24933  0.17086  1.0000
  H   H440      1.0  0.79724  0.16088  0.26544  1.0000
  H   H441      1.0  0.75730  0.15644  0.25978  1.0000
  H   H442      1.0  0.48402  0.29068  0.06744  1.0000
  H   H443      1.0  0.53908  0.30484  0.12073  1.0000
  C   C270      1.0  0.50903  0.25720  0.27196  1.0000
  H   H444      1.0  0.83656  0.24777  0.26556  1.0000
  H   H445      1.0  0.77974  0.23199  0.26152  1.0000
  H   H446      1.0  0.74439  0.19581  0.28030  1.0000
  H   H447      1.0  0.82557  0.20714  0.22194  1.0000
  H   H448      1.0  0.78911  0.16825  0.20660  1.0000
  H   H449      1.0  0.78500  0.20389  0.21691  1.0000
  H   H450      1.0  0.51783  0.28347  0.28197  1.0000
  H   H451      1.0  0.74613  0.23739  0.31527  1.0000
  H   H452      1.0  0.78253  0.25880  0.00496  1.0000
  C   C271      1.0  0.52830  0.19899  0.12662  1.0000
  N   N20       1.0  0.52191  0.22450  0.14510  1.0000
  H   H453      1.0  0.51205  0.17298  0.13781  1.0000
  H   H454      1.0  0.75057  0.09753  0.02388  1.0000
  C   C272      1.0  0.53550  0.25625  0.12435  1.0000
  H   H455      1.0  0.79075  0.38281  0.19253  1.0000
  H   H456      1.0  0.49801  0.20427  0.00368  1.0000
  H   H457      1.0  0.52387  0.17160  0.07898  1.0000
  C   C273      1.0  0.69093  0.27169  0.19373  1.0000
  H   H458      1.0  0.79638  0.30423  0.12209  1.0000
  H   H459      1.0  0.50743  0.19514  0.21298  1.0000
  H   H460      1.0  0.72797  0.31926  0.21742  1.0000
  H   H461      1.0  0.84687  0.21825  0.27916  1.0000
  H   H462      1.0  0.49278  0.23485  0.32125  1.0000
  H   H463      1.0  0.56385  0.26959  0.12030  1.0000
  C   C274      1.0  0.49501  0.22310  0.01785  1.0000
  H   H464      1.0  0.73394  0.28548  0.22510  1.0000
  H   H465      1.0  0.71858  0.15699  0.01082  1.0000
  C   C275      1.0  0.71234  0.10263  0.05060  1.0000
  H   H466      1.0  0.54057  0.29483  0.16311  1.0000
  H   H467      1.0  0.54344  0.21663  0.07428  1.0000
  C   C276      1.0  0.52257  0.19396  0.08813  1.0000
  C   C277      1.0  0.75620  0.01499  0.01098  1.0000
  H   H468      1.0  0.82203  0.38437  0.21873  1.0000
  S   S81       1.0  0.67076  0.31706  0.02453  1.0000
  H   H469      1.0  0.74197  0.34662  0.16361  1.0000
  H   H470      1.0  0.81200  0.34317  0.17529  1.0000
  H   H471      1.0  0.78181  0.26086  0.13050  1.0000
  C   C278      1.0  0.53384  0.20722  0.20190  1.0000
  H   H472      1.0  0.49733  0.18876  0.08090  1.0000
  H   H473      1.0  0.87564  0.27360  0.31114  1.0000
  H   H474      1.0  0.75014  0.45764  0.11376  1.0000
  C   C279      1.0  0.77177  0.24052  0.31343  1.0000
  H   H475      1.0  0.50016  0.25389  0.24570  1.0000
  C   C280      1.0  0.48431  0.20786  0.15476  1.0000
  C   C281      1.0  0.84895  0.25252  0.31806  1.0000
  H   H476      1.0  0.73975  0.13238  0.31044  1.0000
  C   C282      1.0  0.76699  0.48108  0.12951  1.0000
  S   S82       1.0  0.92414  0.17990  0.99579  1.0000
  C   C283      1.0  0.78616  0.18350  0.32205  1.0000
  H   H477      1.0  0.80211  0.17212  0.32340  1.0000
  H   H478      1.0  0.70800  0.04450  0.99517  1.0000
  H   H479      1.0  0.97414  0.24336  0.03353  1.0000
  H   H480      1.0  0.48362  0.32893  0.00862  1.0000
  Fe  Fe41      1.0  0.89339  0.18122  0.41407  1.0000
  S   S83       1.0  0.85428  0.17824  0.45193  1.0000
  S   S84       1.0  0.95140  0.20528  0.42234  1.0000
  Fe  Fe42      1.0  0.83750  0.14052  0.36021  1.0000
  S   S85       1.0  0.79476  0.13408  0.39566  1.0000
  Fe  Fe43      1.0  0.83181  0.19007  0.40900  1.0000
  S   S86       1.0  0.82230  0.23409  0.41218  1.0000
  Fe  Fe44      1.0  0.82026  0.12211  0.43548  1.0000
  S   S87       1.0  0.79566  0.08445  0.47969  1.0000
  S   S88       1.0  0.87348  0.19697  0.37187  1.0000
  S   S89       1.0  0.86036  0.12459  0.39924  1.0000
  Fe  Fe45      1.0  0.70568  0.37069  0.40436  1.0000
  S   S90       1.0  0.66430  0.31911  0.42608  1.0000
  S   S91       1.0  0.73211  0.42057  0.43711  1.0000
  H   H481      1.0  0.66640  0.40384  0.42644  1.0000
  S   S92       1.0  0.65557  0.28583  0.34925  1.0000
  Fe  Fe46      1.0  0.63341  0.31187  0.38019  1.0000
  S   S93       1.0  0.57871  0.30190  0.37953  1.0000
  Fe  Fe47      1.0  0.68932  0.29614  0.39378  1.0000
  S   S94       1.0  0.69338  0.25048  0.40762  1.0000
  S   S95       1.0  0.67365  0.36461  0.36051  1.0000
  S   S96       1.0  0.73295  0.34811  0.37646  1.0000
  C   C284      1.0  0.52928  0.23532  0.40158  1.0000
  C   C285      1.0  0.53635  0.26723  0.39130  1.0000
  C   C286      1.0  0.86424  0.04830  0.47742  1.0000
  H   H482      1.0  0.55010  0.23116  0.40291  1.0000
  H   H483      1.0  0.51389  0.29662  0.38222  1.0000
  C   C287      1.0  0.78605  0.23765  0.40810  1.0000
  C   C288      1.0  0.75224  0.20884  0.40652  1.0000
  C   C289      1.0  0.72429  0.21326  0.40587  1.0000
  C   C290      1.0  0.72971  0.24641  0.40584  1.0000
  C   C291      1.0  0.76360  0.27513  0.40620  1.0000
  C   C292      1.0  0.79149  0.27073  0.40767  1.0000
  H   H484      1.0  0.74753  0.18321  0.40664  1.0000
  H   H485      1.0  0.69820  0.19085  0.40560  1.0000
  H   H486      1.0  0.76826  0.30078  0.40636  1.0000
  H   H487      1.0  0.81748  0.29324  0.40882  1.0000
  C   C293      1.0  0.77370  0.03838  0.48060  1.0000
  C   C294      1.0  0.76460  0.01778  0.45110  1.0000
  H   H488      1.0  0.61664  0.42826  0.47148  1.0000
  C   C295      1.0  0.76481  0.02196  0.51206  1.0000
  H   H489      1.0  0.77097  0.02978  0.42668  1.0000
  H   H490      1.0  0.77155  0.03745  0.53514  1.0000
  H   H491      1.0  0.94558  0.16215  0.51612  1.0000
  C   C296      1.0  0.61734  0.40245  0.38930  1.0000
  N   N21       1.0  0.91351  0.11191  0.49134  1.0000
  H   H492      1.0  0.94738  0.23177  0.49070  1.0000
  C   C297      1.0  0.97115  0.12114  0.50921  1.0000
  C   C298      1.0  0.65180  0.42977  0.37235  1.0000
  H   H493      1.0  0.64509  0.40155  0.48977  1.0000
  H   H494      1.0  0.74250  0.45020  0.37000  1.0000
  H   H495      1.0  0.65884  0.45630  0.37944  1.0000
  H   H496      1.0  0.86908  0.03522  0.49725  1.0000
  H   H497      1.0  0.55846  0.40410  0.43578  1.0000
  H   H498      1.0  0.91332  0.13752  0.44714  1.0000
  C   C299      1.0  0.55210  0.37776  0.42906  1.0000
  H   H499      1.0  0.86317  0.09375  0.47150  1.0000
  H   H500      1.0  0.60872  0.37710  0.37652  1.0000
  H   H501      1.0  0.91151  0.13044  0.54225  1.0000
  C   C300      1.0  0.98115  0.22585  0.45612  1.0000
  H   H502      1.0  0.57338  0.34626  0.42806  1.0000
  C   C301      1.0  0.91818  0.14007  0.51588  1.0000
  N   N22       1.0  0.77923  0.19548  0.51792  1.0000
  C   C302      1.0  0.81685  0.21505  0.50739  1.0000
  C   C303      1.0  0.76352  0.15803  0.50769  1.0000
  C   C304      1.0  0.77468  0.19807  0.55561  1.0000
  C   C305      1.0  0.76220  0.21085  0.50088  1.0000
  C   C306      1.0  0.83845  0.25361  0.51781  1.0000
  C   C307      1.0  0.75626  0.14929  0.46974  1.0000
  C   C308      1.0  0.79376  0.18690  0.57735  1.0000
  C   C309      1.0  0.72293  0.19292  0.50737  1.0000
  H   H503      1.0  0.82987  0.20274  0.51700  1.0000
  H   H504      1.0  0.81975  0.21411  0.47947  1.0000
  H   H505      1.0  0.73896  0.14080  0.52188  1.0000
  H   H506      1.0  0.78059  0.14909  0.51445  1.0000
  H   H507      1.0  0.78269  0.22476  0.56369  1.0000
  H   H508      1.0  0.74689  0.18183  0.56318  1.0000
  H   H509      1.0  0.77354  0.23816  0.50924  1.0000
  H   H510      1.0  0.76762  0.21274  0.47319  1.0000
  H   H511      1.0  0.86574  0.26426  0.50985  1.0000
  H   H512      1.0  0.83040  0.26875  0.50460  1.0000
  H   H513      1.0  0.83813  0.25794  0.54553  1.0000
  H   H514      1.0  0.74966  0.12253  0.46447  1.0000
  H   H515      1.0  0.73397  0.15027  0.46219  1.0000
  H   H516      1.0  0.77893  0.16667  0.45358  1.0000
  H   H517      1.0  0.82215  0.20428  0.57446  1.0000
  H   H518      1.0  0.78589  0.15988  0.57163  1.0000
  H   H519      1.0  0.78716  0.18829  0.60447  1.0000
  H   H520      1.0  0.71751  0.20572  0.52888  1.0000
  H   H521      1.0  0.70970  0.16516  0.51271  1.0000
  H   H522      1.0  0.71092  0.19449  0.48434  1.0000
  H   H523      1.0  0.92797  0.07405  0.49017  1.0000
  H   H524      1.0  0.95472  0.15203  0.45992  1.0000
  H   H525      1.0  0.90591  0.09114  0.41491  1.0000
  C   C310      1.0  0.87528  0.08519  0.48894  1.0000
  H   H526      1.0  0.52804  0.35932  0.44326  1.0000
  H   H527      1.0  0.92062  0.08572  0.53101  1.0000
  C   C311      1.0  0.62753  0.43317  0.44513  1.0000
  C   C312      1.0  0.63957  0.38637  0.43531  1.0000
  H   H528      1.0  0.59889  0.40934  0.38207  1.0000
  H   H529      1.0  0.90309  0.17647  0.52850  1.0000
  H   H530      1.0  0.87664  0.04746  0.45325  1.0000
  H   H531      1.0  0.63100  0.36167  0.42129  1.0000
  H   H532      1.0  0.83596  0.03288  0.47351  1.0000
  N   N23       1.0  0.61709  0.39943  0.42717  1.0000
  H   H533      1.0  0.86193  0.08213  0.51397  1.0000
  C   C313      1.0  0.93029  0.10522  0.42906  1.0000
  C   C314      1.0  0.89700  0.15594  0.50911  1.0000
  H   H534      1.0  0.79370  0.20117  0.34437  1.0000
  C   C315      1.0  0.93181  0.09641  0.50558  1.0000
  H   H535      1.0  0.86879  0.13685  0.51094  1.0000
  H   H536      1.0  0.64888  0.42709  0.34446  1.0000
  C   C316      1.0  0.58079  0.37217  0.43843  1.0000
  H   H537      1.0  0.54603  0.37193  0.40182  1.0000
  H   H538      1.0  0.68369  0.45757  0.42993  1.0000
  C   C317      1.0  0.92858  0.12810  0.45754  1.0000
  H   H539      1.0  0.57892  0.36976  0.46642  1.0000
  H   H540      1.0  0.66224  0.37618  0.47653  1.0000
  C   C318      1.0  0.74941  0.46339  0.42309  1.0000
  H   H541      1.0  0.61624  0.44585  0.43256  1.0000
  H   H542      1.0  0.90389  0.16839  0.48423  1.0000
  C   C319      1.0  0.97263  0.23583  0.48695  1.0000
  C   C320      1.0  0.50878  0.27201  0.38984  1.0000
  C   C321      1.0  0.75140  0.47080  0.38883  1.0000
  C   C322      1.0  0.66671  0.46022  0.44847  1.0000
  Fe  Fe48      1.0  0.69797  0.33896  0.33407  1.0000
  H   H543      1.0  0.93662  0.08692  0.43773  1.0000
  H   H544      1.0  0.74570  0.14414  0.35414  1.0000
  H   H545      1.0  0.75977  0.48536  0.47368  1.0000
  H   H546      1.0  0.67330  0.42669  0.37758  1.0000
  H   H547      1.0  0.61671  0.35563  0.48118  1.0000
  H   H548      1.0  0.95161  0.12202  0.41105  1.0000
  H   H549      1.0  0.67523  0.46051  0.47437  1.0000
  C   C323      1.0  0.64064  0.37977  0.47300  1.0000
  H   H550      1.0  0.97787  0.14207  0.52824  1.0000
  H   H551      1.0  0.77557  0.23438  0.33877  1.0000
  C   C324      1.0  0.49513  0.20866  0.41017  1.0000
  H   H552      1.0  0.98188  0.10643  0.51825  1.0000
  H   H553      1.0  0.49010  0.18415  0.41810  1.0000
  H   H554      1.0  0.83572  0.26481  0.32908  1.0000
  C   C325      1.0  0.74825  0.15439  0.32854  1.0000
  H   H555      1.0  0.85136  0.23763  0.33777  1.0000
  H   H556      1.0  0.67185  0.48642  0.44517  1.0000
  H   H557      1.0  0.73072  0.16383  0.32828  1.0000
  H   H558      1.0  0.77264  0.08446  0.97997  1.0000
  H   H559      1.0  0.73281  0.10170  0.93243  1.0000
  H   H560      1.0  0.68767  0.10424  0.95172  1.0000
  H   H561      1.0  0.68948  0.04327  0.93334  1.0000
  H   H562      1.0  0.74443  0.05742  0.94679  1.0000
  H   H563      1.0  0.78383  0.09688  0.93702  1.0000
  H   H564      1.0  0.80152  0.04580  0.97975  1.0000
  H   H565      1.0  0.65330  0.04383  0.95193  1.0000
  C   C326      1.0  0.76192  0.08450  0.95560  1.0000
  H   H566      1.0  0.65871  0.00922  0.95998  1.0000
  H   H567      1.0  0.76477  0.13252  0.95995  1.0000
  H   H568      1.0  0.78760  0.99838  0.93801  1.0000
  C   C327      1.0  0.77826  0.02059  0.98309  1.0000
  C   C328      1.0  0.74395  0.10466  0.95768  1.0000
  C   C329      1.0  0.67282  0.03751  0.95630  1.0000
  C   C330      1.0  0.96874  0.21263  0.98900  1.0000
  H   H569      1.0  0.97244  0.18831  0.94274  1.0000
  C   C331      1.0  0.77027  0.99351  0.95940  1.0000
  H   H570      1.0  0.74029  0.16361  0.97004  1.0000
  C   C332      1.0  0.69352  0.05632  0.98826  1.0000
  C   C333      1.0  0.71494  0.14950  0.98356  1.0000
  C   C334      1.0  0.69629  0.11005  0.97837  1.0000
  H   H571      1.0  0.69894  0.15837  0.97367  1.0000
  N   N24       1.0  0.71717  0.09488  0.98575  1.0000
  H   H572      1.0  0.80466  0.54692  0.03186  1.0000
  Fe  Fe49      1.0  0.82851  0.66956  0.10775  1.0000
  S   S97       1.0  0.78198  0.65050  0.07635  1.0000
  S   S98       1.0  0.81293  0.65324  0.16304  1.0000
  Fe  Fe50      1.0  0.87544  0.69217  0.04348  1.0000
  Fe  Fe51      1.0  0.81230  0.69845  0.04569  1.0000
  C   C335      1.0  0.82105  0.76014  0.31382  1.0000
  Fe  Fe52      1.0  0.80252  0.62594  0.04137  1.0000
  S   S99       1.0  0.75750  0.57099  0.02765  1.0000
  S   S100      1.0  0.85802  0.71962  0.07978  1.0000
  S   S101      1.0  0.84813  0.64310  0.07381  1.0000
  H   H573      1.0  0.79269  0.56508  0.09660  1.0000
  H   H574      1.0  0.75788  0.65806  0.27271  1.0000
  C   C336      1.0  0.75103  0.52963  0.03357  1.0000
  C   C337      1.0  0.77848  0.52493  0.03450  1.0000
  H   H575      1.0  0.76878  0.76382  0.29940  1.0000
  H   H576      1.0  0.73982  0.72139  0.28322  1.0000
  C   C338      1.0  0.72614  0.98179  0.01465  1.0000
  C   C339      1.0  0.83327  0.56049  0.11281  1.0000
  H   H577      1.0  0.82737  0.54318  0.09027  1.0000
  C   C340      1.0  0.86047  0.70138  0.26689  1.0000
  C   C341      1.0  0.87643  0.71970  0.23707  1.0000
  C   C342      1.0  0.86256  0.70538  0.20502  1.0000
  C   C343      1.0  0.83226  0.67266  0.20248  1.0000
  C   C344      1.0  0.81617  0.65451  0.23234  1.0000
  C   C345      1.0  0.83037  0.66851  0.26428  1.0000
  H   H578      1.0  0.89970  0.74517  0.23875  1.0000
  H   H579      1.0  0.87524  0.71970  0.18233  1.0000
  H   H580      1.0  0.79246  0.62943  0.23082  1.0000
  H   H581      1.0  0.81780  0.65400  0.28691  1.0000
  C   C346      1.0  0.74788  0.75359  0.01533  1.0000
  H   H582      1.0  0.79272  0.77228  0.24543  1.0000
  H   H583      1.0  0.76708  0.52044  0.19543  1.0000
  S   S102      1.0  0.87754  0.72160  0.30677  1.0000
  H   H584      1.0  0.83227  0.98306  0.00951  1.0000
  H   H585      1.0  0.75121  0.57536  0.10496  1.0000
  H   H586      1.0  0.82258  0.56792  0.21985  1.0000
  C   C347      1.0  0.73297  0.55575  0.12327  1.0000
  C   C348      1.0  0.75917  0.73621  0.30317  1.0000
  H   H587      1.0  0.77182  0.70793  0.24831  1.0000
  H   H588      1.0  0.79659  0.58322  0.20808  1.0000
  H   H589      1.0  0.68579  0.64637  0.04171  1.0000
  H   H590      1.0  0.84039  0.55081  0.13384  1.0000
  H   H591      1.0  0.85695  0.58590  0.10694  1.0000
  C   C349      1.0  0.79547  0.72840  0.26133  1.0000
  H   H592      1.0  0.74963  0.50750  0.10164  1.0000
  H   H593      1.0  0.72683  0.66498  0.29496  1.0000
  S   S103      1.0  0.93412  0.71919  0.03292  1.0000
  H   H594      1.0  0.81480  0.59286  0.13043  1.0000
  H   H595      1.0  0.69471  0.62216  0.06859  1.0000
  C   C350      1.0  0.76965  0.74172  0.00627  1.0000
  N   N25       1.0  0.78835  0.73046  0.29875  1.0000
  H   H596      1.0  0.72731  0.49056  0.14052  1.0000
  C   C351      1.0  0.75187  0.55360  0.15341  1.0000
  H   H597      1.0  0.79343  0.49272  0.11893  1.0000
  H   H598      1.0  0.80437  0.52649  0.17477  1.0000
  C   C352      1.0  0.80346  0.56569  0.12139  1.0000
  C   C353      1.0  0.75365  0.50528  0.12862  1.0000
  C   C354      1.0  0.70161  0.63511  0.04384  1.0000
  H   H599      1.0  0.83622  0.78134  0.24724  1.0000
  H   H600      1.0  0.71569  0.56421  0.13289  1.0000
  S   S104      1.0  0.83081  0.67315  0.00817  1.0000
  H   H601      1.0  0.84314  0.75743  0.30687  1.0000
  C   C355      1.0  0.71715  0.50040  0.03624  1.0000
  H   H602      1.0  0.82780  0.78508  0.30330  1.0000
  H   H603      1.0  0.73874  0.87599  0.02402  1.0000
  C   C356      1.0  0.74542  0.85809  0.01204  1.0000
  H   H604      1.0  0.71662  0.53057  0.10996  1.0000
  H   H605      1.0  0.81458  0.72093  0.25714  1.0000
  H   H606      1.0  0.76647  0.58003  0.16479  1.0000
  H   H607      1.0  0.83378  0.59216  0.18221  1.0000
  H   H608      1.0  0.76280  0.85582  0.02855  1.0000
  H   H609      1.0  0.74024  0.75332  0.04161  1.0000
  C   C357      1.0  0.80901  0.76153  0.24129  1.0000
  H   H610      1.0  0.70882  0.97695  0.03605  1.0000
  H   H611      1.0  0.73183  0.53717  0.17274  1.0000
  C   C358      1.0  0.81168  0.57257  0.19776  1.0000
  S   S105      1.0  0.78389  0.72654  0.03867  1.0000
  N   N26       1.0  0.77523  0.54063  0.14517  1.0000
  H   H612      1.0  0.80882  0.75527  0.21381  1.0000
  H   H613      1.0  0.79307  0.92430  0.02039  1.0000
  H   H614      1.0  0.69563  0.50353  0.03527  1.0000
  C   C359      1.0  0.78888  0.53818  0.17818  1.0000
  H   H615      1.0  0.72914  0.65604  0.04454  1.0000
  C   C360      1.0  0.96412  0.73044  0.99800  1.0000
  H   H616      1.0  0.82242  0.89723  0.01800  1.0000
  H   H617      1.0  0.80303  0.69541  0.31208  1.0000
  C   C361      1.0  0.77997  0.69723  0.31384  1.0000
  H   H618      1.0  0.72103  0.83232  0.01049  1.0000
  C   C362      1.0  0.74997  0.66387  0.29768  1.0000
  H   H619      1.0  0.69506  0.92941  0.99448  1.0000
  H   H620      1.0  0.85560  0.96350  0.99653  1.0000
  C   C363      1.0  0.79881  0.92957  0.99291  1.0000
  H   H621      1.0  0.74266  0.64183  0.31410  1.0000
  H   H622      1.0  0.70459  0.59310  0.02374  1.0000
  C   C364      1.0  0.77207  0.49152  0.03773  1.0000
  C   C365      1.0  0.69429  0.60845  0.01516  1.0000
  H   H623      1.0  0.75845  0.66716  0.99425  1.0000
  H   H624      1.0  0.66576  0.59026  0.01468  1.0000
  H   H625      1.0  0.80222  0.84032  0.00781  1.0000
  H   H626      1.0  0.71892  0.77451  0.99830  1.0000
  H   H627      1.0  0.75518  0.62743  0.99657  1.0000
  Fe  Fe53      1.0  0.85769  0.69812  0.35901  1.0000
  S   S106      1.0  0.80223  0.66029  0.37233  1.0000
  Fe  Fe54      1.0  0.87978  0.70116  0.43202  1.0000
  S   S107      1.0  0.82454  0.66288  0.44971  1.0000
  S   S108      1.0  0.92155  0.72420  0.47250  1.0000
  Fe  Fe55      1.0  0.82072  0.63281  0.40167  1.0000
  S   S109      1.0  0.79592  0.57521  0.38793  1.0000
  Fe  Fe56      1.0  0.81053  0.69371  0.41903  1.0000
  S   S110      1.0  0.76824  0.70573  0.42870  1.0000
  S   S111      1.0  0.87644  0.66944  0.38574  1.0000
  S   S112      1.0  0.86553  0.73324  0.40406  1.0000
  Fe  Fe57      1.0  0.63003  0.80762  0.55117  1.0000
  S   S113      1.0  0.65279  0.86299  0.56868  1.0000
  S   S114      1.0  0.57315  0.76272  0.55581  1.0000
  Fe  Fe58      1.0  0.70207  0.81721  0.54104  1.0000
  S   S115      1.0  0.72851  0.87282  0.55851  1.0000
  S   S116      1.0  0.74160  0.80140  0.53175  1.0000
  Fe  Fe59      1.0  0.68761  0.85488  0.59986  1.0000
  H   H628      1.0  0.74760  0.76715  0.59803  1.0000
  Fe  Fe60      1.0  0.69250  0.87717  0.52611  1.0000
  S   S117      1.0  0.71389  0.91869  0.48508  1.0000
  S   S118      1.0  0.66342  0.79932  0.58456  1.0000
  S   S119      1.0  0.66731  0.82187  0.50640  1.0000
  H   H629      1.0  0.80338  0.89687  0.60510  1.0000
  C   C366      1.0  0.73724  0.96494  0.48453  1.0000
  H   H630      1.0  0.96988  0.75747  0.52614  1.0000
  C   C367      1.0  0.70625  0.79979  0.43697  1.0000
  C   C368      1.0  0.77766  0.53245  0.40267  1.0000
  C   C369      1.0  0.69642  0.76715  0.64283  1.0000
  C   C370      1.0  0.77516  0.52500  0.43702  1.0000
  C   C371      1.0  0.78754  0.84720  0.62570  1.0000
  H   H631      1.0  0.78400  0.54561  0.45578  1.0000
  C   C372      1.0  0.76146  0.73230  0.45810  1.0000
  C   C373      1.0  0.72920  0.72890  0.45933  1.0000
  C   C374      1.0  0.72246  0.74934  0.48182  1.0000
  C   C375      1.0  0.74817  0.77419  0.50306  1.0000
  C   C376      1.0  0.78048  0.77767  0.50180  1.0000
  C   C377      1.0  0.78709  0.75691  0.47959  1.0000
  H   H632      1.0  0.70898  0.70976  0.44317  1.0000
  H   H633      1.0  0.69711  0.74534  0.48311  1.0000
  H   H634      1.0  0.80060  0.79651  0.51821  1.0000
  H   H635      1.0  0.81204  0.75994  0.47912  1.0000
  H   H636      1.0  0.77449  0.91571  0.38703  1.0000
  H   H637      1.0  0.77806  0.92997  0.43078  1.0000
  H   H638      1.0  0.90145  0.58593  0.39278  1.0000
  C   C378      1.0  0.52624  0.77495  0.52732  1.0000
  C   C379      1.0  0.53138  0.75267  0.54528  1.0000
  H   H639      1.0  0.84581  0.88137  0.40660  1.0000
  C   C380      1.0  0.76752  0.86401  0.47047  1.0000
  H   H640      1.0  0.54828  0.79925  0.51886  1.0000
  H   H641      1.0  0.50581  0.70341  0.56940  1.0000
  H   H642      1.0  0.74082  0.91816  0.40769  1.0000
  C   C381      1.0  0.96660  0.74048  0.47404  1.0000
  H   H643      1.0  0.84774  0.78591  0.36001  1.0000
  S   S120      1.0  0.70558  0.87769  0.65316  1.0000
  H   H644      1.0  0.73881  0.96603  0.43001  1.0000
  H   H645      1.0  0.81210  0.90591  0.41851  1.0000
  H   H646      1.0  0.81461  0.74223  0.36642  1.0000
  H   H647      1.0  0.70495  0.79889  0.46492  1.0000
  H   H648      1.0  0.81036  0.83818  0.41189  1.0000
  C   C382      1.0  0.79694  0.87763  0.41354  1.0000
  H   H649      1.0  0.77369  0.69608  0.34124  1.0000
  H   H650      1.0  0.79575  0.89509  0.64978  1.0000
  H   H651      1.0  0.79224  0.89983  0.51249  1.0000
  H   H652      1.0  0.75716  0.81009  0.43365  1.0000
  H   H653      1.0  0.77682  0.91534  0.48223  1.0000
  N   N27       1.0  0.90302  0.61825  0.46011  1.0000
  C   C383      1.0  0.92656  0.64336  0.48700  1.0000
  C   C384      1.0  0.87039  0.61835  0.46198  1.0000
  C   C385      1.0  0.92065  0.63172  0.42618  1.0000
  C   C386      1.0  0.89679  0.58314  0.46610  1.0000
  C   C387      1.0  0.77107  0.77605  0.61261  1.0000
  C   C388      1.0  0.85226  0.61122  0.49713  1.0000
  C   C389      1.0  0.90124  0.60985  0.39480  1.0000
  C   C390      1.0  0.86224  0.55131  0.45411  1.0000
  H   H654      1.0  0.92894  0.66856  0.48527  1.0000
  H   H655      1.0  0.91561  0.63398  0.51278  1.0000
  H   H656      1.0  0.85106  0.59956  0.44379  1.0000
  H   H657      1.0  0.87599  0.64390  0.45441  1.0000
  H   H658      1.0  0.92660  0.65834  0.42288  1.0000
  H   H659      1.0  0.94588  0.63400  0.42440  1.0000
  H   H660      1.0  0.91782  0.58103  0.45398  1.0000
  H   H661      1.0  0.89783  0.57931  0.49354  1.0000
  H   H662      1.0  0.72739  0.80453  0.60530  1.0000
  H   H663      1.0  0.79407  0.79467  0.59730  1.0000
  H   H664      1.0  0.82733  0.86797  0.44791  1.0000
  H   H665      1.0  0.85155  0.59003  0.51009  1.0000
  H   H666      1.0  0.86517  0.63489  0.51350  1.0000
  H   H667      1.0  0.82528  0.60398  0.49423  1.0000
  H   H668      1.0  0.91493  0.62475  0.37176  1.0000
  H   H669      1.0  0.87451  0.60357  0.39384  1.0000
  H   H670      1.0  0.96391  0.62723  0.48476  1.0000
  H   H671      1.0  0.84023  0.54735  0.47027  1.0000
  H   H672      1.0  0.86297  0.52780  0.45632  1.0000
  H   H673      1.0  0.85668  0.55235  0.42746  1.0000
  H   H674      1.0  0.74342  0.81802  0.39565  1.0000
  C   C391      1.0  0.74390  0.82203  0.42365  1.0000
  C   C392      1.0  0.74687  0.98559  0.51406  1.0000
  H   H675      1.0  0.81407  0.85558  0.63308  1.0000
  C   C393      1.0  0.78954  0.90104  0.48491  1.0000
  H   H676      1.0  0.68963  0.80836  0.42827  1.0000
  H   H677      1.0  0.79253  0.87441  0.38578  1.0000
  H   H678      1.0  0.76728  0.51039  0.35213  1.0000
  C   C394      1.0  0.82121  0.76544  0.35250  1.0000
  H   H679      1.0  0.76007  0.87373  0.62119  1.0000
  H   H680      1.0  0.49000  0.76778  0.59780  1.0000
  H   H681      1.0  0.72185  0.86956  0.44219  1.0000
  H   H682      1.0  0.74007  0.97354  0.53846  1.0000
  H   H683      1.0  0.97606  0.66480  0.51065  1.0000
  C   C395      1.0  0.74121  0.87352  0.42200  1.0000
  H   H684      1.0  0.72581  0.85878  0.39945  1.0000
  C   C396      1.0  0.50224  0.72110  0.55587  1.0000
  H   H685      1.0  0.69488  0.77282  0.42747  1.0000
  H   H686      1.0  0.77915  0.84984  0.47871  1.0000
  C   C397      1.0  0.76026  0.91158  0.41152  1.0000
  C   C398      1.0  0.82104  0.86518  0.42077  1.0000
  H   H687      1.0  0.74221  0.85209  0.48413  1.0000
  N   N28       1.0  0.76284  0.86007  0.43272  1.0000
  H   H688      1.0  0.77293  0.75333  0.61594  1.0000
  C   C399      1.0  0.96352  0.65104  0.48668  1.0000
  C   C400      1.0  0.76553  0.50505  0.37876  1.0000
  H   H689      1.0  0.78531  0.83846  0.59870  1.0000
  H   H690      1.0  0.81599  0.91551  0.47380  1.0000
  C   C401      1.0  0.78627  0.87990  0.62578  1.0000
  C   C402      1.0  0.74638  0.98144  0.45310  1.0000
  C   C403      1.0  0.52732  0.75728  0.63786  1.0000
  H   H691      1.0  0.49896  0.80560  0.62046  1.0000
  H   H692      1.0  0.53871  0.77462  0.61597  1.0000
  H   H693      1.0  0.97247  0.72656  0.42280  1.0000
  H   H694      1.0  0.71444  0.69948  0.33462  1.0000
  H   H695      1.0  0.97963  0.66873  0.46601  1.0000
  H   H696      1.0  0.51083  0.73020  0.62874  1.0000
  C   C404      1.0  0.72564  0.80434  0.63346  1.0000
  H   H697      1.0  0.54927  0.75964  0.65108  1.0000
  H   H698      1.0  0.75261  0.72576  0.35923  1.0000
  C   C405      1.0  0.49248  0.76544  0.51969  1.0000
  H   H699      1.0  0.80432  0.77467  0.36094  1.0000
  H   H700      1.0  0.67233  0.76656  0.64839  1.0000
  C   C406      1.0  0.76131  0.49074  0.44709  1.0000
  N   N29       1.0  0.76073  0.81820  0.64770  1.0000
  H   H701      1.0  0.69065  0.74924  0.62078  1.0000
  H   H702      1.0  0.71649  0.82164  0.64080  1.0000
  H   H703      1.0  0.72995  0.74330  0.34379  1.0000
  H   H704      1.0  0.48894  0.78262  0.50524  1.0000
  C   C407      1.0  0.73850  0.72539  0.33722  1.0000
  C   C408      1.0  0.77014  0.79159  0.64771  1.0000
  C   C409      1.0  0.69754  0.64702  0.97269  1.0000
  H   H705      1.0  0.59682  0.83288  0.77627  1.0000
  Fe  Fe61      1.0  0.69761  0.80386  0.91622  1.0000
  S   S121      1.0  0.72062  0.85002  0.88266  1.0000
  S   S122      1.0  0.73150  0.78191  0.92426  1.0000
  Fe  Fe62      1.0  0.62693  0.79771  0.91871  1.0000
  S   S123      1.0  0.64669  0.84458  0.88688  1.0000
  S   S124      1.0  0.57080  0.75560  0.93212  1.0000
  Fe  Fe63      1.0  0.67149  0.82265  0.85349  1.0000
  S   S125      1.0  0.65789  0.80636  0.79767  1.0000
  Fe  Fe64      1.0  0.69466  0.86913  0.91870  1.0000
  S   S126      1.0  0.73206  0.92705  0.93240  1.0000
  S   S127      1.0  0.65038  0.77527  0.88453  1.0000
  S   S128      1.0  0.67302  0.82342  0.95320  1.0000
  C   C410      1.0  0.73573  0.76571  0.99078  1.0000
  C   C411      1.0  0.74019  0.96031  0.96308  1.0000
  H   H706      1.0  0.79006  0.84635  0.69191  1.0000
  H   H707      1.0  0.72936  0.57610  0.96237  1.0000
  H   H708      1.0  0.75221  0.64310  0.92390  1.0000
  H   H709      1.0  0.79015  0.91640  0.92678  1.0000
  H   H710      1.0  0.68867  0.55049  0.98504  1.0000
  C   C412      1.0  0.74537  0.76637  0.95664  1.0000
  H   H711      1.0  0.69580  0.67889  0.93522  1.0000
  H   H712      1.0  0.70059  0.60047  0.92921  1.0000
  H   H713      1.0  0.74486  0.82182  0.73518  1.0000
  H   H714      1.0  0.57298  0.78924  0.86109  1.0000
  H   H715      1.0  0.83405  0.93313  0.93541  1.0000
  C   C413      1.0  0.51194  0.75554  0.83096  1.0000
  H   H716      1.0  0.53944  0.72473  0.78816  1.0000
  C   C414      1.0  0.77926  0.74235  0.97213  1.0000
  C   C415      1.0  0.69213  0.85727  0.69305  1.0000
  C   C416      1.0  0.70778  0.87690  0.72259  1.0000
  C   C417      1.0  0.69794  0.86186  0.75480  1.0000
  C   C418      1.0  0.67239  0.82684  0.75783  1.0000
  C   C419      1.0  0.65707  0.80710  0.72821  1.0000
  C   C420      1.0  0.66669  0.82220  0.69605  1.0000
  H   H717      1.0  0.72749  0.90406  0.72059  1.0000
  H   H718      1.0  0.70998  0.87742  0.77726  1.0000
  H   H719      1.0  0.63743  0.77993  0.73018  1.0000
  H   H720      1.0  0.65434  0.80677  0.67363  1.0000
  C   C421      1.0  0.50152  0.71749  0.91844  1.0000
  C   C422      1.0  0.53068  0.75078  0.92452  1.0000
  C   C423      1.0  0.52659  0.77869  0.92645  1.0000
  H   H721      1.0  0.50436  0.69569  0.91693  1.0000
  H   H722      1.0  0.58278  0.75667  0.79682  1.0000
  H   H723      1.0  0.51270  0.74855  0.85717  1.0000
  H   H724      1.0  0.66912  0.63395  0.97672  1.0000
  H   H725      1.0  0.59555  0.79562  0.75812  1.0000
  H   H726      1.0  0.59993  0.80961  0.82607  1.0000
  H   H727      1.0  0.83694  0.97651  0.96559  1.0000
  C   C424      1.0  0.55480  0.72491  0.83887  1.0000
  H   H728      1.0  0.69121  0.54571  0.94030  1.0000
  C   C425      1.0  0.58092  0.80815  0.76204  1.0000
  H   H729      1.0  0.55662  0.83488  0.82342  1.0000
  H   H730      1.0  0.78326  0.85776  0.91299  1.0000
  H   H731      1.0  0.81331  0.89262  0.88728  1.0000
  H   H732      1.0  0.57426  0.74233  0.85761  1.0000
  H   H733      1.0  0.52890  0.71040  0.85121  1.0000
  C   C426      1.0  0.95468  0.72750  0.96426  1.0000
  C   C427      1.0  0.57323  0.79937  0.83598  1.0000
  H   H734      1.0  0.56134  0.70574  0.83081  1.0000
  C   C428      1.0  0.55609  0.74440  0.80752  1.0000
  H   H735      1.0  0.75627  0.85267  0.68345  1.0000
  H   H736      1.0  0.66437  0.57932  0.95634  1.0000
  H   H737      1.0  0.74430  0.78671  0.71409  1.0000
  C   C429      1.0  0.76723  0.64801  0.94671  1.0000
  H   H738      1.0  0.78915  0.67538  0.94585  1.0000
  H   H739      1.0  0.48511  0.70150  0.81192  1.0000
  H   H740      1.0  0.77515  0.75519  0.92137  1.0000
  C   C430      1.0  0.70623  0.66224  0.93706  1.0000
  H   H741      1.0  0.57694  0.81465  0.73666  1.0000
  C   C431      1.0  0.76307  0.83289  0.68303  1.0000
  H   H742      1.0  0.59448  0.85393  0.84714  1.0000
  C   C432      1.0  0.69297  0.59253  0.95574  1.0000
  H   H743      1.0  0.92810  0.71735  0.95858  1.0000
  H   H744      1.0  0.54860  0.80435  0.93166  1.0000
  H   H745      1.0  0.53036  0.76223  0.76158  1.0000
  H   H746      1.0  0.79622  0.73372  0.96463  1.0000
  C   C433      1.0  0.82239  0.89282  0.99009  1.0000
  C   C434      1.0  0.54565  0.78409  0.77967  1.0000
  H   H747      1.0  0.50471  0.77495  0.83396  1.0000
  H   H748      1.0  0.75262  0.76966  0.66411  1.0000
  C   C435      1.0  0.80817  0.88291  0.91349  1.0000
  H   H749      1.0  0.77896  0.63238  0.94458  1.0000
  C   C436      1.0  0.73955  0.80745  0.71059  1.0000
  H   H750      1.0  0.53190  0.79781  0.78152  1.0000
  H   H751      1.0  0.71201  0.79660  0.70589  1.0000
  C   C437      1.0  0.70127  0.56493  0.96156  1.0000
  H   H752      1.0  0.82933  0.87942  0.91937  1.0000
  C   C438      1.0  0.80764  0.90969  0.93763  1.0000
  H   H753      1.0  0.97204  0.73543  0.91184  1.0000
  H   H754      1.0  0.69426  0.64233  0.91669  1.0000
  H   H755      1.0  0.70069  0.75651  0.66512  1.0000
  C   C439      1.0  0.56873  0.82983  0.84387  1.0000
  C   C440      1.0  0.76729  0.75467  0.94761  1.0000
  H   H756      1.0  0.73438  0.67944  0.93260  1.0000
  N   N30       1.0  0.54671  0.77087  0.81353  1.0000
  H   H757      1.0  0.55308  0.82530  0.86751  1.0000
  N   N31       1.0  0.70872  0.62279  0.98041  1.0000
  H   H758      1.0  0.80078  0.84151  0.96241  1.0000
  C   C441      1.0  0.74750  0.64169  0.98110  1.0000
  H   H759      1.0  0.75695  0.84643  0.96223  1.0000
  H   H760      1.0  0.74396  0.87574  0.96302  1.0000
  C   C442      1.0  0.50779  0.76822  0.66220  1.0000
  H   H761      1.0  0.77846  0.93317  0.98394  1.0000
  H   H762      1.0  0.49053  0.79479  0.92656  1.0000
  C   C443      1.0  0.97974  0.73782  0.93776  1.0000
  N   N32       1.0  0.79764  0.89973  0.97413  1.0000
  C   C444      1.0  0.49356  0.77315  0.92358  1.0000
  H   H763      1.0  0.52507  0.79663  0.66662  1.0000
  C   C445      1.0  0.76077  0.86953  0.97603  1.0000
  H   H764      1.0  0.84925  0.91149  0.98095  1.0000
  H   H765      1.0  0.50606  0.75701  0.68689  1.0000
  C   C446      1.0  0.81536  0.85603  0.98506  1.0000
  H   H766      1.0  0.79597  0.80289  0.65890  1.0000
  H   H767      1.0  0.84036  0.85788  0.98268  1.0000
  C   C447      1.0  0.83317  0.96493  0.99071  1.0000
  C   C448      1.0  0.71822  0.95466  0.99104  1.0000
  H   H768      1.0  0.70957  0.66986  0.99029  1.0000
