data_image0
_chemical_formula_structural       CFeCS3H2C2HCHFeCH3SH4SCHCSCH4CH3CNCSH3FeH6CHCHC2HFeH2CH2FeSHCSH2CFeSHSFeS2FeSHFeSFeS3C3H4CH2C2H4C2H4C7H5SH3C2H4C2HCSHCHNC2HCHCH5C4H8CH2C2H3C2H2C2HCH3CH2CHSCH2C2HC2H2NSH3C3H3FeNC2H2FeH2CHCSH3CH3CHCH2CSC2H3SHCHCH4C2H4CHNH2FeS2FeHSFeHFeS3HC3H2CHCH5CH2NCHC2H2CSC3SHCH4C2HC2HCH8NC2H7CHCH2CH5CHCH3CHC2H2CHCH2CH3CHFeS2FeSCFeSFeHSH3SHCSFeS2FeSFeHSC3H2CH2CHCHCHC6H6CH4CHC3H7FeHCH2NC2HSC2H5CH6CHC2HC2HCHCNH4CH2C2HCH3CH4SHCHCHC3HCHCHNSH5CH3CH2CFeSCFeS2FeHFeSHSFeS2FeS2FeHFeS3HCHC3H3C8H7C2NH3CHCH2NH2CH4CH3CH2NH2C4H10CHCHCH3CH2CHCH2CH2CH3CH3CHCHC2SH5C2H2C2H3C3H2CH2CH2CH3CNSH5CH4SC2H8CHNCH4C2H2SCH2CH2C2HC2H2C4HC2H9CHCNSH3CHCH4FeS2FeS2FeCFeS3FeSFeHSFeHS2H3CHC6H4C2H4CSH2CH4CSC3H2CH2CHCH4CHCH8CHCHCFeNHC2H2SHCH3SCHCHSC2HCN2CH4NH2C2HC3HCH2NH2C4H3CHCH4CH3CH3C4H6CH4C2H6CH2CHCHCHCNC2H2CHC3HCH7CHCH3C3H2CH2SHCHCHCNHC2H4CHFeSCFeSCFeSFeS3CH3CHCHC3H4C3HCH3NHCH7CHSH2SCH3FeS2FeSFeSFeHS2FeSFeHSFeS2C8H7NCHCS2CHCHCHSCH2CH2C2HC3HCHCHCH9CH2CH3NCHCH2CH2CSC2H2FeHCH3CHC2H3CH4C2HCH11FeSCS2FeSFeCSCHCH2CNCH2CHFeH5CSHC7HSH2CHC3H7CH3SHCHCHC3HSH2CHNH8CH
_chemical_formula_sum              "C392 Fe56 S112 H672 N28"
_cell_length_a       37.4351
_cell_length_b       42.8149
_cell_length_c       58.147
_cell_angle_alpha    84.739
_cell_angle_beta     84.4195
_cell_angle_gamma    116.709

_space_group_name_H-M_alt    "P 1"
_space_group_IT_number       1

loop_
  _space_group_symop_operation_xyz
  'x, y, z'

loop_
  _atom_site_type_symbol
  _atom_site_label
  _atom_site_symmetry_multiplicity
  _atom_site_fract_x
  _atom_site_fract_y
  _atom_site_fract_z
  _atom_site_occupancy
  C   C1        1.0  0.37363  0.40135  0.12865  1.0000
  Fe  Fe1       1.0  0.26481  0.35597  0.30746  1.0000
  C   C2        1.0  0.28911  0.43554  0.21339  1.0000
  S   S1        1.0  0.23843  0.29648  0.30941  1.0000
  S   S2        1.0  0.24792  0.38825  0.28207  1.0000
  S   S3        1.0  0.33163  0.38921  0.29552  1.0000
  H   H1        1.0  0.43961  0.47166  0.14401  1.0000
  H   H2        1.0  0.34798  0.42981  0.09297  1.0000
  C   C3        1.0  0.19845  0.43759  0.25277  1.0000
  C   C4        1.0  0.29671  0.47718  0.01345  1.0000
  H   H3        1.0  0.27141  0.41276  0.22670  1.0000
  C   C5        1.0  0.35798  0.45249  0.12587  1.0000
  H   H4        1.0  0.24162  0.42329  0.19205  1.0000
  Fe  Fe2       1.0  0.31470  0.42389  0.27281  1.0000
  C   C6        1.0  0.27246  0.44127  0.19369  1.0000
  H   H5        1.0  0.20515  0.42568  0.23781  1.0000
  H   H6        1.0  0.31403  0.37688  0.18689  1.0000
  H   H7        1.0  0.26992  0.35021  0.17521  1.0000
  S   S4        1.0  0.35305  0.45080  0.23790  1.0000
  H   H8        1.0  0.38941  0.47296  0.11914  1.0000
  H   H9        1.0  0.33680  0.32519  0.31209  1.0000
  H   H10       1.0  0.29643  0.41189  0.15718  1.0000
  H   H11       1.0  0.42217  0.40869  0.10150  1.0000
  S   S5        1.0  0.31731  0.45908  0.29948  1.0000
  C   C7        1.0  0.37759  0.43409  0.16226  1.0000
  H   H12       1.0  0.35438  0.38717  0.11580  1.0000
  C   C8        1.0  0.31214  0.39690  0.15067  1.0000
  S   S6        1.0  0.20514  0.43780  0.32158  1.0000
  C   C9        1.0  0.30325  0.36675  0.17066  1.0000
  H   H13       1.0  0.43927  0.42337  0.12836  1.0000
  H   H14       1.0  0.29598  0.38388  0.13646  1.0000
  H   H15       1.0  0.30291  0.42798  0.10949  1.0000
  H   H16       1.0  0.34165  0.46862  0.09371  1.0000
  C   C10       1.0  0.41778  0.42218  0.11616  1.0000
  H   H17       1.0  0.19157  0.41902  0.26915  1.0000
  H   H18       1.0  0.35698  0.43683  0.17608  1.0000
  H   H19       1.0  0.23769  0.45794  0.00386  1.0000
  C   C11       1.0  0.33620  0.44353  0.10438  1.0000
  N   N1        1.0  0.35630  0.42164  0.14157  1.0000
  C   C12       1.0  0.32912  0.45883  0.21537  1.0000
  S   S7        1.0  0.27575  0.47850  0.15151  1.0000
  H   H20       1.0  0.34455  0.46639  0.13608  1.0000
  H   H21       1.0  0.31593  0.34904  0.16555  1.0000
  H   H22       1.0  0.17007  0.43919  0.25167  1.0000
  Fe  Fe3       1.0  0.25203  0.42060  0.31101  1.0000
  H   H23       1.0  0.38542  0.41400  0.17065  1.0000
  H   H24       1.0  0.42983  0.47411  0.17429  1.0000
  H   H25       1.0  0.42593  0.44920  0.10778  1.0000
  H   H26       1.0  0.37301  0.37951  0.14088  1.0000
  H   H27       1.0  0.22029  0.22391  0.32067  1.0000
  H   H28       1.0  0.29903  0.45233  0.01688  1.0000
  C   C13       1.0  0.26920  0.47571  0.99499  1.0000
  H   H29       1.0  0.23666  0.47516  0.27317  1.0000
  C   C14       1.0  0.23512  0.47308  0.25440  1.0000
  H   H30       1.0  0.18923  0.45940  0.21062  1.0000
  C   C15       1.0  0.47400  0.47887  0.25605  1.0000
  C   C16       1.0  0.41632  0.47004  0.15794  1.0000
  H   H31       1.0  0.44169  0.47271  0.25750  1.0000
  Fe  Fe4       1.0  0.32882  0.42147  0.32306  1.0000
  H   H32       1.0  0.28377  0.48142  0.03020  1.0000
  H   H33       1.0  0.26213  0.46970  0.24844  1.0000
  C   C17       1.0  0.29576  0.47045  0.17621  1.0000
  H   H34       1.0  0.47997  0.46241  0.24414  1.0000
  H   H35       1.0  0.47874  0.47070  0.27374  1.0000
  Fe  Fe5       1.0  0.20849  0.13365  0.62001  1.0000
  S   S8        1.0  0.15411  0.10084  0.60415  1.0000
  H   H36       1.0  0.31039  0.28327  0.32994  1.0000
  C   C18       1.0  0.22272  0.10733  0.54418  1.0000
  S   S9        1.0  0.12595  0.16344  0.61225  1.0000
  H   H37       1.0  0.26166  0.08358  0.53972  1.0000
  H   H38       1.0  0.07219  0.13456  0.37681  1.0000
  C   C19       1.0  0.21406  0.01353  0.55618  1.0000
  Fe  Fe6       1.0  0.16363  0.15247  0.58485  1.0000
  S   S10       1.0  0.16554  0.16499  0.54621  1.0000
  H   H39       1.0  0.09073  0.23505  0.33021  1.0000
  S   S11       1.0  0.22136  0.18424  0.59819  1.0000
  Fe  Fe7       1.0  0.11668  0.06845  0.44598  1.0000
  S   S12       1.0  0.17804  0.09818  0.42380  1.0000
  S   S13       1.0  0.10356  0.04337  0.48371  1.0000
  Fe  Fe8       1.0  0.07257  0.07575  0.40628  1.0000
  S   S14       1.0  0.12960  0.10535  0.38040  1.0000
  H   H40       1.0  0.20607  0.99667  0.51072  1.0000
  Fe  Fe9       1.0  0.14724  0.06568  0.39671  1.0000
  S   S15       1.0  0.17008  0.03649  0.37420  1.0000
  Fe  Fe10      1.0  0.15517  0.13542  0.40944  1.0000
  S   S16       1.0  0.18710  0.19523  0.40633  1.0000
  S   S17       1.0  0.08757  0.03329  0.41991  1.0000
  S   S18       1.0  0.09649  0.10843  0.43430  1.0000
  C   C20       1.0  0.18864  0.01121  0.38964  1.0000
  C   C21       1.0  0.45880  0.47244  0.33896  1.0000
  C   C22       1.0  0.20016  0.01812  0.41155  1.0000
  H   H41       1.0  0.06582  0.08591  0.60377  1.0000
  H   H42       1.0  0.27238  0.30984  0.64866  1.0000
  H   H43       1.0  0.17517  0.00853  0.49421  1.0000
  H   H44       1.0  0.01169  0.06869  0.50856  1.0000
  C   C23       1.0  0.31209  0.22854  0.62397  1.0000
  H   H45       1.0  0.39359  0.29693  0.36056  1.0000
  H   H46       1.0  0.45681  0.45131  0.35159  1.0000
  C   C24       1.0  0.19796  0.22195  0.37914  1.0000
  C   C25       1.0  0.20325  0.25660  0.37865  1.0000
  H   H47       1.0  0.19854  0.26577  0.39486  1.0000
  H   H48       1.0  0.28023  0.04109  0.55386  1.0000
  H   H49       1.0  0.08967  0.01901  0.63779  1.0000
  H   H50       1.0  0.26342  0.02990  0.52625  1.0000
  C   C26       1.0  0.40534  0.32457  0.36380  1.0000
  C   C27       1.0  0.99589  0.02889  0.36122  1.0000
  H   H51       1.0  0.34484  0.23826  0.62408  1.0000
  H   H52       1.0  0.37575  0.32625  0.39727  1.0000
  H   H53       1.0  0.99906  0.05768  0.46933  1.0000
  H   H54       1.0  0.10961  0.02193  0.34477  1.0000
  C   C28       1.0  0.07640  0.18315  0.41540  1.0000
  C   C29       1.0  0.14607  0.13057  0.52948  1.0000
  C   C30       1.0  0.12054  0.09550  0.53979  1.0000
  C   C31       1.0  0.10687  0.06860  0.52571  1.0000
  C   C32       1.0  0.11880  0.07685  0.50138  1.0000
  C   C33       1.0  0.14363  0.11196  0.49115  1.0000
  C   C34       1.0  0.15711  0.13871  0.50515  1.0000
  H   H55       1.0  0.11123  0.08921  0.55853  1.0000
  H   H56       1.0  0.08703  0.04154  0.53365  1.0000
  H   H57       1.0  0.15295  0.11860  0.47242  1.0000
  H   H58       1.0  0.17664  0.16582  0.49711  1.0000
  H   H59       1.0  0.08047  0.03619  0.36300  1.0000
  S   S19       1.0  0.37644  0.43774  0.34639  1.0000
  H   H60       1.0  0.22462  0.05930  0.51034  1.0000
  H   H61       1.0  0.20063  0.05876  0.61164  1.0000
  H   H62       1.0  0.30921  0.31583  0.40925  1.0000
  C   C35       1.0  0.19571  0.04044  0.52180  1.0000
  C   C36       1.0  0.10843  0.00737  0.64466  1.0000
  H   H63       1.0  0.10106  0.17592  0.41181  1.0000
  H   H64       1.0  0.16604  0.03395  0.58105  1.0000
  H   H65       1.0  0.28776  0.25727  0.41397  1.0000
  H   H66       1.0  0.11784  0.17399  0.37399  1.0000
  C   C37       1.0  0.22378  0.48090  0.32859  1.0000
  C   C38       1.0  0.08871  0.16195  0.36708  1.0000
  H   H67       1.0  0.36474  0.30884  0.32801  1.0000
  C   C39       1.0  0.30583  0.32322  0.39104  1.0000
  S   S20       1.0  0.21196  0.24850  0.63438  1.0000
  H   H68       1.0  0.28210  0.26306  0.37207  1.0000
  C   C40       1.0  0.31069  0.25597  0.40101  1.0000
  H   H69       1.0  0.22342  0.00265  0.44066  1.0000
  N   N2        1.0  0.33121  0.31446  0.37351  1.0000
  C   C41       1.0  0.09230  0.22130  0.36776  1.0000
  C   C42       1.0  0.37414  0.33193  0.37843  1.0000
  H   H70       1.0  0.34043  0.26642  0.40717  1.0000
  C   C43       1.0  0.99535  0.01574  0.64270  1.0000
  H   H71       1.0  0.19946  0.10732  0.55750  1.0000
  C   C44       1.0  0.22189  0.26809  0.33641  1.0000
  H   H72       1.0  0.27314  0.30763  0.38993  1.0000
  H   H73       1.0  0.38664  0.36123  0.37527  1.0000
  H   H74       1.0  0.02837  0.14233  0.40231  1.0000
  H   H75       1.0  0.32978  0.26569  0.36407  1.0000
  H   H76       1.0  0.30006  0.09068  0.65024  1.0000
  C   C45       1.0  0.31330  0.27465  0.37648  1.0000
  C   C46       1.0  0.12457  0.99688  0.56183  1.0000
  C   C47       1.0  0.21419  0.99713  0.42381  1.0000
  C   C48       1.0  0.23822  0.00847  0.63888  1.0000
  H   H77       1.0  0.15011  0.37696  0.63855  1.0000
  H   H78       1.0  0.17723  0.46520  0.35837  1.0000
  H   H79       1.0  0.07532  0.23547  0.37395  1.0000
  H   H80       1.0  0.19857  0.03975  0.41898  1.0000
  H   H81       1.0  0.30970  0.24763  0.61070  1.0000
  H   H82       1.0  0.20231  0.32352  0.65098  1.0000
  H   H83       1.0  0.05997  0.16951  0.43321  1.0000
  H   H84       1.0  0.29390  0.36501  0.40253  1.0000
  C   C49       1.0  0.31489  0.36236  0.38890  1.0000
  H   H85       1.0  0.21941  0.30636  0.35719  1.0000
  H   H86       1.0  0.11781  0.22833  0.37795  1.0000
  C   C50       1.0  0.03053  0.17300  0.35820  1.0000
  C   C51       1.0  0.22642  0.39337  0.64427  1.0000
  H   H87       1.0  0.19300  0.98644  0.55352  1.0000
  H   H88       1.0  0.29962  0.20220  0.61813  1.0000
  H   H89       1.0  0.02490  0.18246  0.40157  1.0000
  C   C52       1.0  0.32882  0.32873  0.34921  1.0000
  C   C53       1.0  0.28840  0.22685  0.64774  1.0000
  H   H90       1.0  0.17358  0.33356  0.63182  1.0000
  H   H91       1.0  0.18989  0.99626  0.61847  1.0000
  C   C54       1.0  0.11267  0.23844  0.34242  1.0000
  C   C55       1.0  0.03899  0.06128  0.61043  1.0000
  H   H92       1.0  0.08951  0.21199  0.41596  1.0000
  C   C56       1.0  0.99848  0.03232  0.46621  1.0000
  H   H93       1.0  0.30961  0.37193  0.37187  1.0000
  H   H94       1.0  0.26046  0.36574  0.63170  1.0000
  H   H95       1.0  0.31585  0.17824  0.65289  1.0000
  C   C57       1.0  0.23215  0.07628  0.55064  1.0000
  H   H96       1.0  0.06133  0.01666  0.33826  1.0000
  H   H97       1.0  0.15184  0.05276  0.55752  1.0000
  C   C58       1.0  0.25693  0.02093  0.54537  1.0000
  H   H98       1.0  0.43067  0.32880  0.37371  1.0000
  S   S21       1.0  0.26338  0.38542  0.33717  1.0000
  C   C59       1.0  0.01226  0.04363  0.59525  1.0000
  H   H99       1.0  0.01872  0.05471  0.57695  1.0000
  H   H100      1.0  0.09939  0.99366  0.57520  1.0000
  C   C60       1.0  0.27576  0.07019  0.64342  1.0000
  C   C61       1.0  0.20355  0.21006  0.35815  1.0000
  H   H101      1.0  0.19980  0.18345  0.35836  1.0000
  C   C62       1.0  0.21520  0.27965  0.35737  1.0000
  C   C63       1.0  0.03043  0.04748  0.63421  1.0000
  H   H102      1.0  0.21346  0.01176  0.57546  1.0000
  H   H103      1.0  0.23801  0.07643  0.56909  1.0000
  N   N3        1.0  0.06500  0.18188  0.37207  1.0000
  S   S22       1.0  0.01103  0.06545  0.39841  1.0000
  H   H104      1.0  0.22058  0.39751  0.62608  1.0000
  H   H105      1.0  0.35715  0.28880  0.64703  1.0000
  H   H106      1.0  0.41782  0.34282  0.34691  1.0000
  C   C64       1.0  0.21967  0.05203  0.62162  1.0000
  C   C65       1.0  0.16158  0.03251  0.56246  1.0000
  C   C66       1.0  0.98791  0.02716  0.38544  1.0000
  H   H107      1.0  0.29076  0.41113  0.63383  1.0000
  H   H108      1.0  0.17389  0.05057  0.51795  1.0000
  H   H109      1.0  0.34602  0.38001  0.39180  1.0000
  Fe  Fe11      1.0  0.18336  0.19145  0.62743  1.0000
  N   N4        1.0  0.20054  0.04010  0.54735  1.0000
  C   C67       1.0  0.99941  0.13346  0.36139  1.0000
  C   C68       1.0  0.04649  0.17160  0.39765  1.0000
  H   H110      1.0  0.35045  0.35748  0.34460  1.0000
  H   H111      1.0  0.30025  0.22737  0.40027  1.0000
  Fe  Fe12      1.0  0.12076  0.11396  0.63279  1.0000
  H   H112      1.0  0.21322  0.10762  0.52671  1.0000
  H   H113      1.0  0.25039  0.13275  0.54376  1.0000
  C   C69       1.0  0.25091  0.07867  0.63054  1.0000
  H   H114      1.0  0.13087  0.26743  0.34202  1.0000
  C   C70       1.0  0.18196  0.00500  0.51216  1.0000
  S   S23       1.0  0.26070  0.12304  0.62553  1.0000
  H   H115      1.0  0.13109  0.01088  0.62946  1.0000
  H   H116      1.0  0.28807  0.02881  0.65822  1.0000
  H   H117      1.0  0.01940  0.02244  0.49819  1.0000
  C   C71       1.0  0.09842  0.15816  0.34126  1.0000
  H   H118      1.0  0.13450  0.22912  0.33604  1.0000
  H   H119      1.0  0.29835  0.32690  0.34839  1.0000
  H   H120      1.0  0.25637  0.20805  0.64708  1.0000
  C   C72       1.0  0.21366  0.01687  0.62549  1.0000
  H   H121      1.0  0.11353  0.99661  0.54480  1.0000
  C   C73       1.0  0.21538  0.23307  0.33685  1.0000
  H   H122      1.0  0.01361  0.18792  0.36280  1.0000
  H   H123      1.0  0.36629  0.23491  0.65751  1.0000
  C   C74       1.0  0.26904  0.03519  0.64788  1.0000
  S   S24       1.0  0.17471  0.14268  0.65045  1.0000
  C   C75       1.0  0.07840  0.01522  0.35251  1.0000
  C   C76       1.0  0.33591  0.31023  0.32893  1.0000
  H   H124      1.0  0.25999  0.99630  0.54856  1.0000
  H   H125      1.0  0.02806  0.03898  0.45580  1.0000
  H   H126      1.0  0.28784  0.25252  0.64823  1.0000
  S   S25       1.0  0.06397  0.06925  0.65325  1.0000
  H   H127      1.0  0.14550  0.05960  0.65324  1.0000
  C   C77       1.0  0.42353  0.47229  0.33288  1.0000
  H   H128      1.0  0.05351  0.98800  0.61304  1.0000
  C   C78       1.0  0.26370  0.38658  0.64258  1.0000
  H   H129      1.0  0.01665  0.05380  0.35049  1.0000
  H   H130      1.0  0.01382  0.11638  0.35794  1.0000
  H   H131      1.0  0.13477  0.27531  0.65427  1.0000
  H   H132      1.0  0.04113  0.18151  0.33921  1.0000
  C   C79       1.0  0.17754  0.33090  0.65054  1.0000
  C   C80       1.0  0.99306  0.00840  0.48912  1.0000
  H   H133      1.0  0.08144  0.13008  0.33870  1.0000
  H   H134      1.0  0.13099  0.16515  0.33718  1.0000
  H   H135      1.0  0.18628  0.43448  0.65105  1.0000
  H   H136      1.0  0.23653  0.41939  0.65047  1.0000
  C   C81       1.0  0.15550  0.37604  0.65707  1.0000
  H   H137      1.0  0.27023  0.37979  0.65997  1.0000
  N   N5        1.0  0.18840  0.36540  0.65971  1.0000
  H   H138      1.0  0.09272  0.17478  0.32800  1.0000
  H   H139      1.0  0.98814  0.04621  0.53808  1.0000
  Fe  Fe13      1.0  0.26479  0.36457  0.73269  1.0000
  S   S26       1.0  0.31079  0.40335  0.70296  1.0000
  S   S27       1.0  0.22684  0.30600  0.73157  1.0000
  Fe  Fe14      1.0  0.27575  0.42250  0.76292  1.0000
  H   H140      1.0  0.34208  0.48531  0.97445  1.0000
  S   S28       1.0  0.25317  0.44031  0.79381  1.0000
  Fe  Fe15      1.0  0.28170  0.43781  0.71039  1.0000
  H   H141      1.0  0.15738  0.02702  0.66629  1.0000
  Fe  Fe16      1.0  0.34693  0.42716  0.73113  1.0000
  S   S29       1.0  0.41365  0.44483  0.72691  1.0000
  S   S30       1.0  0.23274  0.39749  0.73800  1.0000
  S   S31       1.0  0.30339  0.38574  0.76065  1.0000
  H   H142      1.0  0.21697  0.39005  0.68825  1.0000
  C   C82       1.0  0.35851  0.28011  0.66535  1.0000
  C   C83       1.0  0.18862  0.24260  0.68193  1.0000
  C   C84       1.0  0.28480  0.45667  0.81487  1.0000
  H   H143      1.0  0.21589  0.19206  0.68083  1.0000
  H   H144      1.0  0.17390  0.41553  0.68156  1.0000
  C   C85       1.0  0.15822  0.44777  0.78208  1.0000
  H   H145      1.0  0.12685  0.42875  0.79011  1.0000
  C   C86       1.0  0.30906  0.44160  0.82189  1.0000
  H   H146      1.0  0.12999  0.42802  0.83717  1.0000
  H   H147      1.0  0.21688  0.19450  0.71111  1.0000
  H   H148      1.0  0.15768  0.46359  0.76608  1.0000
  H   H149      1.0  0.30989  0.42031  0.81355  1.0000
  H   H150      1.0  0.46130  0.41912  0.80660  1.0000
  C   C87       1.0  0.10655  0.43658  0.83519  1.0000
  H   H151      1.0  0.33787  0.45447  0.94072  1.0000
  H   H152      1.0  0.18579  0.45247  0.81290  1.0000
  N   N6        1.0  0.30194  0.21580  0.66920  1.0000
  C   C88       1.0  0.33065  0.45295  0.84056  1.0000
  H   H153      1.0  0.26501  0.16064  0.66612  1.0000
  C   C89       1.0  0.15975  0.34716  0.70432  1.0000
  C   C90       1.0  0.18257  0.47075  0.79956  1.0000
  H   H154      1.0  0.28993  0.21511  0.70668  1.0000
  H   H155      1.0  0.16302  0.21768  0.68064  1.0000
  C   C91       1.0  0.44618  0.43605  0.80397  1.0000
  S   S32       1.0  0.32239  0.46549  0.73555  1.0000
  C   C92       1.0  0.47820  0.47369  0.79248  1.0000
  C   C93       1.0  0.25388  0.30788  0.68527  1.0000
  C   C94       1.0  0.22463  0.28890  0.70495  1.0000
  S   S33       1.0  0.26765  0.46871  0.68257  1.0000
  H   H156      1.0  0.48321  0.47955  0.69139  1.0000
  C   C95       1.0  0.26919  0.42571  0.97741  1.0000
  H   H157      1.0  0.27919  0.33296  0.68645  1.0000
  H   H158      1.0  0.40120  0.46600  0.80240  1.0000
  H   H159      1.0  0.15863  0.47594  0.86186  1.0000
  H   H160      1.0  0.35384  0.23509  0.68741  1.0000
  C   C96       1.0  0.21729  0.26210  0.66212  1.0000
  C   C97       1.0  0.23191  0.18973  0.69535  1.0000
  H   H161      1.0  0.12590  0.35626  0.66706  1.0000
  C   C98       1.0  0.33747  0.48030  0.93888  1.0000
  C   C99       1.0  0.19242  0.25592  0.70330  1.0000
  H   H162      1.0  0.39044  0.29526  0.66810  1.0000
  C   C100      1.0  0.34586  0.24016  0.66998  1.0000
  H   H163      1.0  0.14444  0.29046  0.68147  1.0000
  H   H164      1.0  0.13034  0.33004  0.69922  1.0000
  H   H165      1.0  0.16481  0.33057  0.71820  1.0000
  H   H166      1.0  0.43013  0.43522  0.82118  1.0000
  H   H167      1.0  0.45728  0.47889  0.84089  1.0000
  H   H168      1.0  0.34818  0.44038  0.84653  1.0000
  H   H169      1.0  0.41639  0.47440  0.77180  1.0000
  H   H170      1.0  0.22669  0.38651  0.95840  1.0000
  N   N7        1.0  0.27791  0.46391  0.97230  1.0000
  C   C101      1.0  0.27691  0.21749  0.69059  1.0000
  C   C102      1.0  0.25179  0.46965  0.95591  1.0000
  H   H171      1.0  0.18954  0.45131  0.94990  1.0000
  H   H172      1.0  0.09296  0.43669  0.85303  1.0000
  H   H173      1.0  0.17320  0.43195  0.77618  1.0000
  H   H174      1.0  0.19640  0.46573  0.84707  1.0000
  H   H175      1.0  0.22756  0.16229  0.69898  1.0000
  H   H176      1.0  0.27727  0.24374  0.68942  1.0000
  H   H177      1.0  0.11173  0.02934  0.67790  1.0000
  C   C103      1.0  0.30669  0.16213  0.68984  1.0000
  H   H178      1.0  0.13523  0.41472  0.66545  1.0000
  C   C104      1.0  0.28328  0.48377  0.82600  1.0000
  H   H179      1.0  0.16975  0.24103  0.71849  1.0000
  H   H180      1.0  0.08223  0.41577  0.82765  1.0000
  C   C105      1.0  0.20580  0.44986  0.96464  1.0000
  H   H181      1.0  0.11187  0.30114  0.66432  1.0000
  H   H182      1.0  0.27133  0.41943  0.93916  1.0000
  H   H183      1.0  0.24834  0.47235  0.73103  1.0000
  H   H184      1.0  0.98832  0.00523  0.66112  1.0000
  H   H185      1.0  0.28820  0.16048  0.70641  1.0000
  C   C106      1.0  0.16361  0.41223  0.66429  1.0000
  H   H186      1.0  0.15733  0.36839  0.71293  1.0000
  C   C107      1.0  0.19674  0.36315  0.68454  1.0000
  H   H187      1.0  0.10319  0.46865  0.80548  1.0000
  H   H188      1.0  0.42353  0.42373  0.79226  1.0000
  H   H189      1.0  0.33931  0.17652  0.69123  1.0000
  C   C108      1.0  0.25976  0.40397  0.95690  1.0000
  H   H190      1.0  0.27359  0.38583  0.95820  1.0000
  C   C109      1.0  0.32880  0.47996  0.85180  1.0000
  C   C110      1.0  0.13976  0.29806  0.66368  1.0000
  H   H191      1.0  0.21374  0.34780  0.68689  1.0000
  H   H192      1.0  0.19505  0.42155  0.97130  1.0000
  C   C111      1.0  0.25009  0.29460  0.66394  1.0000
  H   H193      1.0  0.29488  0.42390  0.98454  1.0000
  C   C112      1.0  0.12152  0.47312  0.82000  1.0000
  H   H194      1.0  0.25672  0.46261  0.93846  1.0000
  H   H195      1.0  0.32056  0.48243  0.92475  1.0000
  C   C113      1.0  0.29649  0.17886  0.66848  1.0000
  H   H196      1.0  0.29997  0.13461  0.68758  1.0000
  H   H197      1.0  0.19710  0.46264  0.97838  1.0000
  H   H198      1.0  0.24246  0.41101  0.99143  1.0000
  C   C114      1.0  0.13182  0.03165  0.66183  1.0000
  H   H199      1.0  0.33989  0.28756  0.67746  1.0000
  Fe  Fe17      1.0  0.33098  0.69642  0.27935  1.0000
  S   S34       1.0  0.28118  0.69937  0.26207  1.0000
  S   S35       1.0  0.39676  0.73124  0.26572  1.0000
  Fe  Fe18      1.0  0.27440  0.63203  0.31417  1.0000
  S   S36       1.0  0.21992  0.62876  0.29972  1.0000
  C   C115      1.0  0.24525  0.50649  0.21503  1.0000
  Fe  Fe19      1.0  0.25717  0.64064  0.26451  1.0000
  S   S37       1.0  0.23059  0.60655  0.23728  1.0000
  Fe  Fe20      1.0  0.24848  0.68763  0.29898  1.0000
  H   H200      1.0  0.38670  0.69863  0.17690  1.0000
  S   S38       1.0  0.30931  0.63841  0.27912  1.0000
  H   H201      1.0  0.40914  0.67291  0.15359  1.0000
  H   H202      1.0  0.33883  0.56474  0.24482  1.0000
  H   H203      1.0  0.25325  0.90278  0.30953  1.0000
  S   S39       1.0  0.37804  0.54061  0.11445  1.0000
  H   H204      1.0  0.20342  0.53507  0.23753  1.0000
  C   C116      1.0  0.20478  0.84969  0.29139  1.0000
  S   S40       1.0  0.34688  0.57512  0.15529  1.0000
  Fe  Fe21      1.0  0.37472  0.58050  0.08804  1.0000
  S   S41       1.0  0.31247  0.56965  0.10473  1.0000
  S   S42       1.0  0.39743  0.58130  0.04996  1.0000
  Fe  Fe22      1.0  0.34677  0.61231  0.12581  1.0000
  S   S43       1.0  0.33282  0.65567  0.13583  1.0000
  Fe  Fe23      1.0  0.31904  0.53339  0.13282  1.0000
  H   H205      1.0  0.03905  0.89970  0.32358  1.0000
  S   S44       1.0  0.40889  0.62529  0.10773  1.0000
  C   C117      1.0  0.45795  0.52766  0.22286  1.0000
  C   C118      1.0  0.31134  0.57336  0.00955  1.0000
  C   C119      1.0  0.33172  0.57579  0.02897  1.0000
  H   H206      1.0  0.17023  0.85402  0.26439  1.0000
  H   H207      1.0  0.31755  0.57594  0.04607  1.0000
  C   C120      1.0  0.41626  0.67493  0.21516  1.0000
  H   H208      1.0  0.46673  0.54930  0.29438  1.0000
  H   H209      1.0  0.38053  0.69912  0.31407  1.0000
  C   C121      1.0  0.20802  0.48744  0.20291  1.0000
  H   H210      1.0  0.18601  0.90757  0.31268  1.0000
  C   C122      1.0  0.27336  0.53771  0.24706  1.0000
  H   H211      1.0  0.40617  0.53289  0.23854  1.0000
  C   C123      1.0  0.22683  0.88579  0.32331  1.0000
  H   H212      1.0  0.10839  0.92447  0.32670  1.0000
  C   C124      1.0  0.25732  0.62131  0.20863  1.0000
  C   C125      1.0  0.28332  0.65713  0.20062  1.0000
  C   C126      1.0  0.30442  0.66781  0.17762  1.0000
  C   C127      1.0  0.30184  0.64255  0.16325  1.0000
  C   C128      1.0  0.27538  0.60684  0.17118  1.0000
  C   C129      1.0  0.25224  0.59647  0.19353  1.0000
  H   H213      1.0  0.28640  0.67660  0.21192  1.0000
  H   H214      1.0  0.32335  0.69556  0.17108  1.0000
  H   H215      1.0  0.27205  0.58732  0.15987  1.0000
  H   H216      1.0  0.23044  0.56915  0.19913  1.0000
  H   H217      1.0  0.32299  0.54232  0.22047  1.0000
  H   H218      1.0  0.36385  0.64706  0.19580  1.0000
  C   C130      1.0  0.38841  0.57794  0.00385  1.0000
  H   H219      1.0  0.28142  0.57161  0.01189  1.0000
  H   H220      1.0  0.39926  0.49980  0.31171  1.0000
  H   H221      1.0  0.41832  0.57967  0.00159  1.0000
  H   H222      1.0  0.35456  0.51496  0.16472  1.0000
  C   C131      1.0  0.31555  0.54029  0.23967  1.0000
  H   H223      1.0  0.06631  0.96818  0.32089  1.0000
  C   C132      1.0  0.33562  0.49338  0.17841  1.0000
  C   C133      1.0  0.37040  0.57813  0.02619  1.0000
  C   C134      1.0  0.42571  0.71956  0.28324  1.0000
  H   H224      1.0  0.19841  0.89502  0.27525  1.0000
  H   H225      1.0  0.38233  0.62066  0.31650  1.0000
  H   H226      1.0  0.43655  0.59077  0.20506  1.0000
  H   H227      1.0  0.41412  0.64021  0.17359  1.0000
  H   H228      1.0  0.40551  0.75206  0.21168  1.0000
  H   H229      1.0  0.41130  0.68494  0.23161  1.0000
  H   H230      1.0  0.21857  0.48794  0.18430  1.0000
  Fe  Fe24      1.0  0.40579  0.58395  0.13580  1.0000
  H   H231      1.0  0.45684  0.74314  0.21939  1.0000
  C   C135      1.0  0.13526  0.79242  0.32536  1.0000
  H   H232      1.0  0.43609  0.71994  0.99824  1.0000
  H   H233      1.0  0.18629  0.48834  0.28532  1.0000
  N   N8        1.0  0.43722  0.70516  0.19513  1.0000
  C   C136      1.0  0.43315  0.69335  0.32012  1.0000
  C   C137      1.0  0.38545  0.72848  0.20429  1.0000
  H   H234      1.0  0.26141  0.53407  0.20550  1.0000
  S   S45       1.0  0.44958  0.57796  0.15772  1.0000
  C   C138      1.0  0.46977  0.73606  0.20388  1.0000
  C   C139      1.0  0.45765  0.69543  0.17541  1.0000
  H   H235      1.0  0.29001  0.87216  0.31939  1.0000
  H   H236      1.0  0.36691  0.70635  0.21867  1.0000
  H   H237      1.0  0.45711  0.54229  0.20630  1.0000
  H   H238      1.0  0.43838  0.49931  0.22175  1.0000
  H   H239      1.0  0.37631  0.61903  0.21404  1.0000
  C   C140      1.0  0.46599  0.61104  0.19653  1.0000
  H   H240      1.0  0.19523  0.82291  0.28632  1.0000
  H   H241      1.0  0.01584  0.91971  0.30629  1.0000
  H   H242      1.0  0.35970  0.57795  0.30686  1.0000
  H   H243      1.0  0.38323  0.50562  0.19911  1.0000
  H   H244      1.0  0.28523  0.82865  0.32242  1.0000
  H   H245      1.0  0.12983  0.79327  0.30696  1.0000
  C   C141      1.0  0.46439  0.72560  0.27374  1.0000
  H   H246      1.0  0.29351  0.56622  0.30782  1.0000
  C   C142      1.0  0.47101  0.69781  0.31019  1.0000
  C   C143      1.0  0.17998  0.86594  0.28031  1.0000
  H   H247      1.0  0.47847  0.68590  0.18189  1.0000
  C   C144      1.0  0.43037  0.66624  0.16227  1.0000
  C   C145      1.0  0.46454  0.52787  0.30678  1.0000
  H   H248      1.0  0.21239  0.53648  0.27934  1.0000
  C   C146      1.0  0.37475  0.64441  0.21245  1.0000
  H   H249      1.0  0.27744  0.84625  0.29556  1.0000
  C   C147      1.0  0.22699  0.82865  0.32488  1.0000
  N   N9        1.0  0.20467  0.84878  0.31737  1.0000
  H   H250      1.0  0.21329  0.80167  0.31997  1.0000
  H   H251      1.0  0.44996  0.66296  0.14808  1.0000
  H   H252      1.0  0.31876  0.51793  0.24870  1.0000
  H   H253      1.0  0.27052  0.53828  0.26616  1.0000
  C   C148      1.0  0.42638  0.49983  0.31655  1.0000
  H   H254      1.0  0.40663  0.61239  0.29165  1.0000
  H   H255      1.0  0.27434  0.56282  0.23899  1.0000
  C   C149      1.0  0.20042  0.51057  0.24771  1.0000
  C   C150      1.0  0.41008  0.70339  0.30648  1.0000
  H   H256      1.0  0.40189  0.68019  0.01722  1.0000
  C   C151      1.0  0.27244  0.84543  0.31475  1.0000
  H   H257      1.0  0.43622  0.66279  0.21894  1.0000
  H   H258      1.0  0.35100  0.64156  0.22674  1.0000
  H   H259      1.0  0.42638  0.74152  0.17199  1.0000
  C   C152      1.0  0.40920  0.71813  0.18590  1.0000
  H   H260      1.0  0.36428  0.73565  0.19582  1.0000
  H   H261      1.0  0.23616  0.86531  0.28179  1.0000
  H   H262      1.0  0.17295  0.48936  0.24291  1.0000
  H   H263      1.0  0.16055  0.51276  0.27657  1.0000
  S   S46       1.0  0.30070  0.69014  0.31596  1.0000
  H   H264      1.0  0.43093  0.52121  0.25975  1.0000
  C   C153      1.0  0.18993  0.51202  0.27380  1.0000
  H   H265      1.0  0.34823  0.52220  0.32296  1.0000
  C   C154      1.0  0.47780  0.61283  0.17257  1.0000
  H   H266      1.0  0.27390  0.50483  0.30030  1.0000
  C   C155      1.0  0.43641  0.53774  0.24270  1.0000
  C   C156      1.0  0.35212  0.48780  0.19794  1.0000
  C   C157      1.0  0.38847  0.60021  0.30931  1.0000
  H   H267      1.0  0.40935  0.49240  0.15388  1.0000
  C   C158      1.0  0.02064  0.91383  0.32441  1.0000
  H   H268      1.0  0.15151  0.86010  0.29155  1.0000
  C   C159      1.0  0.25733  0.50940  0.31470  1.0000
  H   H269      1.0  0.26612  0.49521  0.21089  1.0000
  N   N10       1.0  0.23769  0.50614  0.24108  1.0000
  S   S47       1.0  0.20649  0.70909  0.31274  1.0000
  H   H270      1.0  0.18921  0.50141  0.20278  1.0000
  H   H271      1.0  0.32734  0.50006  0.00844  1.0000
  H   H272      1.0  0.47702  0.73890  0.25608  1.0000
  H   H273      1.0  0.45296  0.56603  0.24452  1.0000
  H   H274      1.0  0.48433  0.63254  0.22819  1.0000
  C   C160      1.0  0.26886  0.54409  0.31915  1.0000
  H   H275      1.0  0.47674  0.71923  0.16207  1.0000
  H   H276      1.0  0.41550  0.56594  0.31629  1.0000
  H   H277      1.0  0.44365  0.60962  0.32181  1.0000
  C   C161      1.0  0.40797  0.69478  0.99928  1.0000
  H   H278      1.0  0.38206  0.70026  0.99745  1.0000
  H   H279      1.0  0.48310  0.76020  0.19039  1.0000
  C   C162      1.0  0.41240  0.58735  0.32435  1.0000
  Fe  Fe25      1.0  0.11829  0.85277  0.63169  1.0000
  S   S48       1.0  0.13407  0.90833  0.61657  1.0000
  C   C163      1.0  0.10196  0.92014  0.34609  1.0000
  Fe  Fe26      1.0  0.19683  0.85664  0.60888  1.0000
  S   S49       1.0  0.21997  0.91279  0.59181  1.0000
  S   S50       1.0  0.23609  0.82945  0.60462  1.0000
  Fe  Fe27      1.0  0.19535  0.92163  0.62590  1.0000
  H   H280      1.0  0.11826  0.97492  0.34284  1.0000
  Fe  Fe28      1.0  0.15680  0.89450  0.58381  1.0000
  S   S51       1.0  0.14985  0.91398  0.54812  1.0000
  H   H281      1.0  0.20516  0.93978  0.38529  1.0000
  S   S52       1.0  0.13539  0.83739  0.59807  1.0000
  Fe  Fe29      1.0  0.13326  0.83685  0.39812  1.0000
  S   S53       1.0  0.20081  0.86599  0.38850  1.0000
  S   S54       1.0  0.09390  0.83704  0.37145  1.0000
  Fe  Fe30      1.0  0.13658  0.81569  0.44857  1.0000
  S   S55       1.0  0.20429  0.84186  0.44308  1.0000
  S   S56       1.0  0.10224  0.79309  0.48495  1.0000
  Fe  Fe31      1.0  0.19938  0.88625  0.42258  1.0000
  H   H282      1.0  0.20394  0.69224  0.42743  1.0000
  Fe  Fe32      1.0  0.19895  0.81850  0.40965  1.0000
  S   S57       1.0  0.24137  0.79679  0.39733  1.0000
  S   S58       1.0  0.13196  0.86161  0.43015  1.0000
  S   S59       1.0  0.13108  0.78776  0.41710  1.0000
  H   H283      1.0  0.13534  0.77296  0.53222  1.0000
  C   C164      1.0  0.99411  0.79591  0.42067  1.0000
  H   H284      1.0  0.04121  0.93105  0.40804  1.0000
  C   C165      1.0  0.02389  0.84979  0.46883  1.0000
  C   C166      1.0  0.26261  0.76845  0.36136  1.0000
  C   C167      1.0  0.01722  0.84365  0.63827  1.0000
  H   H285      1.0  0.37929  0.61745  0.35462  1.0000
  H   H286      1.0  0.47090  0.60690  0.36825  1.0000
  H   H287      1.0  0.07197  0.91630  0.44409  1.0000
  C   C168      1.0  0.23111  0.77189  0.37412  1.0000
  C   C169      1.0  0.09674  0.95072  0.35512  1.0000
  C   C170      1.0  0.13536  0.88045  0.53055  1.0000
  C   C171      1.0  0.10563  0.84603  0.53961  1.0000
  C   C172      1.0  0.09493  0.81933  0.52543  1.0000
  C   C173      1.0  0.11426  0.82692  0.50227  1.0000
  C   C174      1.0  0.14363  0.86149  0.49320  1.0000
  C   C175      1.0  0.15393  0.88823  0.50725  1.0000
  H   H288      1.0  0.09071  0.83999  0.55752  1.0000
  H   H289      1.0  0.07202  0.79269  0.53249  1.0000
  H   H290      1.0  0.15898  0.86770  0.47544  1.0000
  H   H291      1.0  0.17700  0.91481  0.50014  1.0000
  H   H292      1.0  0.16198  0.63201  0.42063  1.0000
  H   H293      1.0  0.12821  0.62391  0.38853  1.0000
  H   H294      1.0  0.28055  0.86697  0.52560  1.0000
  C   C176      1.0  0.02440  0.91471  0.37414  1.0000
  C   C177      1.0  0.19221  0.75547  0.36818  1.0000
  N   N11       1.0  0.05972  0.91181  0.48192  1.0000
  H   H295      1.0  0.01092  0.88456  0.40873  1.0000
  H   H296      1.0  0.23494  0.70412  0.39969  1.0000
  H   H297      1.0  0.99327  0.84743  0.46851  1.0000
  C   C178      1.0  0.19222  0.64685  0.40953  1.0000
  H   H298      1.0  0.43199  0.61893  0.63713  1.0000
  C   C179      1.0  0.20377  0.96156  0.39265  1.0000
  H   H299      1.0  0.33835  0.53426  0.66002  1.0000
  H   H300      1.0  0.99909  0.90141  0.49616  1.0000
  N   N12       1.0  0.19119  0.63466  0.38594  1.0000
  H   H301      1.0  0.16766  0.75771  0.37806  1.0000
  H   H302      1.0  0.11986  0.77312  0.56201  1.0000
  C   C180      1.0  0.18144  0.81293  0.54906  1.0000
  H   H303      1.0  0.21063  0.59571  0.39699  1.0000
  H   H304      1.0  0.05568  0.80475  0.41886  1.0000
  H   H305      1.0  0.03778  0.85010  0.62212  1.0000
  H   H306      1.0  0.21288  0.64091  0.41949  1.0000
  C   C181      1.0  0.02457  0.92025  0.48248  1.0000
  H   H307      1.0  0.16359  0.82675  0.35017  1.0000
  H   H308      1.0  0.07572  0.89409  0.35231  1.0000
  H   H309      1.0  0.26155  0.74459  0.65403  1.0000
  C   C182      1.0  0.39058  0.60174  0.38795  1.0000
  H   H310      1.0  0.18836  0.58869  0.37150  1.0000
  H   H311      1.0  0.14513  0.54283  0.40396  1.0000
  N   N13       1.0  0.39556  0.57554  0.35004  1.0000
  H   H312      1.0  0.30313  0.82765  0.53560  1.0000
  H   H313      1.0  0.16288  0.66491  0.37167  1.0000
  C   C183      1.0  0.20406  0.68645  0.40920  1.0000
  C   C184      1.0  0.18576  0.59735  0.38881  1.0000
  C   C185      1.0  0.14581  0.56909  0.40366  1.0000
  C   C186      1.0  0.15670  0.63688  0.37572  1.0000
  H   H314      1.0  0.14345  0.57377  0.42206  1.0000
  H   H315      1.0  0.18214  0.69365  0.40175  1.0000
  H   H316      1.0  0.05119  0.92079  0.63884  1.0000
  H   H317      1.0  0.26574  0.91439  0.53049  1.0000
  H   H318      1.0  0.11888  0.56719  0.39621  1.0000
  H   H319      1.0  0.03151  0.91324  0.52874  1.0000
  H   H320      1.0  0.26554  0.64703  0.39558  1.0000
  H   H321      1.0  0.38344  0.56479  0.64189  1.0000
  H   H322      1.0  0.09135  0.97946  0.45793  1.0000
  H   H323      1.0  0.43073  0.62970  0.35578  1.0000
  C   C187      1.0  0.26965  0.66400  0.37903  1.0000
  H   H324      1.0  0.23201  0.68391  0.36390  1.0000
  C   C188      1.0  0.23003  0.65766  0.36951  1.0000
  H   H325      1.0  0.46451  0.60307  0.64945  1.0000
  C   C189      1.0  0.25557  0.74943  0.34239  1.0000
  H   H326      1.0  0.28705  0.69220  0.38118  1.0000
  H   H327      1.0  0.18327  0.76136  0.51331  1.0000
  H   H328      1.0  0.23033  0.64629  0.35307  1.0000
  C   C190      1.0  0.04415  0.82162  0.38555  1.0000
  H   H329      1.0  0.13783  0.97800  0.46176  1.0000
  H   H330      1.0  0.21455  0.88674  0.54319  1.0000
  C   C191      1.0  0.08379  0.92850  0.50079  1.0000
  H   H331      1.0  0.11218  0.92592  0.49955  1.0000
  C   C192      1.0  0.23670  0.79707  0.54290  1.0000
  H   H332      1.0  0.01810  0.89036  0.36656  1.0000
  H   H333      1.0  0.28389  0.78135  0.53542  1.0000
  C   C193      1.0  0.35129  0.54909  0.35386  1.0000
  H   H334      1.0  0.33290  0.56175  0.34773  1.0000
  H   H335      1.0  0.99638  0.98536  0.48392  1.0000
  C   C194      1.0  0.11064  0.96695  0.45298  1.0000
  H   H336      1.0  0.48089  0.59114  0.34172  1.0000
  H   H337      1.0  0.02275  0.83431  0.35470  1.0000
  H   H338      1.0  0.28024  0.74759  0.33234  1.0000
  C   C195      1.0  0.24971  0.78066  0.63127  1.0000
  H   H339      1.0  0.41192  0.59472  0.39630  1.0000
  H   H340      1.0  0.39119  0.51358  0.65009  1.0000
  H   H341      1.0  0.09376  0.95750  0.49855  1.0000
  C   C196      1.0  0.03857  0.96008  0.62166  1.0000
  H   H342      1.0  0.03297  0.94672  0.48780  1.0000
  C   C197      1.0  0.04521  0.87241  0.48719  1.0000
  H   H343      1.0  0.40528  0.54672  0.37949  1.0000
  C   C198      1.0  0.24892  0.55006  0.33857  1.0000
  C   C199      1.0  0.27845  0.80430  0.53025  1.0000
  S   S60       1.0  0.26520  0.59290  0.34557  1.0000
  H   H344      1.0  0.47784  0.56818  0.36951  1.0000
  H   H345      1.0  0.20099  0.52591  0.36805  1.0000
  H   H346      1.0  0.19504  0.83251  0.50419  1.0000
  H   H347      1.0  0.04197  0.85877  0.45110  1.0000
  H   H348      1.0  0.12121  0.97462  0.43385  1.0000
  C   C200      1.0  0.34029  0.51571  0.34222  1.0000
  C   C201      1.0  0.39981  0.60738  0.36101  1.0000
  H   H349      1.0  0.18338  0.97848  0.36285  1.0000
  H   H350      1.0  0.42127  0.68155  0.33819  1.0000
  C   C202      1.0  0.22165  0.79271  0.62632  1.0000
  C   C203      1.0  0.46457  0.58305  0.35995  1.0000
  H   H351      1.0  0.28946  0.65893  0.36605  1.0000
  H   H352      1.0  0.07115  0.86711  0.48994  1.0000
  H   H353      1.0  0.15268  0.75429  0.55558  1.0000
  C   C204      1.0  0.21559  0.96862  0.41447  1.0000
  C   C205      1.0  0.21651  0.52145  0.35301  1.0000
  C   C206      1.0  0.08803  0.92625  0.45895  1.0000
  H   H354      1.0  0.47090  0.64582  0.65234  1.0000
  H   H355      1.0  0.01931  0.82243  0.47401  1.0000
  C   C207      1.0  0.23932  0.88839  0.53021  1.0000
  H   H356      1.0  0.39437  0.62702  0.39358  1.0000
  H   H357      1.0  0.02336  0.86069  0.50376  1.0000
  C   C208      1.0  0.14735  0.62143  0.35284  1.0000
  H   H358      1.0  0.15435  0.98314  0.52260  1.0000
  H   H359      1.0  0.35500  0.59827  0.63333  1.0000
  C   C209      1.0  0.03362  0.80743  0.40929  1.0000
  H   H360      1.0  0.27984  0.79338  0.62123  1.0000
  H   H361      1.0  0.11147  0.91684  0.45860  1.0000
  H   H362      1.0  0.10523  0.78148  0.33659  1.0000
  C   C210      1.0  0.06734  0.94985  0.63398  1.0000
  N   N14       1.0  0.22070  0.82173  0.53385  1.0000
  S   S61       1.0  0.17791  0.86708  0.64374  1.0000
  H   H363      1.0  0.33966  0.53938  0.37279  1.0000
  H   H364      1.0  0.02591  0.97502  0.37535  1.0000
  H   H365      1.0  0.23995  0.88539  0.33968  1.0000
  H   H366      1.0  0.16086  0.78517  0.63557  1.0000
  H   H367      1.0  0.25720  0.85971  0.55504  1.0000
  C   C211      1.0  0.20323  0.48710  0.34762  1.0000
  H   H368      1.0  0.07999  0.93103  0.53814  1.0000
  H   H369      1.0  0.15480  0.72283  0.34514  1.0000
  H   H370      1.0  0.29277  0.78110  0.36589  1.0000
  H   H371      1.0  0.13015  0.97384  0.56604  1.0000
  S   S62       1.0  0.23180  0.94172  0.43017  1.0000
  C   C212      1.0  0.25093  0.85871  0.53669  1.0000
  C   C213      1.0  0.06156  0.91384  0.52619  1.0000
  H   H372      1.0  0.13807  0.59272  0.35488  1.0000
  H   H373      1.0  0.12184  0.62505  0.34707  1.0000
  H   H374      1.0  0.41698  0.53616  0.35215  1.0000
  H   H375      1.0  0.38810  0.63962  0.64319  1.0000
  H   H376      1.0  0.18638  0.81582  0.56749  1.0000
  H   H377      1.0  0.09321  0.95467  0.62045  1.0000
  H   H378      1.0  0.23917  0.79812  0.56181  1.0000
  H   H379      1.0  0.16984  0.83165  0.54354  1.0000
  C   C214      1.0  0.18276  0.77617  0.63932  1.0000
  H   H380      1.0  0.24503  0.83861  0.49701  1.0000
  N   N15       1.0  0.05476  0.94759  0.35786  1.0000
  C   C215      1.0  0.14589  0.77600  0.54944  1.0000
  H   H381      1.0  0.17767  0.78309  0.48758  1.0000
  H   H382      1.0  0.02828  0.94359  0.60765  1.0000
  H   H383      1.0  0.07265  0.98245  0.38416  1.0000
  H   H384      1.0  0.35895  0.58170  0.39474  1.0000
  C   C216      1.0  0.44738  0.61826  0.65226  1.0000
  C   C217      1.0  0.41883  0.55866  0.36097  1.0000
  H   H385      1.0  0.28055  0.80807  0.51097  1.0000
  H   H386      1.0  0.17332  0.63581  0.33861  1.0000
  S   S63       1.0  0.23089  0.96501  0.64582  1.0000
  C   C218      1.0  0.00732  0.92121  0.45951  1.0000
  H   H387      1.0  0.21571  0.76904  0.54242  1.0000
  H   H388      1.0  0.02850  0.94468  0.44664  1.0000
  C   C219      1.0  0.19949  0.78480  0.49968  1.0000
  H   H389      1.0  0.18049  0.89472  0.34386  1.0000
  H   H390      1.0  0.33533  0.62489  0.64554  1.0000
  C   C220      1.0  0.21554  0.82112  0.50842  1.0000
  C   C221      1.0  0.01503  0.82415  0.37319  1.0000
  H   H391      1.0  0.23115  0.88874  0.51241  1.0000
  C   C222      1.0  0.35844  0.61550  0.64690  1.0000
  C   C223      1.0  0.03617  0.90887  0.39823  1.0000
  H   H392      1.0  0.99009  0.89604  0.33449  1.0000
  H   H393      1.0  0.22439  0.78267  0.48905  1.0000
  C   C224      1.0  0.19125  0.98336  0.38002  1.0000
  C   C225      1.0  0.16239  0.82954  0.33106  1.0000
  C   C226      1.0  0.18503  0.73588  0.34950  1.0000
  C   C227      1.0  0.21669  0.73304  0.33644  1.0000
  H   H394      1.0  0.22329  0.93388  0.32921  1.0000
  C   C228      1.0  0.23942  0.75304  0.64979  1.0000
  C   C229      1.0  0.17221  0.74812  0.65747  1.0000
  H   H395      1.0  0.06323  0.90436  0.39663  1.0000
  H   H396      1.0  0.12753  0.91823  0.35320  1.0000
  H   H397      1.0  0.10951  0.95511  0.37174  1.0000
  H   H398      1.0  0.30703  0.49852  0.34630  1.0000
  H   H399      1.0  0.01109  0.95485  0.63374  1.0000
  H   H400      1.0  0.05817  0.88705  0.53186  1.0000
  H   H401      1.0  0.35454  0.49971  0.34894  1.0000
  H   H402      1.0  0.13645  0.96124  0.65152  1.0000
  H   H403      1.0  0.99932  0.89710  0.45140  1.0000
  C   C230      1.0  0.05678  0.97906  0.36865  1.0000
  H   H404      1.0  0.99446  0.91467  0.37701  1.0000
  C   C231      1.0  0.04076  0.94885  0.33441  1.0000
  N   N16       1.0  0.08272  0.96860  0.65441  1.0000
  S   S64       1.0  0.06446  0.81851  0.65881  1.0000
  H   H405      1.0  0.01764  0.95850  0.33532  1.0000
  H   H406      1.0  0.22488  0.82501  0.34430  1.0000
  H   H407      1.0  0.99363  0.94995  0.52277  1.0000
  C   C232      1.0  0.02349  0.82782  0.65861  1.0000
  H   H408      1.0  0.29467  0.85583  0.65671  1.0000
  C   C233      1.0  0.20228  0.90625  0.32730  1.0000
  H   H409      1.0  0.14504  0.84448  0.32863  1.0000
  H   H410      1.0  0.14739  0.77364  0.32928  1.0000
  H   H411      1.0  0.43791  0.66649  0.98589  1.0000
  H   H412      1.0  0.34051  0.63931  0.79374  1.0000
  Fe  Fe33      1.0  0.23303  0.68788  0.69936  1.0000
  S   S65       1.0  0.24738  0.64874  0.68244  1.0000
  S   S66       1.0  0.18794  0.70550  0.68818  1.0000
  Fe  Fe34      1.0  0.28140  0.68916  0.73889  1.0000
  S   S67       1.0  0.29933  0.65051  0.72510  1.0000
  S   S68       1.0  0.30416  0.70956  0.77176  1.0000
  Fe  Fe35      1.0  0.31018  0.68200  0.69008  1.0000
  C   C234      1.0  0.24941  0.49485  0.69610  1.0000
  Fe  Fe36      1.0  0.23550  0.62103  0.71910  1.0000
  S   S69       1.0  0.20390  0.56284  0.73270  1.0000
  S   S70       1.0  0.29707  0.72358  0.70406  1.0000
  S   S71       1.0  0.21613  0.65728  0.73571  1.0000
  Fe  Fe37      1.0  0.39446  0.61999  0.88567  1.0000
  S   S72       1.0  0.45426  0.66796  0.87402  1.0000
  Fe  Fe38      1.0  0.30809  0.58566  0.87591  1.0000
  H   H413      1.0  0.35538  0.62248  0.81764  1.0000
  S   S73       1.0  0.26173  0.58347  0.85316  1.0000
  Fe  Fe39      1.0  0.32742  0.57536  0.92533  1.0000
  H   H414      1.0  0.22822  0.85333  0.75759  1.0000
  S   S74       1.0  0.33895  0.62354  0.90036  1.0000
  S   S75       1.0  0.36487  0.58659  0.85901  1.0000
  H   H415      1.0  0.48410  0.55238  0.76811  1.0000
  H   H416      1.0  0.00470  0.92092  0.69878  1.0000
  H   H417      1.0  0.17282  0.77374  0.73179  1.0000
  C   C235      1.0  0.37891  0.65512  0.74783  1.0000
  H   H418      1.0  0.38216  0.57508  0.96742  1.0000
  C   C236      1.0  0.29201  0.67502  0.79478  1.0000
  C   C237      1.0  0.30981  0.68197  0.81514  1.0000
  C   C238      1.0  0.30102  0.65412  0.83325  1.0000
  C   C239      1.0  0.27395  0.61936  0.83111  1.0000
  C   C240      1.0  0.25608  0.61268  0.81084  1.0000
  C   C241      1.0  0.26524  0.64025  0.79268  1.0000
  H   H419      1.0  0.33061  0.70886  0.81682  1.0000
  H   H420      1.0  0.31479  0.65956  0.84889  1.0000
  H   H421      1.0  0.23582  0.58601  0.80887  1.0000
  H   H422      1.0  0.25152  0.63457  0.77703  1.0000
  C   C242      1.0  0.22326  0.53828  0.71816  1.0000
  C   C243      1.0  0.99678  0.81932  0.67941  1.0000
  H   H423      1.0  0.06122  0.97333  0.68919  1.0000
  H   H424      1.0  0.30329  0.51609  0.85292  1.0000
  H   H425      1.0  0.38767  0.67466  0.82854  1.0000
  H   H426      1.0  0.39030  0.72033  0.95843  1.0000
  C   C244      1.0  0.20072  0.73700  0.66309  1.0000
  S   S76       1.0  0.35539  0.49398  0.87535  1.0000
  H   H427      1.0  0.19906  0.80833  0.75615  1.0000
  H   H428      1.0  0.17703  0.76556  0.70300  1.0000
  C   C245      1.0  0.33573  0.58780  0.79184  1.0000
  H   H429      1.0  0.44511  0.70401  0.78101  1.0000
  H   H430      1.0  0.30634  0.86742  0.68473  1.0000
  H   H431      1.0  0.38580  0.60098  0.72103  1.0000
  H   H432      1.0  0.20225  0.73580  0.73328  1.0000
  C   C246      1.0  0.35837  0.62546  0.79830  1.0000
  S   S77       1.0  0.29112  0.53744  0.90215  1.0000
  C   C247      1.0  0.40752  0.70766  0.68371  1.0000
  C   C248      1.0  0.40610  0.72566  0.70240  1.0000
  C   C249      1.0  0.43695  0.73596  0.71628  1.0000
  H   H433      1.0  0.18238  0.53058  0.83510  1.0000
  H   H434      1.0  0.45407  0.63819  0.96035  1.0000
  C   C250      1.0  0.46998  0.70916  0.69334  1.0000
  H   H435      1.0  0.38114  0.73156  0.70625  1.0000
  H   H436      1.0  0.43554  0.74970  0.73080  1.0000
  C   C251      1.0  0.04921  0.96510  0.67278  1.0000
  H   H437      1.0  0.23280  0.84607  0.68014  1.0000
  C   C252      1.0  0.23007  0.51315  0.73143  1.0000
  H   H438      1.0  0.20508  0.53932  0.78426  1.0000
  H   H439      1.0  0.30777  0.58454  0.78495  1.0000
  H   H440      1.0  0.41876  0.66746  0.92277  1.0000
  H   H441      1.0  0.11249  0.48941  0.83076  1.0000
  C   C253      1.0  0.47537  0.62087  0.85588  1.0000
  H   H442      1.0  0.39018  0.63407  0.94684  1.0000
  C   C254      1.0  0.41259  0.67166  0.98154  1.0000
  H   H443      1.0  0.32879  0.53448  0.70162  1.0000
  H   H444      1.0  0.45516  0.60181  0.87068  1.0000
  H   H445      1.0  0.34790  0.63298  0.75255  1.0000
  H   H446      1.0  0.16478  0.81532  0.68834  1.0000
  H   H447      1.0  0.44960  0.62870  0.93124  1.0000
  H   H448      1.0  0.41924  0.53537  0.77175  1.0000
  H   H449      1.0  0.43477  0.59252  0.68726  1.0000
  H   H450      1.0  0.38815  0.65704  0.72882  1.0000
  C   C255      1.0  0.24276  0.52010  0.68268  1.0000
  H   H451      1.0  0.39368  0.69522  0.78410  1.0000
  C   C256      1.0  0.24355  0.83999  0.72412  1.0000
  H   H452      1.0  0.23481  0.86044  0.71753  1.0000
  C   C257      1.0  0.16031  0.80683  0.70746  1.0000
  Fe  Fe40      1.0  0.35013  0.54093  0.88655  1.0000
  N   N17       1.0  0.23047  0.81002  0.70995  1.0000
  H   H453      1.0  0.27715  0.85482  0.72175  1.0000
  C   C258      1.0  0.38731  0.69676  0.95047  1.0000
  C   C259      1.0  0.09086  0.91602  0.67497  1.0000
  H   H454      1.0  0.22351  0.52625  0.82069  1.0000
  H   H455      1.0  0.37133  0.49893  0.78331  1.0000
  S   S78       1.0  0.38521  0.57438  0.91210  1.0000
  H   H456      1.0  0.41614  0.48883  0.83559  1.0000
  C   C260      1.0  0.46835  0.72697  0.71212  1.0000
  H   H457      1.0  0.06817  0.90917  0.69078  1.0000
  H   H458      1.0  0.35327  0.58108  0.77863  1.0000
  H   H459      1.0  0.16703  0.82971  0.71689  1.0000
  S   S79       1.0  0.30211  0.56957  0.96352  1.0000
  C   C261      1.0  0.23092  0.75766  0.73655  1.0000
  H   H460      1.0  0.43983  0.66865  0.75346  1.0000
  C   C262      1.0  0.18512  0.78748  0.71360  1.0000
  H   H461      1.0  0.26021  0.49832  0.95224  1.0000
  S   S80       1.0  0.36758  0.69241  0.66736  1.0000
  C   C263      1.0  0.17219  0.52234  0.79092  1.0000
  C   C264      1.0  0.40867  0.64830  0.76133  1.0000
  H   H462      1.0  0.34847  0.56007  0.73800  1.0000
  C   C265      1.0  0.43341  0.51544  0.72263  1.0000
  N   N18       1.0  0.46519  0.50251  0.79090  1.0000
  N   N19       1.0  0.40200  0.64791  0.78736  1.0000
  C   C266      1.0  0.19091  0.51096  0.82852  1.0000
  H   H463      1.0  0.45641  0.51760  0.84910  1.0000
  H   H464      1.0  0.40725  0.62339  0.75676  1.0000
  H   H465      1.0  0.16450  0.56082  0.81183  1.0000
  H   H466      1.0  0.40213  0.52356  0.80319  1.0000
  N   N20       1.0  0.41968  0.68676  0.95606  1.0000
  H   H467      1.0  0.45311  0.57145  0.72118  1.0000
  H   H468      1.0  0.03751  0.98384  0.66709  1.0000
  C   C267      1.0  0.41441  0.68579  0.79098  1.0000
  C   C268      1.0  0.22983  0.83049  0.75079  1.0000
  H   H469      1.0  0.37831  0.68016  0.75049  1.0000
  C   C269      1.0  0.41990  0.60435  0.67636  1.0000
  C   C270      1.0  0.41879  0.65912  0.94148  1.0000
  C   C271      1.0  0.01178  0.92818  0.67945  1.0000
  H   H470      1.0  0.32574  0.56769  0.80777  1.0000
  C   C272      1.0  0.47347  0.52174  0.81176  1.0000
  H   H471      1.0  0.01496  0.90630  0.67252  1.0000
  H   H472      1.0  0.28286  0.80362  0.71729  1.0000
  N   N21       1.0  0.37621  0.57778  0.67691  1.0000
  H   H473      1.0  0.32829  0.51563  0.95981  1.0000
  H   H474      1.0  0.42198  0.62756  0.68443  1.0000
  C   C273      1.0  0.47613  0.49950  0.69760  1.0000
  C   C274      1.0  0.42962  0.63636  0.79859  1.0000
  C   C275      1.0  0.41551  0.69330  0.81646  1.0000
  C   C276      1.0  0.42228  0.59820  0.79730  1.0000
  H   H475      1.0  0.44228  0.69329  0.82311  1.0000
  H   H476      1.0  0.46176  0.65443  0.79080  1.0000
  H   H477      1.0  0.42731  0.63813  0.81757  1.0000
  C   C277      1.0  0.34320  0.66752  0.95776  1.0000
  H   H478      1.0  0.41852  0.72024  0.81698  1.0000
  C   C278      1.0  0.15366  0.54701  0.79683  1.0000
  H   H479      1.0  0.39373  0.57858  0.80843  1.0000
  H   H480      1.0  0.44650  0.59441  0.80456  1.0000
  H   H481      1.0  0.42371  0.59210  0.77931  1.0000
  H   H482      1.0  0.12757  0.78818  0.71265  1.0000
  C   C279      1.0  0.23009  0.54213  0.69372  1.0000
  H   H483      1.0  0.22567  0.51066  0.75023  1.0000
  H   H484      1.0  0.32240  0.67829  0.95309  1.0000
  H   H485      1.0  0.12010  0.53268  0.79986  1.0000
  C   C280      1.0  0.45926  0.55141  0.71436  1.0000
  H   H486      1.0  0.16265  0.56799  0.78150  1.0000
  H   H487      1.0  0.12243  0.96963  0.67950  1.0000
  H   H488      1.0  0.33213  0.58525  0.71976  1.0000
  C   C281      1.0  0.44007  0.70029  0.67881  1.0000
  C   C282      1.0  0.25078  0.78713  0.71511  1.0000
  C   C283      1.0  0.35656  0.57746  0.72094  1.0000
  C   C284      1.0  0.24362  0.82621  0.68444  1.0000
  H   H489      1.0  0.35547  0.61661  0.68343  1.0000
  H   H490      1.0  0.37842  0.54416  0.70653  1.0000
  H   H491      1.0  0.11506  0.91019  0.68061  1.0000
  H   H492      1.0  0.37278  0.50631  0.68050  1.0000
  H   H493      1.0  0.33520  0.65798  0.97683  1.0000
  H   H494      1.0  0.45949  0.74070  0.96022  1.0000
  C   C285      1.0  0.35956  0.55671  0.70119  1.0000
  H   H495      1.0  0.22466  0.56148  0.68340  1.0000
  H   H496      1.0  0.25201  0.77309  0.70003  1.0000
  H   H497      1.0  0.26488  0.49567  0.82052  1.0000
  H   H498      1.0  0.36943  0.50062  0.93306  1.0000
  C   C286      1.0  0.44238  0.48950  0.71463  1.0000
  C   C287      1.0  0.45366  0.64928  0.94246  1.0000
  H   H499      1.0  0.00175  0.80728  0.69516  1.0000
  H   H500      1.0  0.45420  0.74598  0.91778  1.0000
  H   H501      1.0  0.30273  0.82625  0.67649  1.0000
  H   H502      1.0  0.40763  0.50786  0.73593  1.0000
  H   H503      1.0  0.39074  0.70481  0.93130  1.0000
  H   H504      1.0  0.22528  0.76716  0.75283  1.0000
  C   C288      1.0  0.40317  0.51333  0.78643  1.0000
  H   H505      1.0  0.38529  0.64546  0.98564  1.0000
  H   H506      1.0  0.25173  0.82474  0.75960  1.0000
  C   C289      1.0  0.36799  0.57541  0.98445  1.0000
  H   H507      1.0  0.15871  0.51123  0.77554  1.0000
  C   C290      1.0  0.18854  0.48699  0.85069  1.0000
  H   H508      1.0  0.33674  0.64484  0.94822  1.0000
  C   C291      1.0  0.32940  0.57330  0.98722  1.0000
  H   H509      1.0  0.25144  0.74589  0.73970  1.0000
  C   C292      1.0  0.30530  0.49551  0.84431  1.0000
  N   N22       1.0  0.16595  0.49332  0.81023  1.0000
  C   C293      1.0  0.10989  0.95553  0.66478  1.0000
  C   C294      1.0  0.28961  0.84490  0.67552  1.0000
  H   H510      1.0  0.22977  0.80573  0.67325  1.0000
  H   H511      1.0  0.14220  0.73574  0.66765  1.0000
  C   C295      1.0  0.24316  0.49155  0.72048  1.0000
  H   H512      1.0  0.07783  0.89834  0.66205  1.0000
  C   C296      1.0  0.39074  0.52731  0.66533  1.0000
  C   C297      1.0  0.48195  0.65592  0.85378  1.0000
  C   C298      1.0  0.44912  0.49999  0.83550  1.0000
  H   H513      1.0  0.44158  0.68701  0.66410  1.0000
  C   C299      1.0  0.35096  0.59618  0.67189  1.0000
  H   H514      1.0  0.46794  0.54517  0.80909  1.0000
  H   H515      1.0  0.21106  0.50347  0.86130  1.0000
  H   H516      1.0  0.31821  0.57693  0.67584  1.0000
  H   H517      1.0  0.42239  0.54222  0.66848  1.0000
  H   H518      1.0  0.27083  0.50235  0.99169  1.0000
  H   H519      1.0  0.48186  0.51694  0.75337  1.0000
  H   H520      1.0  0.21417  0.48764  0.79043  1.0000
  C   C300      1.0  0.46009  0.71952  0.95069  1.0000
  H   H521      1.0  0.24774  0.52289  0.66380  1.0000
  C   C301      1.0  0.47459  0.73630  0.92468  1.0000
  H   H522      1.0  0.48364  0.67193  0.93543  1.0000
  H   H523      1.0  0.47822  0.71812  0.91335  1.0000
  H   H524      1.0  0.48425  0.71427  0.95711  1.0000
  C   C302      1.0  0.32188  0.48742  0.96228  1.0000
  C   C303      1.0  0.42118  0.48727  0.78783  1.0000
  C   C304      1.0  0.37113  0.55164  0.66019  1.0000
  H   H525      1.0  0.97505  0.01882  0.45527  1.0000
  H   H526      1.0  0.98379  0.99961  0.33215  1.0000
  C   C305      1.0  0.97718  0.99828  0.35085  1.0000
  H   H527      1.0  0.95310  0.99375  0.41781  1.0000
  H   H528      1.0  0.97499  0.07756  0.52442  1.0000
  S   S81       1.0  0.94413  0.99020  0.58450  1.0000
  H   H529      1.0  0.92065  0.01794  0.52510  1.0000
  C   C306      1.0  0.94778  0.02716  0.51149  1.0000
  H   H530      1.0  0.97786  0.12957  0.34876  1.0000
  C   C307      1.0  0.98301  0.05618  0.52108  1.0000
  H   H531      1.0  0.94134  0.04031  0.49618  1.0000
  C   C308      1.0  0.96912  0.99761  0.62740  1.0000
  N   N23       1.0  0.95385  0.99623  0.50529  1.0000
  H   H532      1.0  0.98108  0.12408  0.37909  1.0000
  C   C309      1.0  0.96026  0.99504  0.39917  1.0000
  C   C310      1.0  0.97736  0.01176  0.60370  1.0000
  H   H533      1.0  0.91460  0.99005  0.47908  1.0000
  H   H534      1.0  0.98076  0.99300  0.53613  1.0000
  H   H535      1.0  0.50501  0.48134  0.80167  1.0000
  H   H536      1.0  0.48816  0.46995  0.77466  1.0000
  C   C311      1.0  0.49983  0.52706  0.31215  1.0000
  H   H537      1.0  0.49739  0.53309  0.26205  1.0000
  Fe  Fe41      1.0  0.54018  0.67164  0.30232  1.0000
  S   S82       1.0  0.58915  0.71351  0.27539  1.0000
  C   C312      1.0  0.52750  0.57397  0.22150  1.0000
  Fe  Fe42      1.0  0.56040  0.61470  0.28955  1.0000
  S   S83       1.0  0.61153  0.65166  0.26142  1.0000
  C   C313      1.0  0.66364  0.80447  0.28926  1.0000
  Fe  Fe43      1.0  0.62793  0.68974  0.28739  1.0000
  S   S84       1.0  0.69355  0.72658  0.28927  1.0000
  Fe  Fe44      1.0  0.56841  0.67207  0.25190  1.0000
  S   S85       1.0  0.56717  0.68884  0.21420  1.0000
  S   S86       1.0  0.54791  0.55807  0.29734  1.0000
  S   S87       1.0  0.51576  0.63188  0.27792  1.0000
  C   C314      1.0  0.70971  0.73647  0.31642  1.0000
  H   H538      1.0  0.69673  0.81472  0.28886  1.0000
  H   H539      1.0  0.54499  0.56246  0.17701  1.0000
  H   H540      1.0  0.58608  0.57588  0.20779  1.0000
  C   C315      1.0  0.53162  0.65987  0.19864  1.0000
  H   H541      1.0  0.57489  0.79366  0.31672  1.0000
  C   C316      1.0  0.57309  0.58613  0.22129  1.0000
  H   H542      1.0  0.52489  0.75372  0.21953  1.0000
  C   C317      1.0  0.51575  0.63915  0.16156  1.0000
  C   C318      1.0  0.54232  0.66288  0.17449  1.0000
  C   C319      1.0  0.48660  0.71395  0.28698  1.0000
  H   H543      1.0  0.76975  0.77592  0.30065  1.0000
  H   H544      1.0  0.52529  0.64038  0.14318  1.0000
  H   H545      1.0  0.57196  0.68281  0.16589  1.0000
  H   H546      1.0  0.52414  0.58706  0.20504  1.0000
  C   C320      1.0  0.63935  0.77922  0.31210  1.0000
  C   C321      1.0  0.50303  0.51868  0.24844  1.0000
  C   C322      1.0  0.50558  0.73091  0.21116  1.0000
  H   H547      1.0  0.57949  0.57903  0.23871  1.0000
  C   C323      1.0  0.74912  0.76300  0.31687  1.0000
  H   H548      1.0  0.49555  0.70676  0.22409  1.0000
  H   H549      1.0  0.52547  0.73060  0.19582  1.0000
  H   H550      1.0  0.64889  0.75809  0.31376  1.0000
  N   N24       1.0  0.50068  0.53454  0.22479  1.0000
  H   H551      1.0  0.49188  0.53506  0.17610  1.0000
  C   C324      1.0  0.51413  0.51791  0.20632  1.0000
  H   H552      1.0  0.49173  0.48961  0.20737  1.0000
  H   H553      1.0  0.54291  0.51758  0.20928  1.0000
  H   H554      1.0  0.51594  0.71790  0.27923  1.0000
  H   H555      1.0  0.51851  0.58595  0.23569  1.0000
  H   H556      1.0  0.58949  0.61548  0.21711  1.0000
  H   H557      1.0  0.65605  0.82654  0.28611  1.0000
  H   H558      1.0  0.53405  0.52198  0.24939  1.0000
  C   C325      1.0  0.51988  0.53505  0.18077  1.0000
  H   H559      1.0  0.52789  0.51956  0.16885  1.0000
  S   S88       1.0  0.58024  0.65091  0.31647  1.0000
  H   H560      1.0  0.60748  0.76529  0.30922  1.0000
  H   H561      1.0  0.65605  0.78944  0.27432  1.0000
  S   S89       1.0  0.49810  0.68223  0.32660  1.0000
  C   C326      1.0  0.49302  0.63441  0.20963  1.0000
  H   H562      1.0  0.58325  0.83609  0.32127  1.0000
  H   H563      1.0  0.70543  0.83710  0.32262  1.0000
  H   H564      1.0  0.64985  0.84739  0.31998  1.0000
  Fe  Fe45      1.0  0.82819  0.86483  0.60815  1.0000
  S   S90       1.0  0.85732  0.82918  0.60808  1.0000
  S   S91       1.0  0.76000  0.83899  0.61504  1.0000
  Fe  Fe46      1.0  0.90936  0.93151  0.59599  1.0000
  S   S92       1.0  0.94479  0.90106  0.59538  1.0000
  Fe  Fe47      1.0  0.89755  0.86542  0.57583  1.0000
  S   S93       1.0  0.91614  0.84671  0.54389  1.0000
  Fe  Fe48      1.0  0.90115  0.86813  0.62760  1.0000
  H   H565      1.0  0.79168  0.79475  0.33830  1.0000
  S   S94       1.0  0.86499  0.89837  0.57413  1.0000
  S   S95       1.0  0.86928  0.90157  0.63000  1.0000
  Fe  Fe49      1.0  0.88576  0.81498  0.40785  1.0000
  S   S96       1.0  0.91637  0.78531  0.42316  1.0000
  Fe  Fe50      1.0  0.84794  0.85814  0.42753  1.0000
  H   H566      1.0  0.55862  0.74513  0.34622  1.0000
  S   S97       1.0  0.83393  0.87638  0.46064  1.0000
  Fe  Fe51      1.0  0.81009  0.81195  0.39054  1.0000
  S   S98       1.0  0.82392  0.80048  0.42607  1.0000
  S   S99       1.0  0.91111  0.87194  0.41199  1.0000
  C   C327      1.0  0.81456  0.75758  0.65491  1.0000
  C   C328      1.0  0.58015  0.73659  0.35258  1.0000
  C   C329      1.0  0.89231  0.85318  0.52075  1.0000
  C   C330      1.0  0.90998  0.85704  0.49766  1.0000
  C   C331      1.0  0.89221  0.86413  0.47903  1.0000
  C   C332      1.0  0.85665  0.86728  0.48352  1.0000
  C   C333      1.0  0.83850  0.86254  0.50661  1.0000
  C   C334      1.0  0.85609  0.85515  0.52518  1.0000
  H   H567      1.0  0.93728  0.85443  0.49418  1.0000
  H   H568      1.0  0.90606  0.86721  0.46127  1.0000
  H   H569      1.0  0.81054  0.86422  0.51016  1.0000
  H   H570      1.0  0.84109  0.85032  0.54290  1.0000
  H   H571      1.0  0.61529  0.77955  0.37056  1.0000
  H   H572      1.0  0.67366  0.84847  0.65581  1.0000
  H   H573      1.0  0.80025  0.73296  0.53090  1.0000
  N   N25       1.0  0.64348  0.79586  0.33411  1.0000
  C   C335      1.0  0.95520  0.97595  0.52746  1.0000
  H   H574      1.0  0.52399  0.49844  0.33229  1.0000
  C   C336      1.0  0.91928  0.97353  0.49323  1.0000
  S   S100      1.0  0.74669  0.77314  0.38580  1.0000
  S   S101      1.0  0.82861  0.86901  0.39370  1.0000
  C   C337      1.0  0.94148  0.96448  0.38878  1.0000
  H   H575      1.0  0.74999  0.74518  0.65736  1.0000
  C   C338      1.0  0.82642  0.77476  0.48850  1.0000
  H   H576      1.0  0.87191  0.76753  0.51932  1.0000
  C   C339      1.0  0.62091  0.76767  0.35522  1.0000
  H   H577      1.0  0.78829  0.72211  0.45077  1.0000
  S   S102      1.0  0.87082  0.82211  0.37182  1.0000
  C   C340      1.0  0.98358  0.85024  0.63874  1.0000
  H   H578      1.0  0.83579  0.75626  0.64076  1.0000
  H   H579      1.0  0.56546  0.71992  0.36990  1.0000
  C   C341      1.0  0.69989  0.78371  0.64568  1.0000
  H   H580      1.0  0.67498  0.71777  0.37489  1.0000
  H   H581      1.0  0.76893  0.66683  0.53740  1.0000
  C   C342      1.0  0.95053  0.96584  0.36466  1.0000
  C   C343      1.0  0.73916  0.81199  0.64238  1.0000
  H   H582      1.0  0.91979  0.93999  0.39948  1.0000
  C   C344      1.0  0.83042  0.72289  0.47479  1.0000
  C   C345      1.0  0.69579  0.73038  0.35870  1.0000
  C   C346      1.0  0.96533  0.79936  0.40848  1.0000
  H   H583      1.0  0.85458  0.93837  0.49793  1.0000
  C   C347      1.0  0.79032  0.70417  0.46508  1.0000
  H   H584      1.0  0.76288  0.69354  0.47832  1.0000
  C   C348      1.0  0.49680  0.49922  0.32817  1.0000
  H   H585      1.0  0.65299  0.69921  0.33733  1.0000
  C   C349      1.0  0.90860  0.77627  0.48599  1.0000
  H   H586      1.0  0.87445  0.72974  0.51071  1.0000
  H   H587      1.0  0.85250  0.74193  0.45974  1.0000
  H   H588      1.0  0.84225  0.70352  0.47825  1.0000
  H   H589      1.0  0.91423  0.76047  0.47333  1.0000
  H   H590      1.0  0.93537  0.78710  0.49514  1.0000
  H   H591      1.0  0.92600  0.95462  0.48406  1.0000
  H   H592      1.0  0.63954  0.75490  0.36063  1.0000
  H   H593      1.0  0.82261  0.68624  0.53315  1.0000
  H   H594      1.0  0.73215  0.83890  0.35897  1.0000
  C   C350      1.0  0.87042  0.75296  0.50417  1.0000
  H   H595      1.0  0.90724  0.79904  0.47623  1.0000
  H   H596      1.0  0.79471  0.66697  0.50991  1.0000
  C   C351      1.0  0.79651  0.68276  0.52423  1.0000
  H   H597      1.0  0.76699  0.75122  0.47581  1.0000
  H   H598      1.0  0.68627  0.80423  0.37468  1.0000
  H   H599      1.0  0.94506  0.92301  0.54063  1.0000
  N   N26       1.0  0.83025  0.74165  0.49549  1.0000
  C   C352      1.0  0.69869  0.82637  0.35989  1.0000
  H   H600      1.0  0.86821  0.96894  0.51842  1.0000
  C   C353      1.0  0.62949  0.82386  0.33318  1.0000
  H   H601      1.0  0.84537  0.78917  0.47134  1.0000
  H   H602      1.0  0.78936  0.68082  0.45768  1.0000
  C   C354      1.0  0.79754  0.71841  0.51566  1.0000
  H   H603      1.0  0.68296  0.77825  0.63121  1.0000
  H   H604      1.0  0.83804  0.79335  0.50128  1.0000
  C   C355      1.0  0.95698  0.84172  0.65967  1.0000
  S   S103      1.0  0.93120  0.92705  0.35175  1.0000
  C   C356      1.0  0.77457  0.74568  0.64497  1.0000
  C   C357      1.0  0.73469  0.75771  0.35910  1.0000
  H   H605      1.0  0.78642  0.79648  0.47917  1.0000
  H   H606      1.0  0.76688  0.71174  0.51156  1.0000
  Fe  Fe52      1.0  0.89044  0.87852  0.37785  1.0000
  H   H607      1.0  0.76547  0.76409  0.50464  1.0000
  C   C358      1.0  0.78363  0.77065  0.48701  1.0000
  H   H608      1.0  0.56434  0.80138  0.34609  1.0000
  H   H609      1.0  0.95343  0.81593  0.37524  1.0000
  H   H610      1.0  0.63207  0.83490  0.34987  1.0000
  C   C359      1.0  0.68326  0.71984  0.33745  1.0000
  H   H611      1.0  0.57974  0.80213  0.65724  1.0000
  C   C360      1.0  0.68794  0.81353  0.33631  1.0000
  C   C361      1.0  0.76163  0.77366  0.33816  1.0000
  H   H612      1.0  0.70114  0.79535  0.33337  1.0000
  H   H613      1.0  0.77923  0.76485  0.62933  1.0000
  H   H614      1.0  0.92806  0.96829  0.54074  1.0000
  C   C362      1.0  0.97582  0.81370  0.38476  1.0000
  H   H615      1.0  0.98592  0.78448  0.43895  1.0000
  H   H616      1.0  0.68911  0.84656  0.36379  1.0000
  H   H617      1.0  0.58472  0.71916  0.34087  1.0000
  H   H618      1.0  0.97826  0.86179  0.62297  1.0000
  C   C363      1.0  0.96102  0.94298  0.52475  1.0000
  C   C364      1.0  0.87789  0.95201  0.50900  1.0000
  H   H619      1.0  0.94807  0.92983  0.50992  1.0000
  C   C365      1.0  0.58545  0.81256  0.32927  1.0000
  H   H620      1.0  0.94204  0.97314  0.63403  1.0000
  H   H621      1.0  0.62655  0.80016  0.64752  1.0000
  H   H622      1.0  0.89695  0.77115  0.64961  1.0000
  H   H623      1.0  0.62559  0.86028  0.64913  1.0000
  H   H624      1.0  0.97911  0.92370  0.46327  1.0000
  H   H625      1.0  0.76486  0.71957  0.63906  1.0000
  H   H626      1.0  0.87797  0.93111  0.52170  1.0000
  H   H627      1.0  0.82645  0.78620  0.65651  1.0000
  H   H628      1.0  0.79133  0.84066  0.65867  1.0000
  H   H629      1.0  0.87657  0.72381  0.65864  1.0000
  H   H630      1.0  0.80853  0.69446  0.65872  1.0000
  Fe  Fe53      1.0  0.54332  0.64323  0.71012  1.0000
  S   S104      1.0  0.59163  0.64604  0.73108  1.0000
  C   C366      1.0  0.70819  0.88439  0.67788  1.0000
  S   S105      1.0  0.91458  0.84920  0.66129  1.0000
  S   S106      1.0  0.58227  0.71044  0.75302  1.0000
  Fe  Fe54      1.0  0.61741  0.70493  0.72150  1.0000
  S   S107      1.0  0.68439  0.74258  0.71385  1.0000
  Fe  Fe55      1.0  0.55229  0.65133  0.76056  1.0000
  C   C367      1.0  0.52643  0.66942  0.81693  1.0000
  S   S108      1.0  0.57239  0.70167  0.69787  1.0000
  C   C368      1.0  0.75016  0.67491  0.68039  1.0000
  H   H631      1.0  0.74190  0.65488  0.66835  1.0000
  C   C369      1.0  0.78616  0.72692  0.72189  1.0000
  H   H632      1.0  0.69144  0.82970  0.67688  1.0000
  H   H633      1.0  0.55073  0.56315  0.75075  1.0000
  C   C370      1.0  0.49237  0.56124  0.69680  1.0000
  N   N27       1.0  0.63682  0.83144  0.69056  1.0000
  C   C371      1.0  0.67689  0.84712  0.67452  1.0000
  H   H634      1.0  0.50485  0.75964  0.92298  1.0000
  H   H635      1.0  0.69538  0.90319  0.67815  1.0000
  C   C372      1.0  0.49005  0.52909  0.76939  1.0000
  H   H636      1.0  0.81483  0.74140  0.72884  1.0000
  Fe  Fe56      1.0  0.53519  0.70261  0.73006  1.0000
  H   H637      1.0  0.72158  0.88353  0.69398  1.0000
  H   H638      1.0  0.66403  0.81391  0.71693  1.0000
  H   H639      1.0  0.66433  0.85503  0.71996  1.0000
  H   H640      1.0  0.94362  0.82030  0.69624  1.0000
  H   H641      1.0  0.59226  0.78109  0.73445  1.0000
  C   C373      1.0  0.60864  0.80992  0.73478  1.0000
  S   S109      1.0  0.52254  0.60558  0.68422  1.0000
  H   H642      1.0  0.76033  0.80366  0.69755  1.0000
  C   C374      1.0  0.61513  0.85374  0.68861  1.0000
  C   C375      1.0  0.61644  0.87116  0.66376  1.0000
  C   C376      1.0  0.51920  0.63416  0.81886  1.0000
  C   C377      1.0  0.70452  0.76914  0.68628  1.0000
  C   C378      1.0  0.64573  0.82844  0.71526  1.0000
  C   C379      1.0  0.50836  0.68044  0.83459  1.0000
  C   C380      1.0  0.50038  0.53520  0.68823  1.0000
  H   H643      1.0  0.80835  0.68553  0.68920  1.0000
  S   S110      1.0  0.53726  0.61838  0.79593  1.0000
  H   H644      1.0  0.54561  0.68813  0.80177  1.0000
  H   H645      1.0  0.73230  0.68915  0.67740  1.0000
  C   C381      1.0  0.53652  0.54437  0.76736  1.0000
  H   H646      1.0  0.65305  0.73959  0.66969  1.0000
  C   C382      1.0  0.74358  0.79771  0.68302  1.0000
  C   C383      1.0  0.61051  0.79444  0.68603  1.0000
  C   C384      1.0  0.76111  0.81877  0.66105  1.0000
  H   H647      1.0  0.58736  0.82134  0.73403  1.0000
  H   H648      1.0  0.52585  0.54272  0.67460  1.0000
  H   H649      1.0  0.58577  0.86795  0.66182  1.0000
  H   H650      1.0  0.98457  0.92883  0.67378  1.0000
  H   H651      1.0  0.51361  0.70760  0.83291  1.0000
  H   H652      1.0  0.85632  0.73629  0.69981  1.0000
  H   H653      1.0  0.54874  0.55968  0.78158  1.0000
  C   C385      1.0  0.79681  0.69796  0.67614  1.0000
  H   H654      1.0  0.80149  0.77312  0.69709  1.0000
  H   H655      1.0  0.77855  0.69863  0.72300  1.0000
  H   H656      1.0  0.62508  0.77739  0.69011  1.0000
  S   S111      1.0  0.50423  0.73683  0.73119  1.0000
  H   H657      1.0  0.48928  0.58310  0.84049  1.0000
  C   C386      1.0  0.49470  0.61026  0.83875  1.0000
  H   H658      1.0  0.62783  0.87575  0.69907  1.0000
  C   C387      1.0  0.85559  0.75111  0.68327  1.0000
  H   H659      1.0  0.75717  0.73586  0.69383  1.0000
  C   C388      1.0  0.78862  0.74407  0.69688  1.0000
  C   C389      1.0  0.96394  0.82667  0.68001  1.0000
  C   C390      1.0  0.68281  0.76198  0.66750  1.0000
  H   H660      1.0  0.61913  0.81298  0.75206  1.0000
  S   S112      1.0  0.50172  0.64369  0.74026  1.0000
  H   H661      1.0  0.73960  0.65947  0.69827  1.0000
  H   H662      1.0  0.76198  0.72864  0.73359  1.0000
  C   C391      1.0  0.88724  0.74982  0.66475  1.0000
  H   H663      1.0  0.91492  0.75476  0.67254  1.0000
  N   N28       1.0  0.81290  0.73686  0.67777  1.0000
  H   H664      1.0  0.50584  0.53255  0.81392  1.0000
  H   H665      1.0  0.58084  0.78217  0.69775  1.0000
  H   H666      1.0  0.58264  0.83783  0.69653  1.0000
  H   H667      1.0  0.49432  0.70238  0.68991  1.0000
  H   H668      1.0  0.86730  0.77911  0.68633  1.0000
  H   H669      1.0  0.54665  0.52378  0.76659  1.0000
  H   H670      1.0  0.63655  0.90014  0.66139  1.0000
  H   H671      1.0  0.73364  0.89502  0.66304  1.0000
  C   C392      1.0  0.59967  0.79017  0.66123  1.0000
  H   H672      1.0  0.58186  0.76151  0.66042  1.0000
