data_image0
_chemical_formula_structural       FeS2FeS2FeSFeS3H2C5H3C4H5CHC3H3CHC4H4CH3CH3CH2CHCHC2H2CH3CNHNC5HC2H16CHC2HCH2C2H4CH6FeS2FeS2FeSFeS3HC3SC2HCH2C4HCH8CHC3H2NC7HCH15NC3HCH8CH3CH3CH4CHC2HCHCHCHC2H7CHNCH10CHC2SHCH2CFeS2FeS2FeSFeS3C4H2CH5C2H5CH2C2H5C3H5CH4CH2CHCHNHC3H4CH2CH2CH2C2HC3H3NHC2HCH2CH4C2H2CH4FeS2FeS2FeSFeS3NC3H3CHC2HCHC2HCHCHC5H2CHC2HC2H4NH4CH3CH2CH7C2H10CHCHCHC2H3CH2CH2CHNH2C2H7CHC2FeS2FeSHFeSFeS2HFeSHC6H5C2NHSH2CNC5HCH9CHC2HCH3CSCH9CH7SHCH4SH2C2HFeS2FeS2FeSFeSH2FeSHC6H4C3H2SHC3H2CHCH2NCH2C4H4CH10CHCH3CNH4CH5CH4C2HCS2FeSHCS2CHFeHCH6NHC6H4NCHC2SFeHC6FeNCHC3H2CH3NH3SH2CH2C3HCHCSCH2SHCH4CH5CH6CHCH9CH2C3FeCH3CHC2HCHCH3CHCHNH2CH10CHCHS2FeSHC2HC2SH3C2HSCHC7H7SCH3Fe2HCHFeC2H2CH4CH3SH4NH2C2HSH2CH5CSCNC3HCH3CH5SH3Fe2HS2H3SHFeS2FeS2FeSFeS3CHCHC7H6CH2C4HFeH2CH3CHCH5CH2CNC8H23FeHC3SH2NC8H15C2HNH2C4H7CHCHCSH2CFeSFeHSFeHSHFeS2FeS2FeSFeCS2HC3HC6H5SHCSC6H6SNC4HC3H20NC8H16CH2CHSHNCHCHCH2S3FeS2FeS2FeSFeS3C3H2CH2CNHC6H8CH2CH4CH3CSH2C2NH5CSH4C3NCSHCHC2H4CH3CFeHFeC2HSH2FeH3C2H2CHCH2C4H2S2FeSHFeS2FeHFeS3H2SH2C4H2C6H9CHNHC3NC3H10CH9C3HCSHC3H2FeSH3SC2HFeCFeSH2SH2CHCHCH4CHCH
_chemical_formula_sum              "Fe64 S128 H768 C448 N32"
_cell_length_a       41.9199
_cell_length_b       41.8193
_cell_length_c       35.0715
_cell_angle_alpha    89.8665
_cell_angle_beta     91.0503
_cell_angle_gamma    89.7433

_space_group_name_H-M_alt    "P 1"
_space_group_IT_number       1

loop_
  _space_group_symop_operation_xyz
  'x, y, z'

loop_
  _atom_site_type_symbol
  _atom_site_label
  _atom_site_symmetry_multiplicity
  _atom_site_fract_x
  _atom_site_fract_y
  _atom_site_fract_z
  _atom_site_occupancy
  Fe  Fe1       1.0  0.21897  0.38450  0.24085  1.0000
  S   S1        1.0  0.17541  0.35856  0.21897  1.0000
  S   S2        1.0  0.21955  0.43855  0.23345  1.0000
  Fe  Fe2       1.0  0.25382  0.32236  0.26317  1.0000
  S   S3        1.0  0.21291  0.29206  0.24334  1.0000
  S   S4        1.0  0.29944  0.30349  0.29216  1.0000
  Fe  Fe3       1.0  0.21011  0.32470  0.19213  1.0000
  S   S5        1.0  0.19999  0.30088  0.13488  1.0000
  Fe  Fe4       1.0  0.18130  0.32827  0.27144  1.0000
  S   S6        1.0  0.14133  0.31075  0.30890  1.0000
  S   S7        1.0  0.25356  0.35270  0.20984  1.0000
  S   S8        1.0  0.22248  0.35653  0.29554  1.0000
  H   H1        1.0  0.22492  0.42864  0.31575  1.0000
  H   H2        1.0  0.05505  0.50104  0.30739  1.0000
  C   C1        1.0  0.04460  0.31511  0.31347  1.0000
  C   C2        1.0  0.07699  0.30882  0.32209  1.0000
  C   C3        1.0  0.10115  0.32164  0.29945  1.0000
  C   C4        1.0  0.09273  0.34143  0.26867  1.0000
  C   C5        1.0  0.06041  0.34737  0.25977  1.0000
  H   H3        1.0  0.11432  0.20169  0.16102  1.0000
  H   H4        1.0  0.08333  0.29353  0.34599  1.0000
  H   H5        1.0  0.11107  0.35176  0.25134  1.0000
  C   C6        1.0  0.28014  0.21979  0.38009  1.0000
  C   C7        1.0  0.31263  0.26324  0.29090  1.0000
  C   C8        1.0  0.29637  0.23975  0.27004  1.0000
  C   C9        1.0  0.30738  0.20783  0.27074  1.0000
  H   H6        1.0  0.15664  0.49651  0.30921  1.0000
  H   H7        1.0  0.06311  0.39288  0.02733  1.0000
  H   H8        1.0  0.10961  0.46410  0.33208  1.0000
  H   H9        1.0  0.27534  0.24618  0.25335  1.0000
  H   H10       1.0  0.29466  0.18984  0.25444  1.0000
  C   C10       1.0  0.34003  0.25454  0.31222  1.0000
  H   H11       1.0  0.07979  0.33423  0.03229  1.0000
  C   C11       1.0  0.20661  0.32158  0.09168  1.0000
  C   C12       1.0  0.20544  0.30470  0.05707  1.0000
  C   C13       1.0  0.21153  0.35463  0.09098  1.0000
  H   H12       1.0  0.20195  0.27909  0.05739  1.0000
  H   H13       1.0  0.21254  0.36790  0.11743  1.0000
  H   H14       1.0  0.28360  0.27239  0.37773  1.0000
  C   C14       1.0  0.32719  0.23481  0.41774  1.0000
  H   H15       1.0  0.07441  0.27225  0.25008  1.0000
  C   C15       1.0  0.13180  0.21896  0.14987  1.0000
  C   C16       1.0  0.13021  0.37220  0.05618  1.0000
  C   C17       1.0  0.22051  0.46507  0.27254  1.0000
  C   C18       1.0  0.22340  0.45405  0.31010  1.0000
  H   H16       1.0  0.12835  0.44877  0.29080  1.0000
  H   H17       1.0  0.05406  0.36218  0.23544  1.0000
  H   H18       1.0  0.32598  0.50977  0.25719  1.0000
  H   H19       1.0  0.28435  0.15589  0.35978  1.0000
  C   C19       1.0  0.03623  0.33405  0.28191  1.0000
  H   H20       1.0  0.25429  0.25771  0.41114  1.0000
  H   H21       1.0  0.09125  0.46919  0.28494  1.0000
  H   H22       1.0  0.13348  0.31536  0.02072  1.0000
  C   C20       1.0  0.11393  0.46911  0.30158  1.0000
  H   H23       1.0  0.27567  0.14795  0.40946  1.0000
  H   H24       1.0  0.13924  0.20982  0.12164  1.0000
  H   H25       1.0  0.30148  0.48172  0.28095  1.0000
  C   C21       1.0  0.05817  0.26458  0.22666  1.0000
  H   H26       1.0  0.21770  0.39636  0.05558  1.0000
  H   H27       1.0  0.31628  0.25771  0.42711  1.0000
  C   C22       1.0  0.21448  0.37070  0.05587  1.0000
  H   H28       1.0  0.29264  0.21883  0.35245  1.0000
  C   C23       1.0  0.29617  0.18302  0.47956  1.0000
  H   H29       1.0  0.27816  0.22932  0.46128  1.0000
  C   C24       1.0  0.13270  0.50018  0.29573  1.0000
  C   C25       1.0  0.30612  0.50772  0.27743  1.0000
  H   H30       1.0  0.12445  0.24895  0.26495  1.0000
  H   H31       1.0  0.13029  0.22083  0.22639  1.0000
  C   C26       1.0  0.20905  0.32069  0.02203  1.0000
  H   H32       1.0  0.24676  0.25669  0.36070  1.0000
  H   H33       1.0  0.30845  0.12861  0.38682  1.0000
  H   H34       1.0  0.13873  0.32454  0.16273  1.0000
  C   C27       1.0  0.31786  0.17848  0.40037  1.0000
  N   N1        1.0  0.30214  0.20929  0.41248  1.0000
  H   H35       1.0  0.25865  0.19585  0.44045  1.0000
  N   N2        1.0  0.10447  0.26865  0.17935  1.0000
  C   C28       1.0  0.09183  0.30116  0.16739  1.0000
  C   C29       1.0  0.07633  0.24969  0.19312  1.0000
  C   C30       1.0  0.11784  0.25280  0.14446  1.0000
  C   C31       1.0  0.13021  0.27304  0.20961  1.0000
  C   C32       1.0  0.11556  0.32337  0.14729  1.0000
  H   H36       1.0  0.09214  0.50955  0.35753  1.0000
  C   C33       1.0  0.26556  0.25363  0.38323  1.0000
  C   C34       1.0  0.13645  0.24473  0.23741  1.0000
  H   H37       1.0  0.07059  0.29876  0.14802  1.0000
  H   H38       1.0  0.08340  0.31475  0.19254  1.0000
  H   H39       1.0  0.08307  0.22515  0.20196  1.0000
  H   H40       1.0  0.05861  0.24619  0.16941  1.0000
  H   H41       1.0  0.09929  0.25162  0.12133  1.0000
  H   H42       1.0  0.33466  0.50800  0.32898  1.0000
  H   H43       1.0  0.15330  0.27921  0.19626  1.0000
  H   H44       1.0  0.12436  0.29381  0.22797  1.0000
  H   H45       1.0  0.04163  0.24664  0.23864  1.0000
  H   H46       1.0  0.10565  0.34805  0.14623  1.0000
  H   H47       1.0  0.13784  0.26697  0.13278  1.0000
  H   H48       1.0  0.14592  0.35137  0.06213  1.0000
  H   H49       1.0  0.10694  0.36900  0.07010  1.0000
  H   H50       1.0  0.14204  0.39291  0.07024  1.0000
  H   H51       1.0  0.22692  0.46722  0.36947  1.0000
  H   H52       1.0  0.15375  0.21943  0.16804  1.0000
  C   C35       1.0  0.22459  0.47596  0.34047  1.0000
  H   H53       1.0  0.25961  0.20318  0.37671  1.0000
  C   C36       1.0  0.28265  0.20557  0.44804  1.0000
  C   C37       1.0  0.22273  0.50899  0.33357  1.0000
  H   H54       1.0  0.16228  0.24381  0.24487  1.0000
  C   C38       1.0  0.29488  0.15141  0.38861  1.0000
  H   H55       1.0  0.11953  0.31587  0.11742  1.0000
  H   H56       1.0  0.32236  0.18037  0.48068  1.0000
  C   C39       1.0  0.21859  0.49814  0.26565  1.0000
  C   C40       1.0  0.33441  0.19901  0.29269  1.0000
  H   H57       1.0  0.33372  0.18282  0.37580  1.0000
  H   H58       1.0  0.33401  0.16853  0.42271  1.0000
  H   H59       1.0  0.28512  0.15898  0.47740  1.0000
  H   H60       1.0  0.33866  0.24002  0.39008  1.0000
  C   C41       1.0  0.21294  0.35391  0.02122  1.0000
  H   H61       1.0  0.13708  0.50175  0.26461  1.0000
  H   H62       1.0  0.04325  0.28523  0.21722  1.0000
  H   H63       1.0  0.15162  0.49962  0.37203  1.0000
  H   H64       1.0  0.02614  0.30464  0.33060  1.0000
  H   H65       1.0  0.28923  0.19240  0.50786  1.0000
  H   H66       1.0  0.21638  0.50681  0.23662  1.0000
  Fe  Fe5       1.0  0.22702  0.30301  0.86051  1.0000
  S   S9        1.0  0.18871  0.30597  0.90503  1.0000
  S   S10       1.0  0.25884  0.25837  0.86268  1.0000
  Fe  Fe6       1.0  0.21425  0.37159  0.83386  1.0000
  S   S11       1.0  0.17628  0.37970  0.87667  1.0000
  S   S12       1.0  0.22481  0.40863  0.78850  1.0000
  Fe  Fe7       1.0  0.20880  0.35416  0.91851  1.0000
  S   S13       1.0  0.21372  0.37570  0.97781  1.0000
  Fe  Fe8       1.0  0.15890  0.33105  0.85989  1.0000
  S   S14       1.0  0.10487  0.32666  0.85908  1.0000
  S   S15       1.0  0.24885  0.35035  0.87683  1.0000
  S   S16       1.0  0.19507  0.32389  0.81407  1.0000
  H   H67       1.0  0.20936  0.50374  0.86909  1.0000
  C   C42       1.0  0.08069  0.32657  0.81727  1.0000
  C   C43       1.0  0.04745  0.32920  0.82077  1.0000
  C   C44       1.0  0.04021  0.32729  0.75193  1.0000
  S   S17       1.0  0.33287  0.18669  0.73048  1.0000
  C   C45       1.0  0.07348  0.32466  0.74837  1.0000
  C   C46       1.0  0.09369  0.32431  0.78093  1.0000
  H   H68       1.0  0.03720  0.33083  0.84878  1.0000
  C   C47       1.0  0.27899  0.12889  0.84526  1.0000
  H   H69       1.0  0.08364  0.32272  0.72035  1.0000
  H   H70       1.0  0.11925  0.32202  0.77796  1.0000
  C   C48       1.0  0.28011  0.23992  0.82542  1.0000
  C   C49       1.0  0.27374  0.24682  0.78702  1.0000
  C   C50       1.0  0.29006  0.23020  0.75834  1.0000
  C   C51       1.0  0.31319  0.20689  0.76773  1.0000
  H   H71       1.0  0.10752  0.43010  0.84236  1.0000
  C   C52       1.0  0.30348  0.21679  0.83481  1.0000
  H   H72       1.0  0.25578  0.26450  0.77942  1.0000
  H   H73       1.0  0.28459  0.23537  0.72868  1.0000
  H   H74       1.0  0.30866  0.21149  0.86451  1.0000
  H   H75       1.0  0.23363  0.12879  0.81160  1.0000
  H   H76       1.0  0.24362  0.16580  0.83368  1.0000
  H   H77       1.0  0.30047  0.12331  0.73776  1.0000
  H   H78       1.0  0.20844  0.30738  0.99562  1.0000
  H   H79       1.0  0.26478  0.15439  0.79259  1.0000
  C   C53       1.0  0.05221  0.41204  0.74150  1.0000
  H   H80       1.0  0.11355  0.30170  0.93718  1.0000
  C   C54       1.0  0.22322  0.47178  0.76721  1.0000
  C   C55       1.0  0.22124  0.45007  0.79769  1.0000
  C   C56       1.0  0.21582  0.46171  0.83437  1.0000
  H   H81       1.0  0.22747  0.46297  0.73876  1.0000
  H   H82       1.0  0.21446  0.44523  0.85810  1.0000
  N   N3        1.0  0.11160  0.42471  0.75726  1.0000
  C   C57       1.0  0.07949  0.41416  0.77159  1.0000
  C   C58       1.0  0.13497  0.42215  0.79037  1.0000
  C   C59       1.0  0.12130  0.40151  0.72663  1.0000
  C   C60       1.0  0.10845  0.45832  0.74161  1.0000
  C   C61       1.0  0.12659  0.44187  0.82596  1.0000
  C   C62       1.0  0.15403  0.40678  0.70851  1.0000
  C   C63       1.0  0.13920  0.47870  0.74059  1.0000
  H   H83       1.0  0.05553  0.39163  0.72181  1.0000
  C   C64       1.0  0.32017  0.20054  0.80615  1.0000
  H   H84       1.0  0.15922  0.42936  0.78234  1.0000
  H   H85       1.0  0.13774  0.39671  0.79963  1.0000
  H   H86       1.0  0.12123  0.37659  0.73798  1.0000
  H   H87       1.0  0.10399  0.40194  0.70225  1.0000
  H   H88       1.0  0.09803  0.45790  0.71216  1.0000
  H   H89       1.0  0.09140  0.47229  0.75906  1.0000
  H   H90       1.0  0.14793  0.44317  0.84516  1.0000
  H   H91       1.0  0.11948  0.46671  0.81881  1.0000
  H   H92       1.0  0.26754  0.12443  0.87321  1.0000
  H   H93       1.0  0.15881  0.38672  0.68865  1.0000
  H   H94       1.0  0.17399  0.40662  0.72962  1.0000
  H   H95       1.0  0.15427  0.42892  0.69107  1.0000
  H   H96       1.0  0.04831  0.38489  0.97924  1.0000
  H   H97       1.0  0.16155  0.46506  0.73745  1.0000
  H   H98       1.0  0.08716  0.35307  0.93286  1.0000
  N   N4        1.0  0.29463  0.09872  0.83104  1.0000
  C   C65       1.0  0.21292  0.49487  0.84052  1.0000
  C   C66       1.0  0.26994  0.07271  0.82712  1.0000
  C   C67       1.0  0.31221  0.10479  0.79454  1.0000
  H   H99       1.0  0.33810  0.30702  0.76795  1.0000
  C   C68       1.0  0.29237  0.10379  0.75680  1.0000
  H   H100      1.0  0.03397  0.29414  0.53157  1.0000
  H   H101      1.0  0.14122  0.49443  0.76600  1.0000
  H   H102      1.0  0.25059  0.07914  0.80662  1.0000
  H   H103      1.0  0.25745  0.06930  0.85463  1.0000
  H   H104      1.0  0.13723  0.27673  0.96774  1.0000
  H   H105      1.0  0.12911  0.35614  0.93167  1.0000
  H   H106      1.0  0.33474  0.13127  0.89147  1.0000
  H   H107      1.0  0.02964  0.25672  0.64096  1.0000
  C   C69       1.0  0.02728  0.32964  0.78826  1.0000
  H   H108      1.0  0.29713  0.08128  0.74109  1.0000
  H   H109      1.0  0.08145  0.39037  0.78579  1.0000
  H   H110      1.0  0.33143  0.06605  0.85197  1.0000
  C   C70       1.0  0.25384  0.14476  0.81878  1.0000
  H   H111      1.0  0.26641  0.10712  0.75944  1.0000
  H   H112      1.0  0.13764  0.49530  0.71581  1.0000
  H   H113      1.0  0.07069  0.43078  0.79380  1.0000
  C   C71       1.0  0.07764  0.34608  0.00390  1.0000
  H   H114      1.0  0.02943  0.40741  0.75625  1.0000
  H   H115      1.0  0.02510  0.50756  0.79517  1.0000
  H   H116      1.0  0.29698  0.14784  0.85056  1.0000
  H   H117      1.0  0.12939  0.41231  0.94550  1.0000
  C   C72       1.0  0.04719  0.26456  0.61959  1.0000
  H   H118      1.0  0.03477  0.48808  0.91479  1.0000
  C   C73       1.0  0.31835  0.08776  0.86140  1.0000
  C   C74       1.0  0.11844  0.29557  0.96748  1.0000
  H   H119      1.0  0.30591  0.08060  0.88790  1.0000
  C   C75       1.0  0.04076  0.29929  0.60694  1.0000
  H   H120      1.0  0.04108  0.31317  0.63396  1.0000
  C   C76       1.0  0.10612  0.40068  0.93899  1.0000
  H   H121      1.0  0.15498  0.32987  0.98103  1.0000
  C   C77       1.0  0.28283  0.03962  0.81504  1.0000
  H   H122      1.0  0.29578  0.02747  0.83892  1.0000
  C   C78       1.0  0.13057  0.32437  0.99106  1.0000
  C   C79       1.0  0.21968  0.50488  0.77323  1.0000
  H   H123      1.0  0.34343  0.31574  0.81718  1.0000
  H   H124      1.0  0.06170  0.49979  0.84813  1.0000
  H   H125      1.0  0.33832  0.18314  0.81382  1.0000
  H   H126      1.0  0.04806  0.24764  0.59540  1.0000
  H   H127      1.0  0.08695  0.41311  0.95438  1.0000
  H   H128      1.0  0.32443  0.12834  0.79568  1.0000
  H   H129      1.0  0.10136  0.40401  0.90796  1.0000
  C   C80       1.0  0.02365  0.49602  0.88736  1.0000
  H   H130      1.0  0.09690  0.28479  0.98002  1.0000
  N   N5        1.0  0.11014  0.35417  0.98911  1.0000
  C   C81       1.0  0.10790  0.36450  0.94765  1.0000
  H   H131      1.0  0.33164  0.08674  0.79140  1.0000
  H   H132      1.0  0.02802  0.34721  0.55431  1.0000
  H   H133      1.0  0.06549  0.32842  0.98496  1.0000
  H   H134      1.0  0.04910  0.43452  0.72502  1.0000
  H   H135      1.0  0.06181  0.30748  0.59062  1.0000
  H   H136      1.0  0.07092  0.26342  0.63420  1.0000
  H   H137      1.0  0.03771  0.36571  0.61892  1.0000
  H   H138      1.0  0.29869  0.04099  0.79018  1.0000
  H   H139      1.0  0.26249  0.02395  0.80694  1.0000
  H   H140      1.0  0.03145  0.36527  0.01918  1.0000
  C   C82       1.0  0.34437  0.11200  0.87322  1.0000
  H   H141      1.0  0.11375  0.40270  0.01130  1.0000
  C   C83       1.0  0.05418  0.37426  0.00745  1.0000
  C   C84       1.0  0.01250  0.36390  0.60893  1.0000
  S   S18       1.0  0.01573  0.32852  0.71033  1.0000
  H   H142      1.0  0.15068  0.38425  0.00207  1.0000
  C   C85       1.0  0.12647  0.37943  0.01312  1.0000
  H   H143      1.0  0.01660  0.47470  0.87038  1.0000
  H   H144      1.0  0.01340  0.26162  0.55076  1.0000
  C   C86       1.0  0.01176  0.28782  0.54686  1.0000
  Fe  Fe9       1.0  0.24644  0.65343  0.34314  1.0000
  S   S19       1.0  0.25041  0.62388  0.39695  1.0000
  S   S20       1.0  0.29026  0.66870  0.30964  1.0000
  Fe  Fe10      1.0  0.17383  0.64205  0.33615  1.0000
  S   S21       1.0  0.17253  0.61200  0.38907  1.0000
  S   S22       1.0  0.13222  0.65060  0.29497  1.0000
  Fe  Fe11      1.0  0.20543  0.64892  0.41450  1.0000
  S   S23       1.0  0.19520  0.66982  0.47287  1.0000
  Fe  Fe12      1.0  0.21728  0.58924  0.36729  1.0000
  S   S24       1.0  0.22443  0.53552  0.37262  1.0000
  S   S25       1.0  0.20358  0.68120  0.36255  1.0000
  S   S26       1.0  0.21635  0.61662  0.31257  1.0000
  C   C87       1.0  0.22363  0.62215  0.51702  1.0000
  C   C88       1.0  0.20246  0.64809  0.51558  1.0000
  C   C89       1.0  0.03975  0.70357  0.33693  1.0000
  C   C90       1.0  0.01491  0.71481  0.25903  1.0000
  H   H145      1.0  0.30892  0.90320  0.27698  1.0000
  H   H146      1.0  0.03656  0.53223  0.27978  1.0000
  C   C91       1.0  0.30884  0.55517  0.39057  1.0000
  H   H147      1.0  0.23513  0.61431  0.49130  1.0000
  H   H148      1.0  0.03920  0.70418  0.25773  1.0000
  H   H149      1.0  0.31375  0.97241  0.14512  1.0000
  H   H150      1.0  0.04178  0.69622  0.39971  1.0000
  H   H151      1.0  0.33065  0.94944  0.40171  1.0000
  C   C92       1.0  0.07117  0.63528  0.27318  1.0000
  C   C93       1.0  0.09395  0.63496  0.30305  1.0000
  H   H152      1.0  0.32531  0.84343  0.36121  1.0000
  H   H153      1.0  0.07752  0.64467  0.24556  1.0000
  H   H154      1.0  0.10287  0.62262  0.36193  1.0000
  H   H155      1.0  0.16441  0.55143  0.31987  1.0000
  H   H156      1.0  0.12820  0.57373  0.24677  1.0000
  C   C94       1.0  0.28399  0.58258  0.26565  1.0000
  H   H157      1.0  0.15491  0.54217  0.38116  1.0000
  H   H158      1.0  0.21823  0.54538  0.29036  1.0000
  C   C95       1.0  0.30897  0.70679  0.30736  1.0000
  C   C96       1.0  0.30190  0.73152  0.33272  1.0000
  H   H159      1.0  0.13278  0.57943  0.31932  1.0000
  H   H160      1.0  0.33282  0.93915  0.27380  1.0000
  H   H161      1.0  0.09000  0.53087  0.25686  1.0000
  H   H162      1.0  0.29658  0.56719  0.24534  1.0000
  H   H163      1.0  0.28400  0.72791  0.35412  1.0000
  C   C97       1.0  0.31849  0.76079  0.33084  1.0000
  C   C98       1.0  0.14134  0.55723  0.30535  1.0000
  C   C99       1.0  0.03175  0.61176  0.31453  1.0000
  H   H164      1.0  0.30996  0.85525  0.31473  1.0000
  H   H165      1.0  0.30148  0.91187  0.34061  1.0000
  H   H166      1.0  0.04536  0.67842  0.32943  1.0000
  H   H167      1.0  0.30106  0.93082  0.10046  1.0000
  H   H168      1.0  0.28517  0.85701  0.35537  1.0000
  C   C100      1.0  0.08561  0.62269  0.33863  1.0000
  H   H169      1.0  0.29336  0.60086  0.32180  1.0000
  H   H170      1.0  0.08464  0.56545  0.28507  1.0000
  H   H171      1.0  0.25816  0.57861  0.26015  1.0000
  H   H172      1.0  0.04850  0.54005  0.32776  1.0000
  C   C101      1.0  0.05463  0.61105  0.34427  1.0000
  H   H173      1.0  0.33879  0.95435  0.33318  1.0000
  H   H174      1.0  0.04821  0.60195  0.37200  1.0000
  C   C102      1.0  0.14944  0.56610  0.26380  1.0000
  H   H175      1.0  0.01646  0.74117  0.26165  1.0000
  C   C103      1.0  0.05544  0.52700  0.30161  1.0000
  H   H176      1.0  0.30830  0.52885  0.39458  1.0000
  N   N6        1.0  0.11756  0.53055  0.31011  1.0000
  H   H177      1.0  0.31680  0.89895  0.38533  1.0000
  C   C104      1.0  0.29174  0.57675  0.30854  1.0000
  C   C105      1.0  0.31416  0.52200  0.31686  1.0000
  C   C106      1.0  0.13834  0.52165  0.37943  1.0000
  H   H178      1.0  0.31190  0.88259  0.06121  1.0000
  H   H179      1.0  0.16586  0.58684  0.26420  1.0000
  H   H180      1.0  0.31717  0.56560  0.41809  1.0000
  H   H181      1.0  0.29777  0.86622  0.12545  1.0000
  C   C107      1.0  0.04020  0.62358  0.27881  1.0000
  H   H182      1.0  0.28441  0.56426  0.38513  1.0000
  H   H183      1.0  0.02283  0.62392  0.25559  1.0000
  C   C108      1.0  0.31967  0.89576  0.35409  1.0000
  H   H184      1.0  0.31313  0.77952  0.35095  1.0000
  H   H185      1.0  0.27037  0.56577  0.32144  1.0000
  C   C109      1.0  0.10994  0.52845  0.35194  1.0000
  H   H186      1.0  0.07919  0.70035  0.37741  1.0000
  H   H187      1.0  0.31565  0.83269  0.10268  1.0000
  C   C110      1.0  0.30991  0.86089  0.34560  1.0000
  C   C111      1.0  0.33171  0.56519  0.35880  1.0000
  H   H188      1.0  0.05564  0.73526  0.38337  1.0000
  C   C112      1.0  0.08782  0.53902  0.28692  1.0000
  C   C113      1.0  0.32050  0.85708  0.11388  1.0000
  C   C114      1.0  0.05418  0.70938  0.37695  1.0000
  H   H189      1.0  0.05402  0.71859  0.31741  1.0000
  H   H190      1.0  0.16198  0.54643  0.24909  1.0000
  H   H191      1.0  0.01673  0.75984  0.32535  1.0000
  N   N7        1.0  0.32123  0.55735  0.31839  1.0000
  H   H192      1.0  0.09868  0.55123  0.36146  1.0000
  C   C115      1.0  0.33322  0.91268  0.27266  1.0000
  C   C116      1.0  0.32401  0.92764  0.11665  1.0000
  H   H193      1.0  0.29327  0.51613  0.33472  1.0000
  C   C117      1.0  0.21974  0.52003  0.29603  1.0000
  H   H194      1.0  0.28821  0.60804  0.25814  1.0000
  H   H195      1.0  0.31815  0.91394  0.14282  1.0000
  C   C118      1.0  0.33245  0.71191  0.27984  1.0000
  H   H196      1.0  0.33510  0.59144  0.36233  1.0000
  H   H197      1.0  0.33986  0.90616  0.24318  1.0000
  H   H198      1.0  0.12921  0.51816  0.40867  1.0000
  H   H199      1.0  0.33852  0.85444  0.13712  1.0000
  C   C119      1.0  0.33250  0.87836  0.08119  1.0000
  C   C120      1.0  0.34200  0.76586  0.30332  1.0000
  H   H200      1.0  0.33814  0.69297  0.26012  1.0000
  H   H201      1.0  0.33061  0.93593  0.04320  1.0000
  C   C121      1.0  0.33440  0.96074  0.13131  1.0000
  H   H202      1.0  0.33982  0.61713  0.28896  1.0000
  H   H203      1.0  0.28385  0.51795  0.26509  1.0000
  H   H204      1.0  0.34436  0.55857  0.26306  1.0000
  H   H205      1.0  0.34203  0.97702  0.10831  1.0000
  Fe  Fe13      1.0  0.20280  0.59241  0.76979  1.0000
  S   S27       1.0  0.17552  0.63676  0.78562  1.0000
  S   S28       1.0  0.21197  0.55810  0.81900  1.0000
  Fe  Fe14      1.0  0.20599  0.61256  0.68609  1.0000
  S   S29       1.0  0.17842  0.65771  0.69588  1.0000
  S   S30       1.0  0.22736  0.59848  0.62951  1.0000
  Fe  Fe15      1.0  0.21003  0.66294  0.74822  1.0000
  S   S31       1.0  0.23015  0.71222  0.76251  1.0000
  Fe  Fe16      1.0  0.14681  0.62741  0.73236  1.0000
  S   S32       1.0  0.09283  0.62646  0.72602  1.0000
  S   S33       1.0  0.23949  0.61936  0.73648  1.0000
  S   S34       1.0  0.17212  0.58146  0.71856  1.0000
  N   N8        1.0  0.27758  0.69351  0.62921  1.0000
  C   C122      1.0  0.29939  0.73443  0.67920  1.0000
  C   C123      1.0  0.28194  0.69074  0.88276  1.0000
  C   C124      1.0  0.02473  0.64966  0.82309  1.0000
  H   H206      1.0  0.28226  0.64199  0.62698  1.0000
  H   H207      1.0  0.03272  0.56026  0.92127  1.0000
  H   H208      1.0  0.30417  0.66776  0.55660  1.0000
  C   C125      1.0  0.05744  0.65604  0.82742  1.0000
  H   H209      1.0  0.21893  0.70553  0.87149  1.0000
  C   C126      1.0  0.29378  0.69218  0.55808  1.0000
  C   C127      1.0  0.29753  0.72281  0.63731  1.0000
  H   H210      1.0  0.31821  0.66283  0.61782  1.0000
  C   C128      1.0  0.33104  0.74043  0.80481  1.0000
  H   H211      1.0  0.23037  0.60563  0.89851  1.0000
  C   C129      1.0  0.06719  0.63624  0.76358  1.0000
  C   C130      1.0  0.07870  0.64898  0.79797  1.0000
  H   H212      1.0  0.10390  0.65373  0.80169  1.0000
  C   C131      1.0  0.28304  0.60640  0.83833  1.0000
  H   H213      1.0  0.32001  0.68286  0.92662  1.0000
  C   C132      1.0  0.03438  0.63038  0.75900  1.0000
  H   H214      1.0  0.09822  0.55930  0.78137  1.0000
  C   C133      1.0  0.26390  0.64409  0.91809  1.0000
  C   C134      1.0  0.29663  0.66323  0.63574  1.0000
  C   C135      1.0  0.26958  0.72248  0.77723  1.0000
  C   C136      1.0  0.27601  0.75418  0.78814  1.0000
  C   C137      1.0  0.30655  0.76315  0.80178  1.0000
  H   H215      1.0  0.31416  0.63051  0.87825  1.0000
  H   H216      1.0  0.30536  0.65175  0.83537  1.0000
  C   C138      1.0  0.29431  0.69992  0.77910  1.0000
  H   H217      1.0  0.25712  0.77189  0.78658  1.0000
  C   C139      1.0  0.23915  0.65883  0.85480  1.0000
  C   C140      1.0  0.01331  0.63645  0.78889  1.0000
  H   H218      1.0  0.28983  0.67553  0.77039  1.0000
  C   C141      1.0  0.19413  0.64226  0.58415  1.0000
  C   C142      1.0  0.21595  0.61683  0.58576  1.0000
  H   H219      1.0  0.19089  0.67810  0.85218  1.0000
  H   H220      1.0  0.18257  0.65011  0.60979  1.0000
  H   H221      1.0  0.01263  0.72111  0.81135  1.0000
  H   H222      1.0  0.25066  0.67385  0.58145  1.0000
  N   N9        1.0  0.26947  0.65698  0.87858  1.0000
  H   H223      1.0  0.06551  0.52680  0.88581  1.0000
  H   H224      1.0  0.26622  0.59165  0.92263  1.0000
  H   H225      1.0  0.27130  0.58938  0.85757  1.0000
  H   H226      1.0  0.20672  0.72064  0.66965  1.0000
  C   C143      1.0  0.18776  0.65805  0.54929  1.0000
  H   H227      1.0  0.24736  0.58711  0.55300  1.0000
  H   H228      1.0  0.26671  0.70509  0.90205  1.0000
  H   H229      1.0  0.23553  0.74350  0.64459  1.0000
  C   C144      1.0  0.29428  0.63732  0.85829  1.0000
  H   H230      1.0  0.02536  0.62053  0.73243  1.0000
  H   H231      1.0  0.28196  0.75403  0.68411  1.0000
  C   C145      1.0  0.24798  0.61100  0.92139  1.0000
  H   H232      1.0  0.28692  0.64195  0.93417  1.0000
  H   H233      1.0  0.05044  0.58262  0.80756  1.0000
  H   H234      1.0  0.17131  0.67805  0.54838  1.0000
  H   H235      1.0  0.01352  0.59758  0.91151  1.0000
  H   H236      1.0  0.25327  0.71613  0.58078  1.0000
  H   H237      1.0  0.25002  0.66124  0.93556  1.0000
  H   H238      1.0  0.28084  0.70360  0.85499  1.0000
  C   C146      1.0  0.21235  0.67987  0.87108  1.0000
  C   C147      1.0  0.30921  0.65697  0.67660  1.0000
  H   H239      1.0  0.02281  0.71132  0.76388  1.0000
  H   H240      1.0  0.22862  0.63498  0.84939  1.0000
  H   H241      1.0  0.29010  0.65685  0.69791  1.0000
  H   H242      1.0  0.31094  0.78752  0.81072  1.0000
  H   H243      1.0  0.23411  0.61008  0.94807  1.0000
  H   H244      1.0  0.06643  0.66637  0.85374  1.0000
  H   H245      1.0  0.30411  0.59379  0.82671  1.0000
  H   H246      1.0  0.23474  0.66949  0.64687  1.0000
  H   H247      1.0  0.32192  0.72007  0.90158  1.0000
  H   H248      1.0  0.25297  0.69153  0.68359  1.0000
  C   C148      1.0  0.05979  0.56086  0.82192  1.0000
  H   H249      1.0  0.31279  0.71004  0.56337  1.0000
  C   C149      1.0  0.24773  0.69221  0.65257  1.0000
  H   H250      1.0  0.06548  0.53489  0.76744  1.0000
  C   C150      1.0  0.07989  0.54271  0.79250  1.0000
  H   H251      1.0  0.29639  0.71568  0.70092  1.0000
  C   C151      1.0  0.21485  0.51658  0.81001  1.0000
  C   C152      1.0  0.22378  0.71987  0.64578  1.0000
  H   H252      1.0  0.09293  0.52220  0.80542  1.0000
  H   H253      1.0  0.07692  0.56989  0.84394  1.0000
  H   H254      1.0  0.26700  0.61166  0.81363  1.0000
  C   C153      1.0  0.32481  0.70885  0.79300  1.0000
  H   H255      1.0  0.28323  0.69718  0.52934  1.0000
  H   H256      1.0  0.20524  0.67185  0.89982  1.0000
  C   C154      1.0  0.23052  0.60679  0.55203  1.0000
  H   H257      1.0  0.20948  0.71597  0.61922  1.0000
  H   H258      1.0  0.24442  0.66816  0.82583  1.0000
  C   C155      1.0  0.26708  0.69401  0.58773  1.0000
  H   H259      1.0  0.28797  0.74353  0.62054  1.0000
  N   N10       1.0  0.03313  0.54247  0.84006  1.0000
  H   H260      1.0  0.33427  0.68475  0.87806  1.0000
  H   H261      1.0  0.32817  0.67418  0.68480  1.0000
  C   C156      1.0  0.02932  0.57904  0.89918  1.0000
  C   C157      1.0  0.31650  0.69420  0.89828  1.0000
  H   H262      1.0  0.05226  0.59099  0.89337  1.0000
  H   H263      1.0  0.34251  0.96768  0.75348  1.0000
  H   H264      1.0  0.32241  0.71905  0.62760  1.0000
  H   H265      1.0  0.32322  0.74514  0.68485  1.0000
  H   H266      1.0  0.22139  0.52136  0.74953  1.0000
  H   H267      1.0  0.32033  0.63281  0.67769  1.0000
  H   H268      1.0  0.34368  0.69115  0.79502  1.0000
  C   C158      1.0  0.01333  0.56569  0.86262  1.0000
  H   H269      1.0  0.01444  0.56222  0.76374  1.0000
  C   C159      1.0  0.04755  0.51686  0.86531  1.0000
  C   C160      1.0  0.01200  0.52665  0.81051  1.0000
  Fe  Fe17      1.0  0.40304  0.12991  0.41815  1.0000
  S   S35       1.0  0.41009  0.17015  0.37651  1.0000
  S   S36       1.0  0.38306  0.14453  0.47524  1.0000
  Fe  Fe18      1.0  0.42255  0.07917  0.36007  1.0000
  S   S37       1.0  0.43023  0.11520  0.31361  1.0000
  H   H270      1.0  0.53042  0.01810  0.28391  1.0000
  Fe  Fe19      1.0  0.45442  0.14402  0.35928  1.0000
  S   S38       1.0  0.50107  0.16984  0.35164  1.0000
  Fe  Fe20      1.0  0.38516  0.13881  0.33412  1.0000
  S   S39       1.0  0.44984  0.10679  0.40497  1.0000
  S   S40       1.0  0.37495  0.09973  0.37659  1.0000
  H   H271      1.0  0.38071  0.23007  0.23995  1.0000
  Fe  Fe21      1.0  0.64270  0.13415  0.22014  1.0000
  S   S41       1.0  0.58911  0.13847  0.21145  1.0000
  H   H272      1.0  0.37133  0.21618  0.33074  1.0000
  C   C161      1.0  0.52525  0.16086  0.31251  1.0000
  C   C162      1.0  0.55809  0.16689  0.31512  1.0000
  C   C163      1.0  0.57798  0.16009  0.28432  1.0000
  C   C164      1.0  0.56495  0.14799  0.25037  1.0000
  C   C165      1.0  0.53197  0.14260  0.24746  1.0000
  C   C166      1.0  0.51223  0.14851  0.27864  1.0000
  H   H273      1.0  0.56826  0.17666  0.34116  1.0000
  H   H274      1.0  0.60331  0.16462  0.28669  1.0000
  H   H275      1.0  0.52180  0.13325  0.22121  1.0000
  H   H276      1.0  0.48698  0.14384  0.27628  1.0000
  H   H277      1.0  0.52142  0.10990  0.39844  1.0000
  C   C167      1.0  0.51821  0.03835  0.29819  1.0000
  C   C168      1.0  0.53797  0.09291  0.38452  1.0000
  N   N11       1.0  0.53991  0.05394  0.32739  1.0000
  H   H278      1.0  0.42416  0.08984  0.49416  1.0000
  S   S42       1.0  0.66342  0.08618  0.20594  1.0000
  H   H279      1.0  0.48872  0.07939  0.27880  1.0000
  H   H280      1.0  0.45216  0.17165  0.22031  1.0000
  C   C169      1.0  0.50424  0.06055  0.26683  1.0000
  N   N12       1.0  0.44486  0.23135  0.26046  1.0000
  C   C170      1.0  0.48022  0.22775  0.25436  1.0000
  C   C171      1.0  0.43150  0.19857  0.26829  1.0000
  C   C172      1.0  0.43818  0.25276  0.29391  1.0000
  C   C173      1.0  0.42966  0.24622  0.22538  1.0000
  C   C174      1.0  0.49906  0.25904  0.24934  1.0000
  H   H281      1.0  0.51134  0.09698  0.33226  1.0000
  C   C175      1.0  0.45511  0.24349  0.33177  1.0000
  H   H282      1.0  0.38593  0.27272  0.24019  1.0000
  H   H283      1.0  0.49181  0.21433  0.27834  1.0000
  H   H284      1.0  0.48485  0.21307  0.22863  1.0000
  H   H285      1.0  0.57231  0.04355  0.25588  1.0000
  H   H286      1.0  0.44634  0.18582  0.29020  1.0000
  H   H287      1.0  0.44434  0.27805  0.28749  1.0000
  H   H288      1.0  0.41216  0.25334  0.29969  1.0000
  H   H289      1.0  0.43894  0.27080  0.22093  1.0000
  H   H290      1.0  0.60046  0.03362  0.29421  1.0000
  C   C176      1.0  0.42876  0.17608  0.23356  1.0000
  H   H291      1.0  0.60442  0.06963  0.26754  1.0000
  C   C177      1.0  0.55452  0.02827  0.35245  1.0000
  C   C178      1.0  0.58666  0.05311  0.28006  1.0000
  H   H292      1.0  0.41954  0.15259  0.24309  1.0000
  C   C179      1.0  0.52043  0.07707  0.35043  1.0000
  H   H293      1.0  0.43649  0.23349  0.19887  1.0000
  H   H294      1.0  0.44730  0.26004  0.35454  1.0000
  H   H295      1.0  0.48142  0.24545  0.33025  1.0000
  C   C180      1.0  0.35068  0.22256  0.31348  1.0000
  S   S43       1.0  0.66954  0.13774  0.27563  1.0000
  C   C181      1.0  0.56640  0.07208  0.30863  1.0000
  H   H296      1.0  0.57340  0.03836  0.37161  1.0000
  H   H297      1.0  0.49713  0.27515  0.27423  1.0000
  H   H298      1.0  0.39682  0.03685  0.28941  1.0000
  H   H299      1.0  0.40754  0.20001  0.28113  1.0000
  H   H300      1.0  0.54553  0.07531  0.40657  1.0000
  H   H301      1.0  0.58363  0.08153  0.33026  1.0000
  H   H302      1.0  0.55873  0.10719  0.37553  1.0000
  H   H303      1.0  0.44883  0.21905  0.34098  1.0000
  H   H304      1.0  0.49193  0.27191  0.22284  1.0000
  C   C182      1.0  0.39295  0.25013  0.22589  1.0000
  H   H305      1.0  0.55689  0.09357  0.29369  1.0000
  H   H306      1.0  0.64719  0.11174  0.02527  1.0000
  H   H307      1.0  0.41137  0.18509  0.21186  1.0000
  H   H308      1.0  0.60500  0.10762  0.02199  1.0000
  H   H309      1.0  0.49865  0.06536  0.36140  1.0000
  H   H310      1.0  0.38333  0.25032  0.19616  1.0000
  H   H311      1.0  0.52478  0.25295  0.24675  1.0000
  S   S44       1.0  0.34692  0.15844  0.29355  1.0000
  H   H312      1.0  0.51851  0.02505  0.39794  1.0000
  C   C183      1.0  0.35431  0.22799  0.44681  1.0000
  H   H313      1.0  0.52291  0.07164  0.24924  1.0000
  H   H314      1.0  0.48889  0.04618  0.24727  1.0000
  H   H315      1.0  0.36784  0.20597  0.44024  1.0000
  H   H316      1.0  0.37175  0.24787  0.44569  1.0000
  S   S45       1.0  0.43831  0.02722  0.35624  1.0000
  H   H317      1.0  0.35273  0.27261  0.32840  1.0000
  H   H318      1.0  0.49725  0.02748  0.31215  1.0000
  C   C184      1.0  0.40732  0.01320  0.28801  1.0000
  C   C185      1.0  0.39602  0.12726  0.51905  1.0000
  H   H319      1.0  0.34553  0.22748  0.47641  1.0000
  Fe  Fe22      1.0  0.40092  0.09085  0.77317  1.0000
  S   S46       1.0  0.40242  0.14254  0.79053  1.0000
  S   S47       1.0  0.39455  0.05636  0.82218  1.0000
  Fe  Fe23      1.0  0.41531  0.10622  0.69020  1.0000
  S   S48       1.0  0.41816  0.15895  0.70140  1.0000
  S   S49       1.0  0.42574  0.08186  0.63401  1.0000
  Fe  Fe24      1.0  0.44603  0.14535  0.75451  1.0000
  S   S50       1.0  0.48822  0.17491  0.77526  1.0000
  Fe  Fe25      1.0  0.37441  0.15174  0.73674  1.0000
  S   S51       1.0  0.44654  0.09299  0.74089  1.0000
  H   H320      1.0  0.40598  0.22788  0.70035  1.0000
  H   H321      1.0  0.59237  0.07437  0.95590  1.0000
  Fe  Fe26      1.0  0.66454  0.11972  0.83540  1.0000
  S   S52       1.0  0.61569  0.09955  0.82069  1.0000
  H   H322      1.0  0.56660  0.05810  0.89604  1.0000
  C   C186      1.0  0.52397  0.15418  0.78740  1.0000
  C   C187      1.0  0.55196  0.17128  0.79627  1.0000
  C   C188      1.0  0.58058  0.15504  0.80596  1.0000
  C   C189      1.0  0.58123  0.12157  0.80697  1.0000
  C   C190      1.0  0.55322  0.10462  0.79843  1.0000
  C   C191      1.0  0.52477  0.12079  0.78878  1.0000
  H   H323      1.0  0.55157  0.19713  0.79530  1.0000
  H   H324      1.0  0.60203  0.16836  0.81257  1.0000
  H   H325      1.0  0.55346  0.07876  0.79941  1.0000
  H   H326      1.0  0.50343  0.10735  0.78260  1.0000
  C   C192      1.0  0.39477  0.12721  0.58878  1.0000
  C   C193      1.0  0.41444  0.10011  0.59013  1.0000
  C   C194      1.0  0.42496  0.08674  0.55579  1.0000
  H   H327      1.0  0.38646  0.13765  0.61500  1.0000
  H   H328      1.0  0.43214  0.20256  0.82131  1.0000
  S   S53       1.0  0.36948  0.09957  0.72161  1.0000
  H   H329      1.0  0.37381  0.32758  0.78489  1.0000
  C   C195      1.0  0.60583  0.14523  0.90929  1.0000
  C   C196      1.0  0.62795  0.12596  0.96966  1.0000
  C   C197      1.0  0.37877  0.26515  0.73081  1.0000
  H   H330      1.0  0.45392  0.25464  0.73261  1.0000
  H   H331      1.0  0.44015  0.06578  0.55661  1.0000
  C   C198      1.0  0.56518  0.08334  0.90569  1.0000
  H   H332      1.0  0.63733  0.18381  0.92970  1.0000
  C   C199      1.0  0.59460  0.09064  0.93104  1.0000
  H   H333      1.0  0.56128  0.11718  0.98424  1.0000
  H   H334      1.0  0.61224  0.19423  0.89009  1.0000
  N   N13       1.0  0.39608  0.26477  0.76892  1.0000
  C   C200      1.0  0.45602  0.27409  0.75374  1.0000
  H   H335      1.0  0.42954  0.29544  0.79864  1.0000
  H   H336      1.0  0.54277  0.08577  0.92178  1.0000
  C   C201      1.0  0.40555  0.23089  0.77912  1.0000
  C   C202      1.0  0.57029  0.13654  0.96549  1.0000
  C   C203      1.0  0.38299  0.01637  0.81507  1.0000
  C   C204      1.0  0.42411  0.28735  0.76897  1.0000
  H   H337      1.0  0.38450  0.21486  0.77677  1.0000
  H   H338      1.0  0.41807  0.30944  0.75251  1.0000
  H   H339      1.0  0.46902  0.29378  0.73957  1.0000
  H   H340      1.0  0.61608  0.08238  0.91542  1.0000
  C   C205      1.0  0.42019  0.22630  0.81948  1.0000
  H   H341      1.0  0.37002  0.16137  0.55261  1.0000
  H   H342      1.0  0.47192  0.26612  0.77766  1.0000
  H   H343      1.0  0.51904  0.14219  0.95558  1.0000
  H   H344      1.0  0.40140  0.22652  0.84139  1.0000
  H   H345      1.0  0.37137  0.28986  0.72275  1.0000
  H   H346      1.0  0.35639  0.12246  0.84833  1.0000
  H   H347      1.0  0.62675  0.13543  0.89403  1.0000
  H   H348      1.0  0.42279  0.22056  0.75898  1.0000
  H   H349      1.0  0.57762  0.15631  0.98502  1.0000
  H   H350      1.0  0.56402  0.09812  0.87957  1.0000
  C   C206      1.0  0.38547  0.14059  0.55337  1.0000
  H   H351      1.0  0.54112  0.17622  0.94222  1.0000
  C   C207      1.0  0.61294  0.18075  0.91745  1.0000
  H   H352      1.0  0.35314  0.25806  0.80168  1.0000
  H   H353      1.0  0.38058  0.25192  0.67123  1.0000
  H   H354      1.0  0.43848  0.24447  0.82652  1.0000
  C   C208      1.0  0.39715  0.25261  0.69632  1.0000
  N   N14       1.0  0.59879  0.12485  0.94368  1.0000
  H   H355      1.0  0.58635  0.14466  0.88765  1.0000
  H   H356      1.0  0.64975  0.11912  0.95383  1.0000
  H   H357      1.0  0.38435  0.27758  0.82714  1.0000
  H   H358      1.0  0.63229  0.15070  0.98013  1.0000
  C   C209      1.0  0.37264  0.27580  0.79849  1.0000
  H   H359      1.0  0.53971  0.14140  0.91195  1.0000
  H   H360      1.0  0.59542  0.19188  0.93660  1.0000
  H   H361      1.0  0.66204  0.02252  0.83792  1.0000
  H   H362      1.0  0.41683  0.26890  0.68866  1.0000
  H   H363      1.0  0.35886  0.02449  0.76116  1.0000
  C   C210      1.0  0.54148  0.14966  0.94178  1.0000
  H   H364      1.0  0.44002  0.02794  0.68923  1.0000
  H   H365      1.0  0.36309  0.09939  0.89044  1.0000
  H   H366      1.0  0.42980  0.01936  0.73725  1.0000
  H   H367      1.0  0.35630  0.25116  0.73238  1.0000
  C   C211      1.0  0.35640  0.30850  0.79117  1.0000
  C   C212      1.0  0.62724  0.10474  0.00577  1.0000
  H   H368      1.0  0.63136  0.07918  0.99890  1.0000
  C   C213      1.0  0.41596  0.10035  0.52038  1.0000
  S   S54       1.0  0.42696  0.79160  0.21549  1.0000
  S   S55       1.0  0.44642  0.86126  0.17773  1.0000
  Fe  Fe27      1.0  0.46348  0.83017  0.22652  1.0000
  S   S56       1.0  0.51646  0.81872  0.22675  1.0000
  H   H369      1.0  0.63676  0.93079  0.20523  1.0000
  C   C214      1.0  0.61343  0.92504  0.33674  1.0000
  S   S57       1.0  0.61060  0.84042  0.36866  1.0000
  S   S58       1.0  0.40124  0.93625  0.21786  1.0000
  C   C215      1.0  0.53102  0.00950  0.37741  1.0000
  H   H370      1.0  0.62884  0.90486  0.34633  1.0000
  Fe  Fe28      1.0  0.39599  0.81918  0.25572  1.0000
  H   H371      1.0  0.61254  0.94213  0.36089  1.0000
  C   C216      1.0  0.42847  0.00288  0.31680  1.0000
  H   H372      1.0  0.41578  0.91986  0.37693  1.0000
  H   H373      1.0  0.39338  0.89746  0.03843  1.0000
  H   H374      1.0  0.64197  0.80362  0.44889  1.0000
  H   H375      1.0  0.61535  0.86842  0.21894  1.0000
  H   H376      1.0  0.58894  0.91610  0.33122  1.0000
  H   H377      1.0  0.57861  0.89915  0.26804  1.0000
  N   N15       1.0  0.34774  0.90964  0.09288  1.0000
  H   H378      1.0  0.64184  0.80539  0.49956  1.0000
  C   C217      1.0  0.54205  0.82508  0.26664  1.0000
  C   C218      1.0  0.53125  0.83922  0.30017  1.0000
  C   C219      1.0  0.55247  0.84371  0.33131  1.0000
  C   C220      1.0  0.58456  0.83414  0.32914  1.0000
  C   C221      1.0  0.59532  0.82011  0.29557  1.0000
  C   C222      1.0  0.57419  0.81577  0.26441  1.0000
  H   H379      1.0  0.50653  0.84640  0.30223  1.0000
  H   H380      1.0  0.54392  0.85443  0.35725  1.0000
  H   H381      1.0  0.61985  0.81226  0.29373  1.0000
  H   H382      1.0  0.58271  0.80468  0.23867  1.0000
  N   N16       1.0  0.62325  0.92465  0.26428  1.0000
  C   C223      1.0  0.43422  0.95174  0.28413  1.0000
  H   H383      1.0  0.44492  0.92823  0.28257  1.0000
  C   C224      1.0  0.63414  0.97786  0.22802  1.0000
  C   C225      1.0  0.46588  0.76939  0.10945  1.0000
  S   S59       1.0  0.38957  0.80724  0.11210  1.0000
  Fe  Fe29      1.0  0.40804  0.82483  0.16965  1.0000
  H   H384      1.0  0.45845  0.96408  0.33681  1.0000
  C   C226      1.0  0.64214  0.90837  0.48971  1.0000
  C   C227      1.0  0.41262  0.96181  0.25567  1.0000
  C   C228      1.0  0.63843  0.89199  0.26877  1.0000
  C   C229      1.0  0.44200  0.97217  0.31466  1.0000
  C   C230      1.0  0.35526  0.95148  0.39090  1.0000
  C   C231      1.0  0.43003  0.84203  0.06641  1.0000
  Fe  Fe30      1.0  0.41432  0.88365  0.22080  1.0000
  N   N17       1.0  0.50076  0.77220  0.10006  1.0000
  C   C232      1.0  0.51714  0.78607  0.13506  1.0000
  H   H385      1.0  0.65030  0.98723  0.20585  1.0000
  C   C233      1.0  0.50466  0.79580  0.06788  1.0000
  C   C234      1.0  0.51617  0.74051  0.09108  1.0000
  C   C235      1.0  0.55300  0.79375  0.13183  1.0000
  H   H386      1.0  0.43130  0.74390  0.14323  1.0000
  H   H387      1.0  0.54460  0.99148  0.39453  1.0000
  C   C236      1.0  0.34904  0.56490  0.29322  1.0000
  H   H388      1.0  0.50512  0.80865  0.14397  1.0000
  H   H389      1.0  0.38277  0.00067  0.23554  1.0000
  H   H390      1.0  0.61787  0.96632  0.30110  1.0000
  N   N18       1.0  0.35286  0.90493  0.34250  1.0000
  H   H391      1.0  0.49501  0.81963  0.07615  1.0000
  H   H392      1.0  0.58121  0.90444  0.45757  1.0000
  H   H393      1.0  0.54000  0.74435  0.07838  1.0000
  S   S60       1.0  0.36298  0.80280  0.30290  1.0000
  H   H394      1.0  0.55710  0.81480  0.11330  1.0000
  H   H395      1.0  0.36644  0.95105  0.06289  1.0000
  C   C237      1.0  0.45761  0.74402  0.13969  1.0000
  H   H396      1.0  0.45667  0.79276  0.11989  1.0000
  H   H397      1.0  0.37699  0.60407  0.27018  1.0000
  C   C238      1.0  0.57740  0.87993  0.46866  1.0000
  C   C239      1.0  0.39003  0.81017  0.03390  1.0000
  C   C240      1.0  0.37267  0.91056  0.02612  1.0000
  H   H398      1.0  0.58219  0.86231  0.44587  1.0000
  C   C241      1.0  0.59737  0.87341  0.50532  1.0000
  H   H399      1.0  0.52117  0.72684  0.11790  1.0000
  C   C242      1.0  0.63928  0.87121  0.23245  1.0000
  S   S61       1.0  0.43419  0.85544  0.27041  1.0000
  C   C243      1.0  0.40444  0.82078  0.06804  1.0000
  H   H400      1.0  0.62591  0.87759  0.29044  1.0000
  H   H401      1.0  0.34964  0.86323  0.06529  1.0000
  S   S62       1.0  0.37432  0.84944  0.20909  1.0000
  H   H402      1.0  0.44131  0.85044  0.09242  1.0000
  C   C244      1.0  0.39939  0.99267  0.25756  1.0000
  H   H403      1.0  0.42032  0.89654  0.33421  1.0000
  H   H404      1.0  0.58613  0.91479  0.22208  1.0000
  H   H405      1.0  0.64780  0.84684  0.24029  1.0000
  H   H406      1.0  0.63469  0.91341  0.45964  1.0000
  C   C245      1.0  0.58856  0.92038  0.25303  1.0000
  H   H407      1.0  0.41670  0.92723  0.08565  1.0000
  H   H408      1.0  0.38035  0.94859  0.33760  1.0000
  H   H409      1.0  0.46824  0.74947  0.16806  1.0000
  H   H410      1.0  0.56244  0.80030  0.16060  1.0000
  H   H411      1.0  0.51542  0.76959  0.15987  1.0000
  C   C246      1.0  0.62775  0.94177  0.30179  1.0000
  H   H412      1.0  0.45061  0.76432  0.08417  1.0000
  H   H413      1.0  0.49334  0.69450  0.07829  1.0000
  H   H414      1.0  0.65361  0.94507  0.30805  1.0000
  H   H415      1.0  0.65647  0.88065  0.21157  1.0000
  H   H416      1.0  0.62925  0.92656  0.50673  1.0000
  H   H417      1.0  0.42692  0.87868  0.37980  1.0000
  C   C247      1.0  0.41173  0.89612  0.36376  1.0000
  H   H418      1.0  0.66343  0.89407  0.27973  1.0000
  C   C248      1.0  0.64403  0.85232  0.47021  1.0000
  H   H419      1.0  0.46462  0.71957  0.13109  1.0000
  H   H420      1.0  0.67052  0.85144  0.46953  1.0000
  H   H421      1.0  0.42390  0.92099  0.13521  1.0000
  H   H422      1.0  0.56719  0.77298  0.12217  1.0000
  H   H423      1.0  0.46085  0.86905  0.02983  1.0000
  H   H424      1.0  0.59001  0.84985  0.51708  1.0000
  H   H425      1.0  0.56694  0.01011  0.33490  1.0000
  H   H426      1.0  0.51207  0.71243  0.03844  1.0000
  H   H427      1.0  0.36674  0.74479  0.25636  1.0000
  C   C249      1.0  0.64122  0.94196  0.23358  1.0000
  H   H428      1.0  0.54754  0.95031  0.23800  1.0000
  H   H429      1.0  0.46347  0.78306  0.02978  1.0000
  C   C250      1.0  0.35991  0.60015  0.29356  1.0000
  C   C251      1.0  0.56560  0.94849  0.26152  1.0000
  C   C252      1.0  0.49757  0.71776  0.06389  1.0000
  Fe  Fe31      1.0  0.66428  0.83620  0.36193  1.0000
  C   C253      1.0  0.44104  0.85257  0.03091  1.0000
  H   H430      1.0  0.38867  0.87951  0.10739  1.0000
  H   H431      1.0  0.37242  0.89945  0.14656  1.0000
  H   H432      1.0  0.55168  0.87792  0.47533  1.0000
  C   C254      1.0  0.37790  0.90267  0.11584  1.0000
  H   H433      1.0  0.51315  0.99622  0.36003  1.0000
  C   C255      1.0  0.35367  0.92840  0.05689  1.0000
  C   C256      1.0  0.40510  0.92742  0.11379  1.0000
  H   H434      1.0  0.37010  0.54990  0.30156  1.0000
  C   C257      1.0  0.35798  0.89803  0.30087  1.0000
  H   H435      1.0  0.47423  0.72683  0.05342  1.0000
  C   C258      1.0  0.35725  0.94028  0.34910  1.0000
  H   H436      1.0  0.63671  0.86117  0.44142  1.0000
  H   H437      1.0  0.39736  0.95203  0.12044  1.0000
  H   H438      1.0  0.55179  0.94341  0.28757  1.0000
  C   C259      1.0  0.34871  0.74132  0.27761  1.0000
  H   H439      1.0  0.35868  0.87183  0.29555  1.0000
  C   C260      1.0  0.63264  0.81735  0.47336  1.0000
  H   H440      1.0  0.37023  0.79370  0.03490  1.0000
  N   N19       1.0  0.63300  0.87481  0.50092  1.0000
  H   H441      1.0  0.35529  0.55397  0.36580  1.0000
  H   H442      1.0  0.53029  0.79955  0.06183  1.0000
  C   C261      1.0  0.37659  0.88546  0.36577  1.0000
  H   H443      1.0  0.37266  0.60625  0.32056  1.0000
  H   H444      1.0  0.60956  0.98212  0.21704  1.0000
  H   H445      1.0  0.57682  0.97222  0.26401  1.0000
  H   H446      1.0  0.38162  0.90686  0.29192  1.0000
  H   H447      1.0  0.36173  0.97722  0.39229  1.0000
  H   H448      1.0  0.37202  0.93859  0.41033  1.0000
  H   H449      1.0  0.60633  0.81523  0.47149  1.0000
  H   H450      1.0  0.66742  0.93973  0.23900  1.0000
  H   H451      1.0  0.35327  0.95850  0.15379  1.0000
  H   H452      1.0  0.37620  0.85994  0.35663  1.0000
  C   C262      1.0  0.67805  0.91614  0.49247  1.0000
  H   H453      1.0  0.37009  0.88493  0.39641  1.0000
  C   C263      1.0  0.48951  0.78714  0.02886  1.0000
  H   H454      1.0  0.63939  0.99219  0.25392  1.0000
  S   S63       1.0  0.44095  0.80299  0.85852  1.0000
  S   S64       1.0  0.43420  0.88100  0.84889  1.0000
  Fe  Fe32      1.0  0.44907  0.83965  0.81265  1.0000
  S   S65       1.0  0.48884  0.84621  0.76972  1.0000
  H   H455      1.0  0.58282  0.91341  0.77136  1.0000
  C   C264      1.0  0.64704  0.92753  0.84253  1.0000
  C   C265      1.0  0.64636  0.92799  0.77277  1.0000
  H   H456      1.0  0.39782  0.89334  0.72631  1.0000
  C   C266      1.0  0.47356  0.98669  0.79420  1.0000
  C   C267      1.0  0.60137  0.95179  0.80878  1.0000
  S   S66       1.0  0.63811  0.83253  0.80342  1.0000
  H   H457      1.0  0.67269  0.92502  0.77195  1.0000
  H   H458      1.0  0.66152  0.88528  0.59355  1.0000
  H   H459      1.0  0.44657  0.94322  0.79434  1.0000
  C   C268      1.0  0.64714  0.00072  0.84085  1.0000
  C   C269      1.0  0.36546  0.95179  0.80572  1.0000
  H   H460      1.0  0.59346  0.97084  0.78848  1.0000
  S   S67       1.0  0.37123  0.83855  0.87353  1.0000
  C   C270      1.0  0.63676  0.94307  0.73390  1.0000
  H   H461      1.0  0.63767  0.90285  0.77359  1.0000
  C   C271      1.0  0.40099  0.82082  0.99833  1.0000
  C   C272      1.0  0.53021  0.84211  0.77978  1.0000
  C   C273      1.0  0.55186  0.84567  0.74990  1.0000
  C   C274      1.0  0.58497  0.84264  0.75661  1.0000
  C   C275      1.0  0.59671  0.83605  0.79337  1.0000
  C   C276      1.0  0.57511  0.83275  0.82331  1.0000
  C   C277      1.0  0.54199  0.83577  0.81659  1.0000
  H   H462      1.0  0.54294  0.85038  0.72130  1.0000
  H   H463      1.0  0.60135  0.84517  0.73333  1.0000
  H   H464      1.0  0.58399  0.82773  0.85186  1.0000
  H   H465      1.0  0.52556  0.83302  0.83980  1.0000
  H   H466      1.0  0.58943  0.89119  0.52679  1.0000
  H   H467      1.0  0.38996  0.94366  0.85934  1.0000
  H   H468      1.0  0.38974  0.81253  0.97216  1.0000
  S   S68       1.0  0.39999  0.83299  0.78687  1.0000
  C   C278      1.0  0.44861  0.96445  0.77536  1.0000
  H   H469      1.0  0.46344  0.97531  0.67954  1.0000
  H   H470      1.0  0.64583  0.99230  0.78065  1.0000
  H   H471      1.0  0.63837  0.90244  0.84026  1.0000
  Fe  Fe33      1.0  0.39018  0.79960  0.83534  1.0000
  Fe  Fe34      1.0  0.42243  0.84408  0.89348  1.0000
  H   H472      1.0  0.42530  0.97678  0.77710  1.0000
  C   C279      1.0  0.58073  0.92195  0.80114  1.0000
  H   H473      1.0  0.40349  0.94994  0.72709  1.0000
  Fe  Fe35      1.0  0.38480  0.87231  0.82619  1.0000
  C   C280      1.0  0.39130  0.99351  0.84293  1.0000
  C   C281      1.0  0.49341  0.91949  0.69591  1.0000
  H   H474      1.0  0.51096  0.93506  0.68158  1.0000
  H   H475      1.0  0.50411  0.89536  0.70039  1.0000
  C   C282      1.0  0.42659  0.84207  0.99673  1.0000
  H   H476      1.0  0.42523  0.93528  0.68849  1.0000
  H   H477      1.0  0.61950  0.87660  0.58792  1.0000
  H   H478      1.0  0.55521  0.92805  0.80531  1.0000
  H   H479      1.0  0.42205  0.90190  0.76724  1.0000
  C   C283      1.0  0.64860  0.86504  0.53821  1.0000
  H   H480      1.0  0.49725  0.97504  0.79736  1.0000
  H   H481      1.0  0.66423  0.71190  0.80830  1.0000
  H   H482      1.0  0.47286  0.91591  0.67622  1.0000
  S   S69       1.0  0.35449  0.91155  0.79886  1.0000
  H   H483      1.0  0.49275  0.80761  0.00902  1.0000
  H   H484      1.0  0.47568  0.00981  0.77895  1.0000
  H   H485      1.0  0.63589  0.93721  0.86868  1.0000
  H   H486      1.0  0.48258  0.91381  0.75608  1.0000
  N   N20       1.0  0.63697  0.94655  0.80765  1.0000
  H   H487      1.0  0.50170  0.76655  0.01560  1.0000
  H   H488      1.0  0.35732  0.89336  0.01023  1.0000
  C   C284      1.0  0.36549  0.00700  0.78269  1.0000
  C   C285      1.0  0.65325  0.97857  0.80661  1.0000
  H   H489      1.0  0.50537  0.94727  0.74493  1.0000
  S   S70       1.0  0.44162  0.85609  0.95307  1.0000
  H   H490      1.0  0.64167  0.84032  0.54622  1.0000
  H   H491      1.0  0.43974  0.88583  0.72467  1.0000
  C   C286      1.0  0.42151  0.90255  0.73571  1.0000
  H   H492      1.0  0.59433  0.96104  0.83719  1.0000
  H   H493      1.0  0.62194  0.00889  0.84139  1.0000
  H   H494      1.0  0.58675  0.90221  0.82116  1.0000
  H   H495      1.0  0.63276  0.92380  0.71264  1.0000
  H   H496      1.0  0.61424  0.95684  0.73443  1.0000
  C   C287      1.0  0.64084  0.88585  0.57321  1.0000
  S   S71       1.0  0.36896  0.74968  0.82543  1.0000
  C   C288      1.0  0.38307  0.96121  0.83798  1.0000
  N   N21       1.0  0.45477  0.95442  0.73490  1.0000
  C   C289      1.0  0.42575  0.93672  0.72016  1.0000
  C   C290      1.0  0.46030  0.98297  0.70964  1.0000
  C   C291      1.0  0.48417  0.93360  0.73489  1.0000
  H   H497      1.0  0.38174  0.92792  0.00491  1.0000
  C   C292      1.0  0.35629  0.97486  0.77839  1.0000
  H   H498      1.0  0.48301  0.99519  0.71750  1.0000
  H   H499      1.0  0.41049  0.99843  0.69807  1.0000
  H   H500      1.0  0.67489  0.86343  0.53586  1.0000
  C   C293      1.0  0.43340  0.00831  0.70894  1.0000
  H   H501      1.0  0.46557  0.99254  0.82342  1.0000
  H   H502      1.0  0.63693  0.91136  0.56621  1.0000
  H   H503      1.0  0.65392  0.98946  0.86846  1.0000
  H   H504      1.0  0.40470  0.00067  0.86813  1.0000
  H   H505      1.0  0.65591  0.95905  0.72361  1.0000
  S   S72       1.0  0.67550  0.86407  0.70392  1.0000
  H   H506      1.0  0.66335  0.74321  0.86493  1.0000
  H   H507      1.0  0.66131  0.69257  0.88909  1.0000
  H   H508      1.0  0.67079  0.74955  0.78438  1.0000
  Fe  Fe36      1.0  0.67650  0.83630  0.75863  1.0000
  Fe  Fe37      1.0  0.70828  0.16181  0.24257  1.0000
  H   H509      1.0  0.70063  0.14450  0.35813  1.0000
  S   S73       1.0  0.72918  0.20642  0.27091  1.0000
  S   S74       1.0  0.69491  0.05565  0.30796  1.0000
  H   H510      1.0  0.79981  0.49758  0.26785  1.0000
  H   H511      1.0  0.85354  0.33996  0.16585  1.0000
  H   H512      1.0  0.73111  0.17301  0.36807  1.0000
  S   S75       1.0  0.73376  0.11570  0.22998  1.0000
  H   H513      1.0  0.87721  0.48042  0.35422  1.0000
  Fe  Fe38      1.0  0.91846  0.33889  0.38020  1.0000
  S   S76       1.0  0.94279  0.29701  0.35198  1.0000
  S   S77       1.0  0.92829  0.35950  0.43943  1.0000
  Fe  Fe39      1.0  0.88622  0.36102  0.30600  1.0000
  S   S78       1.0  0.90783  0.32120  0.27277  1.0000
  S   S79       1.0  0.85010  0.39293  0.27581  1.0000
  Fe  Fe40      1.0  0.89495  0.28971  0.32187  1.0000
  S   S80       1.0  0.87503  0.24074  0.30517  1.0000
  Fe  Fe41      1.0  0.95337  0.33176  0.30473  1.0000
  S   S81       1.0  0.99613  0.33965  0.26703  1.0000
  S   S82       1.0  0.87007  0.32907  0.35357  1.0000
  S   S83       1.0  0.93232  0.37404  0.33453  1.0000
  C   C294      1.0  0.91650  0.34339  0.48371  1.0000
  H   H514      1.0  0.83633  0.45001  0.44245  1.0000
  C   C295      1.0  0.70135  0.14591  0.07392  1.0000
  H   H515      1.0  0.89367  0.30155  0.46058  1.0000
  C   C296      1.0  0.91272  0.45150  0.40960  1.0000
  C   C297      1.0  0.76988  0.21497  0.28047  1.0000
  C   C298      1.0  0.77759  0.24007  0.30561  1.0000
  C   C299      1.0  0.80962  0.24860  0.31294  1.0000
  C   C300      1.0  0.83433  0.23164  0.29580  1.0000
  C   C301      1.0  0.82664  0.20610  0.27129  1.0000
  C   C302      1.0  0.79458  0.19801  0.26328  1.0000
  H   H516      1.0  0.75864  0.25322  0.31918  1.0000
  H   H517      1.0  0.81520  0.26801  0.33226  1.0000
  H   H518      1.0  0.84562  0.19275  0.25803  1.0000
  H   H519      1.0  0.78899  0.17877  0.24371  1.0000
  H   H520      1.0  0.82698  0.35343  0.12895  1.0000
  H   H521      1.0  0.74270  0.29354  0.17166  1.0000
  C   C303      1.0  0.70590  0.01540  0.30066  1.0000
  H   H522      1.0  0.93722  0.38235  0.51565  1.0000
  H   H523      1.0  0.71508  0.02051  0.24076  1.0000
  C   C304      1.0  0.88008  0.48621  0.27480  1.0000
  C   C305      1.0  0.88062  0.45235  0.27655  1.0000
  C   C306      1.0  0.85191  0.43511  0.27459  1.0000
  C   C307      1.0  0.82305  0.45173  0.27076  1.0000
  H   H524      1.0  0.76371  0.07783  0.29185  1.0000
  Fe  Fe42      1.0  0.69295  0.09154  0.25928  1.0000
  H   H525      1.0  0.90310  0.43963  0.27894  1.0000
  H   H526      1.0  0.80083  0.43869  0.26906  1.0000
  C   C308      1.0  0.93218  0.45759  0.37333  1.0000
  H   H527      1.0  0.72927  0.13618  0.39541  1.0000
  H   H528      1.0  0.98423  0.27651  0.49527  1.0000
  H   H529      1.0  0.73490  0.29748  0.22214  1.0000
  C   C309      1.0  0.86900  0.41986  0.38189  1.0000
  H   H530      1.0  0.83817  0.47304  0.17812  1.0000
  C   C310      1.0  0.83460  0.40673  0.38463  1.0000
  H   H531      1.0  0.84008  0.13930  0.38610  1.0000
  H   H532      1.0  0.88496  0.39988  0.39126  1.0000
  H   H533      1.0  0.73565  0.25908  0.20052  1.0000
  H   H534      1.0  0.80231  0.07488  0.27216  1.0000
  H   H535      1.0  0.89827  0.42345  0.47870  1.0000
  C   C311      1.0  0.72128  0.09871  0.04243  1.0000
  H   H536      1.0  0.82606  0.39953  0.35573  1.0000
  H   H537      1.0  0.81661  0.42344  0.39568  1.0000
  C   C312      1.0  0.89991  0.31457  0.48626  1.0000
  N   N22       1.0  0.78143  0.12496  0.34836  1.0000
  C   C313      1.0  0.79524  0.15716  0.35898  1.0000
  C   C314      1.0  0.74702  0.13057  0.33667  1.0000
  C   C315      1.0  0.79932  0.11257  0.31443  1.0000
  C   C316      1.0  0.78526  0.10275  0.38220  1.0000
  C   C317      1.0  0.87287  0.42169  0.46956  1.0000
  C   C318      1.0  0.72615  0.14696  0.36672  1.0000
  C   C319      1.0  0.78945  0.07952  0.29904  1.0000
  C   C320      1.0  0.76188  0.07424  0.38443  1.0000
  H   H538      1.0  0.78964  0.17513  0.33652  1.0000
  H   H539      1.0  0.78413  0.16665  0.38525  1.0000
  H   H540      1.0  0.73481  0.10823  0.32839  1.0000
  H   H541      1.0  0.74556  0.14568  0.31046  1.0000
  H   H542      1.0  0.79735  0.12993  0.29029  1.0000
  H   H543      1.0  0.82521  0.11010  0.32116  1.0000
  H   H544      1.0  0.80999  0.09291  0.38375  1.0000
  H   H545      1.0  0.78199  0.11633  0.40916  1.0000
  H   H546      1.0  0.83780  0.18176  0.37952  1.0000
  H   H547      1.0  0.84489  0.15734  0.33925  1.0000
  H   H548      1.0  0.85860  0.42226  0.49594  1.0000
  H   H549      1.0  0.86910  0.47233  0.45871  1.0000
  H   H550      1.0  0.86872  0.39816  0.45595  1.0000
  H   H551      1.0  0.82136  0.46516  0.35440  1.0000
  H   H552      1.0  0.73063  0.07458  0.04397  1.0000
  H   H553      1.0  0.79656  0.06016  0.31918  1.0000
  H   H554      1.0  0.81598  0.48385  0.40089  1.0000
  H   H555      1.0  0.91938  0.47067  0.43028  1.0000
  H   H556      1.0  0.75267  0.06525  0.35683  1.0000
  H   H557      1.0  0.74154  0.08006  0.40309  1.0000
  H   H558      1.0  0.87458  0.50125  0.39818  1.0000
  H   H559      1.0  0.83447  0.38451  0.40207  1.0000
  H   H560      1.0  0.92441  0.44241  0.34915  1.0000
  Fe  Fe43      1.0  0.70188  0.11425  0.17714  1.0000
  H   H561      1.0  0.93093  0.48313  0.36462  1.0000
  C   C321      1.0  0.71334  0.11468  0.07624  1.0000
  C   C322      1.0  0.86627  0.47943  0.38279  1.0000
  C   C323      1.0  0.83162  0.15837  0.36635  1.0000
  S   S84       1.0  0.71935  0.09497  0.12062  1.0000
  H   H562      1.0  0.69520  0.15848  0.09969  1.0000
  H   H563      1.0  0.87406  0.42341  0.35118  1.0000
  N   N23       1.0  0.80295  0.30868  0.20834  1.0000
  C   C324      1.0  0.83562  0.30108  0.22463  1.0000
  C   C325      1.0  0.78842  0.33509  0.23164  1.0000
  C   C326      1.0  0.80476  0.31974  0.16749  1.0000
  C   C327      1.0  0.78302  0.27880  0.20949  1.0000
  C   C328      1.0  0.85503  0.27585  0.20274  1.0000
  C   C329      1.0  0.78262  0.32720  0.27397  1.0000
  C   C330      1.0  0.82845  0.34709  0.15971  1.0000
  C   C331      1.0  0.74712  0.28303  0.20029  1.0000
  H   H564      1.0  0.85014  0.32317  0.22737  1.0000
  H   H565      1.0  0.83401  0.29169  0.25420  1.0000
  H   H566      1.0  0.76543  0.34344  0.21865  1.0000
  H   H567      1.0  0.80401  0.35649  0.23189  1.0000
  H   H568      1.0  0.81092  0.29952  0.14831  1.0000
  H   H569      1.0  0.78102  0.32836  0.15702  1.0000
  H   H570      1.0  0.79193  0.26062  0.18910  1.0000
  H   H571      1.0  0.78520  0.26723  0.23778  1.0000
  H   H572      1.0  0.84362  0.25199  0.20365  1.0000
  H   H573      1.0  0.85932  0.28291  0.17284  1.0000
  H   H574      1.0  0.87876  0.27298  0.21700  1.0000
  H   H575      1.0  0.80537  0.32389  0.29022  1.0000
  H   H576      1.0  0.77029  0.34782  0.28725  1.0000
  H   H577      1.0  0.76721  0.30605  0.27775  1.0000
  H   H578      1.0  0.82274  0.36909  0.17583  1.0000
  C   C332      1.0  0.69789  0.16114  0.03820  1.0000
  C   C333      1.0  0.82248  0.48514  0.27000  1.0000
  H   H579      1.0  0.77433  0.05373  0.39846  1.0000
  N   N24       1.0  0.87687  0.44975  0.40418  1.0000
  H   H580      1.0  0.95772  0.45201  0.37941  1.0000
  H   H581      1.0  0.92235  0.42888  0.42221  1.0000
  C   C334      1.0  0.86270  0.44984  0.44343  1.0000
  C   C335      1.0  0.82494  0.49435  0.16719  1.0000
  C   C336      1.0  0.83028  0.48348  0.37469  1.0000
  C   C337      1.0  0.85081  0.50261  0.27193  1.0000
  H   H582      1.0  0.85253  0.48611  0.11749  1.0000
  H   H583      1.0  0.68896  0.18543  0.03674  1.0000
  H   H584      1.0  0.80036  0.48583  0.16076  1.0000
  H   H585      1.0  0.98501  0.31817  0.50562  1.0000
  H   H586      1.0  0.89322  0.48151  0.16617  1.0000
  H   H587      1.0  0.90212  0.49955  0.27641  1.0000
  H   H588      1.0  0.92624  0.50695  0.15312  1.0000
  C   C338      1.0  0.90558  0.50432  0.17222  1.0000
  H   H589      1.0  0.91548  0.50287  0.20178  1.0000
  C   C339      1.0  0.83980  0.50696  0.12991  1.0000
  H   H590      1.0  0.82627  0.50691  0.36026  1.0000
  C   C340      1.0  0.92442  0.36001  0.51737  1.0000
  S   S85       1.0  0.67914  0.16217  0.18764  1.0000
  H   H591      1.0  0.82279  0.51199  0.19036  1.0000
  H   H592      1.0  0.89703  0.51165  0.09764  1.0000
  C   C341      1.0  0.98354  0.29411  0.51893  1.0000
  Fe  Fe44      1.0  0.72898  0.08797  0.85015  1.0000
  S   S86       1.0  0.75301  0.03926  0.84918  1.0000
  Fe  Fe45      1.0  0.72684  0.15696  0.82122  1.0000
  H   H593      1.0  0.75492  0.38929  0.80416  1.0000
  S   S87       1.0  0.74898  0.19121  0.77813  1.0000
  Fe  Fe46      1.0  0.70669  0.14190  0.90241  1.0000
  H   H594      1.0  0.82295  0.03942  0.80923  1.0000
  S   S88       1.0  0.75238  0.13348  0.87093  1.0000
  H   H595      1.0  0.99749  0.35681  0.63308  1.0000
  Fe  Fe47      1.0  0.90413  0.37557  0.71740  1.0000
  S   S89       1.0  0.93047  0.34659  0.76193  1.0000
  S   S90       1.0  0.88551  0.42630  0.72395  1.0000
  Fe  Fe48      1.0  0.90496  0.32143  0.65866  1.0000
  S   S91       1.0  0.93114  0.28830  0.69929  1.0000
  S   S92       1.0  0.89035  0.30164  0.60051  1.0000
  Fe  Fe49      1.0  0.89754  0.30634  0.74375  1.0000
  S   S93       1.0  0.87561  0.27578  0.79058  1.0000
  Fe  Fe50      1.0  0.96155  0.33094  0.71372  1.0000
  C   C342      1.0  0.72768  0.02075  0.77919  1.0000
  S   S94       1.0  0.86917  0.33658  0.70229  1.0000
  S   S95       1.0  0.93733  0.36288  0.67012  1.0000
  H   H596      1.0  0.00172  0.33163  0.79134  1.0000
  C   C343      1.0  0.89977  0.31886  0.55592  1.0000
  C   C344      1.0  0.91605  0.34788  0.55331  1.0000
  C   C345      1.0  0.71747  0.11381  0.00665  1.0000
  H   H597      1.0  0.92228  0.36090  0.57898  1.0000
  C   C346      1.0  0.84072  0.25186  0.78630  1.0000
  C   C347      1.0  0.82914  0.23636  0.81888  1.0000
  C   C348      1.0  0.80117  0.21770  0.81697  1.0000
  C   C349      1.0  0.78448  0.21425  0.78233  1.0000
  C   C350      1.0  0.79616  0.22964  0.74972  1.0000
  C   C351      1.0  0.82413  0.24827  0.75161  1.0000
  H   H598      1.0  0.84174  0.23899  0.84588  1.0000
  H   H599      1.0  0.79236  0.20631  0.84240  1.0000
  H   H600      1.0  0.78342  0.22720  0.72277  1.0000
  H   H601      1.0  0.83272  0.26001  0.72628  1.0000
  H   H602      1.0  0.75489  0.40099  0.85221  1.0000
  S   S96       1.0  0.70104  0.16543  0.96028  1.0000
  H   H603      1.0  0.75679  0.35895  0.84101  1.0000
  C   C352      1.0  0.97024  0.26176  0.60613  1.0000
  S   S97       1.0  0.70671  0.11058  0.79828  1.0000
  C   C353      1.0  0.92945  0.46440  0.81796  1.0000
  C   C354      1.0  0.92027  0.44293  0.78893  1.0000
  C   C355      1.0  0.89899  0.45280  0.76002  1.0000
  C   C356      1.0  0.88717  0.48431  0.76031  1.0000
  C   C357      1.0  0.70603  0.14523  0.00445  1.0000
  C   C358      1.0  0.91752  0.49588  0.81831  1.0000
  H   H604      1.0  0.92946  0.41873  0.78907  1.0000
  H   H605      1.0  0.87066  0.49212  0.73808  1.0000
  H   H606      1.0  0.98540  0.30351  0.63792  1.0000
  H   H607      1.0  0.00162  0.50889  0.89519  1.0000
  H   H608      1.0  0.78916  0.33382  0.73931  1.0000
  H   H609      1.0  0.83972  0.03400  0.76225  1.0000
  S   S98       1.0  0.68596  0.09444  0.88635  1.0000
  N   N25       1.0  0.81666  0.09961  0.76664  1.0000
  C   C359      1.0  0.79911  0.06821  0.76372  1.0000
  C   C360      1.0  0.79321  0.12579  0.75627  1.0000
  C   C361      1.0  0.82822  0.10351  0.80754  1.0000
  C   C362      1.0  0.84422  0.09839  0.73960  1.0000
  H   H610      1.0  0.98872  0.24386  0.59957  1.0000
  C   C363      1.0  0.77737  0.12378  0.71631  1.0000
  C   C364      1.0  0.83194  0.13797  0.82284  1.0000
  C   C365      1.0  0.86301  0.12955  0.73415  1.0000
  H   H611      1.0  0.77650  0.06947  0.77986  1.0000
  H   H612      1.0  0.79193  0.06290  0.73370  1.0000
  H   H613      1.0  0.80433  0.14978  0.75809  1.0000
  H   H614      1.0  0.77365  0.12629  0.77732  1.0000
  H   H615      1.0  0.81123  0.09208  0.82758  1.0000
  H   H616      1.0  0.85139  0.09088  0.81242  1.0000
  H   H617      1.0  0.86209  0.08018  0.74904  1.0000
  H   H618      1.0  0.83584  0.09060  0.71081  1.0000
  H   H619      1.0  0.72382  0.10130  0.98089  1.0000
  H   H620      1.0  0.96057  0.31149  0.59770  1.0000
  H   H621      1.0  0.94953  0.25911  0.58617  1.0000
  H   H622      1.0  0.76268  0.14568  0.71151  1.0000
  H   H623      1.0  0.79508  0.12297  0.69329  1.0000
  H   H624      1.0  0.76072  0.10330  0.71397  1.0000
  H   H625      1.0  0.84391  0.13720  0.85135  1.0000
  H   H626      1.0  0.80826  0.14925  0.82685  1.0000
  H   H627      1.0  0.84601  0.15383  0.80450  1.0000
  H   H628      1.0  0.84777  0.14963  0.72384  1.0000
  H   H629      1.0  0.88125  0.12560  0.71204  1.0000
  H   H630      1.0  0.87619  0.13639  0.76047  1.0000
  N   N26       1.0  0.81975  0.37548  0.79964  1.0000
  C   C366      1.0  0.85463  0.38296  0.80656  1.0000
  C   C367      1.0  0.80912  0.39416  0.76472  1.0000
  C   C368      1.0  0.81705  0.33992  0.79250  1.0000
  C   C369      1.0  0.80185  0.38494  0.83476  1.0000
  C   C370      1.0  0.87172  0.36388  0.83877  1.0000
  C   C371      1.0  0.80797  0.43086  0.76931  1.0000
  C   C372      1.0  0.78740  0.32800  0.77013  1.0000
  C   C373      1.0  0.76514  0.38307  0.83249  1.0000
  H   H631      1.0  0.86839  0.37873  0.78019  1.0000
  H   H632      1.0  0.85819  0.40861  0.81367  1.0000
  H   H633      1.0  0.78498  0.38725  0.75449  1.0000
  H   H634      1.0  0.82491  0.38865  0.74031  1.0000
  H   H635      1.0  0.83772  0.33126  0.77590  1.0000
  H   H636      1.0  0.81823  0.32626  0.81982  1.0000
  H   H637      1.0  0.80902  0.36940  0.85927  1.0000
  H   H638      1.0  0.80859  0.40938  0.84455  1.0000
  H   H639      1.0  0.86170  0.36903  0.86712  1.0000
  H   H640      1.0  0.87161  0.33776  0.83341  1.0000
  H   H641      1.0  0.89717  0.37120  0.84007  1.0000
  H   H642      1.0  0.80057  0.44175  0.74158  1.0000
  H   H643      1.0  0.79026  0.43839  0.79063  1.0000
  H   H644      1.0  0.83152  0.44119  0.77671  1.0000
  H   H645      1.0  0.76468  0.33719  0.78117  1.0000
  H   H646      1.0  0.78639  0.30152  0.77225  1.0000
  C   C374      1.0  0.89159  0.30239  0.52223  1.0000
  H   H647      1.0  0.96096  0.25513  0.63449  1.0000
  H   H648      1.0  0.72063  0.04538  0.77507  1.0000
  C   C375      1.0  0.81756  0.03833  0.77817  1.0000
  H   H649      1.0  0.94570  0.45652  0.84041  1.0000
  S   S99       1.0  0.68215  0.16810  0.85369  1.0000
  H   H650      1.0  0.80233  0.01695  0.77362  1.0000
  N   N27       1.0  0.01038  0.30546  0.58432  1.0000
  C   C376      1.0  0.98150  0.29700  0.60742  1.0000
  H   H651      1.0  0.98607  0.34711  0.56043  1.0000
  C   C377      1.0  0.00910  0.34076  0.57489  1.0000
  H   H652      1.0  0.96021  0.29159  0.53280  1.0000
  C   C378      1.0  0.89646  0.50582  0.78925  1.0000
  H   H653      1.0  0.87898  0.27994  0.52400  1.0000
  H   H654      1.0  0.00482  0.38825  0.59984  1.0000
  S   S100      1.0  0.75700  0.84134  0.35788  1.0000
  S   S101      1.0  0.74290  0.74939  0.32674  1.0000
  S   S102      1.0  0.72969  0.90940  0.28271  1.0000
  Fe  Fe51      1.0  0.89709  0.65320  0.26246  1.0000
  S   S103      1.0  0.94693  0.64744  0.23977  1.0000
  S   S104      1.0  0.88282  0.70366  0.28071  1.0000
  Fe  Fe52      1.0  0.88600  0.58095  0.26094  1.0000
  S   S105      1.0  0.93472  0.56989  0.23960  1.0000
  S   S106      1.0  0.84731  0.54470  0.27195  1.0000
  Fe  Fe53      1.0  0.95194  0.60684  0.28129  1.0000
  S   S107      1.0  0.99277  0.59843  0.32351  1.0000
  Fe  Fe54      1.0  0.92571  0.61129  0.19930  1.0000
  S   S108      1.0  0.94367  0.60276  0.13926  1.0000
  S   S109      1.0  0.90354  0.61455  0.30642  1.0000
  S   S110      1.0  0.87549  0.62028  0.21819  1.0000
  C   C379      1.0  0.92517  0.61353  0.09516  1.0000
  C   C380      1.0  0.93923  0.60334  0.06115  1.0000
  C   C381      1.0  0.89624  0.63030  0.09317  1.0000
  H   H655      1.0  0.96161  0.59037  0.06242  1.0000
  H   H656      1.0  0.88535  0.63863  0.11906  1.0000
  C   C382      1.0  0.72185  0.95034  0.29078  1.0000
  H   H657      1.0  0.97004  0.70554  0.28460  1.0000
  H   H658      1.0  0.71325  0.94543  0.35079  1.0000
  C   C383      1.0  0.72274  0.97183  0.25996  1.0000
  N   N28       1.0  0.00445  0.70978  0.33143  1.0000
  H   H659      1.0  0.72938  0.96329  0.23209  1.0000
  C   C384      1.0  0.78196  0.73743  0.31364  1.0000
  C   C385      1.0  0.78790  0.70495  0.30603  1.0000
  C   C386      1.0  0.81854  0.69424  0.29583  1.0000
  C   C387      1.0  0.84370  0.71596  0.29324  1.0000
  C   C388      1.0  0.83785  0.74841  0.30129  1.0000
  C   C389      1.0  0.80716  0.75914  0.31137  1.0000
  H   H660      1.0  0.76860  0.68794  0.30771  1.0000
  H   H661      1.0  0.82265  0.66922  0.28978  1.0000
  H   H662      1.0  0.85710  0.76543  0.29926  1.0000
  H   H663      1.0  0.80295  0.78422  0.31691  1.0000
  H   H664      1.0  0.00714  0.75010  0.39799  1.0000
  H   H665      1.0  0.93927  0.71157  0.34571  1.0000
  H   H666      1.0  0.81019  0.59623  0.16239  1.0000
  H   H667      1.0  0.85887  0.64911  0.05617  1.0000
  C   C390      1.0  0.81051  0.79942  0.41799  1.0000
  H   H668      1.0  0.75905  0.71349  0.47937  1.0000
  H   H669      1.0  0.88626  0.53551  0.03787  1.0000
  C   C391      1.0  0.75552  0.73415  0.45954  1.0000
  H   H670      1.0  0.99516  0.66360  0.35692  1.0000
  H   H671      1.0  0.73925  0.70030  0.41501  1.0000
  H   H672      1.0  0.90336  0.55308  0.10370  1.0000
  H   H673      1.0  0.86223  0.56661  0.05627  1.0000
  C   C392      1.0  0.73160  0.72305  0.42838  1.0000
  H   H674      1.0  0.98729  0.78328  0.37590  1.0000
  H   H675      1.0  0.84190  0.70664  0.38724  1.0000
  H   H676      1.0  0.82991  0.56883  0.19360  1.0000
  C   C393      1.0  0.88133  0.63628  0.05748  1.0000
  S   S111      1.0  0.69130  0.88021  0.37947  1.0000
  H   H677      1.0  0.79338  0.79962  0.49665  1.0000
  H   H678      1.0  0.79881  0.55530  0.16063  1.0000
  C   C394      1.0  0.70560  0.99409  0.33165  1.0000
  C   C395      1.0  0.80823  0.75046  0.48104  1.0000
  N   N29       1.0  0.86222  0.53501  0.13352  1.0000
  H   H679      1.0  0.84747  0.52578  0.05499  1.0000
  H   H680      1.0  0.70814  0.71844  0.44150  1.0000
  H   H681      1.0  0.72765  0.74136  0.40603  1.0000
  H   H682      1.0  0.70835  0.80209  0.48424  1.0000
  H   H683      1.0  0.80107  0.69767  0.43418  1.0000
  C   C396      1.0  0.79683  0.77573  0.50992  1.0000
  S   S112      1.0  0.69631  0.80307  0.39598  1.0000
  H   H684      1.0  0.76337  0.79240  0.43975  1.0000
  H   H685      1.0  0.74280  0.75272  0.47620  1.0000
  H   H686      1.0  0.86125  0.58665  0.13468  1.0000
  H   H687      1.0  0.81408  0.80240  0.38687  1.0000
  C   C397      1.0  0.88309  0.53355  0.16897  1.0000
  C   C398      1.0  0.94982  0.68760  0.35120  1.0000
  C   C399      1.0  0.88427  0.53494  0.09985  1.0000
  N   N30       1.0  0.78724  0.74654  0.44595  1.0000
  C   C400      1.0  0.83529  0.72703  0.40585  1.0000
  S   S113      1.0  0.74739  0.85785  0.46697  1.0000
  H   H688      1.0  0.93806  0.67707  0.37639  1.0000
  C   C401      1.0  0.78139  0.77756  0.42484  1.0000
  H   H689      1.0  0.83686  0.74854  0.38760  1.0000
  C   C402      1.0  0.81957  0.57138  0.16451  1.0000
  C   C403      1.0  0.98626  0.68874  0.35838  1.0000
  H   H690      1.0  0.99017  0.69578  0.38854  1.0000
  H   H691      1.0  0.83344  0.79116  0.43035  1.0000
  H   H692      1.0  0.89834  0.55525  0.17073  1.0000
  H   H693      1.0  0.83304  0.75670  0.47414  1.0000
  C   C404      1.0  0.80116  0.72155  0.41999  1.0000
  H   H694      1.0  0.83040  0.56955  0.10596  1.0000
  H   H695      1.0  0.78625  0.71909  0.39356  1.0000
  H   H696      1.0  0.77024  0.77286  0.39644  1.0000
  C   C405      1.0  0.71515  0.81361  0.51069  1.0000
  Fe  Fe55      1.0  0.72592  0.79946  0.34294  1.0000
  H   H697      1.0  0.80582  0.82367  0.42964  1.0000
  Fe  Fe56      1.0  0.71986  0.87139  0.32719  1.0000
  C   C406      1.0  0.84420  0.56633  0.13305  1.0000
  C   C407      1.0  0.71360  0.96167  0.32678  1.0000
  H   H698      1.0  0.97578  0.75193  0.31756  1.0000
  S   S114      1.0  0.69097  0.82894  0.30781  1.0000
  H   H699      1.0  0.94395  0.67190  0.32661  1.0000
  H   H700      1.0  0.85334  0.72763  0.42926  1.0000
  Fe  Fe57      1.0  0.72555  0.84640  0.40897  1.0000
  H   H701      1.0  0.69242  0.89990  0.47467  1.0000
  H   H702      1.0  0.68197  0.94077  0.48165  1.0000
  H   H703      1.0  0.86914  0.53425  0.19536  1.0000
  C   C408      1.0  0.73439  0.84085  0.51016  1.0000
  C   C409      1.0  0.98887  0.75675  0.37628  1.0000
  H   H704      1.0  0.81066  0.72725  0.49656  1.0000
  H   H705      1.0  0.96533  0.74792  0.38553  1.0000
  C   C410      1.0  0.86864  0.54101  0.06027  1.0000
  H   H706      1.0  0.00294  0.70946  0.23123  1.0000
  C   C411      1.0  0.99674  0.74491  0.33582  1.0000
  H   H707      1.0  0.99764  0.67328  0.28841  1.0000
  H   H708      1.0  0.69914  0.00268  0.35955  1.0000
  C   C412      1.0  0.71460  0.00423  0.26479  1.0000
  C   C413      1.0  0.89535  0.62596  0.02347  1.0000
  C   C414      1.0  0.92448  0.60957  0.02547  1.0000
  C   C415      1.0  0.99550  0.69969  0.29134  1.0000
  H   H709      1.0  0.81990  0.51275  0.10952  1.0000
  H   H710      1.0  0.76257  0.76247  0.85631  1.0000
  S   S115      1.0  0.78784  0.79916  0.79078  1.0000
  S   S116      1.0  0.75309  0.84854  0.69806  1.0000
  Fe  Fe58      1.0  0.94959  0.63751  0.86447  1.0000
  S   S117      1.0  0.92499  0.61172  0.81654  1.0000
  H   H711      1.0  0.93550  0.60147  0.99956  1.0000
  Fe  Fe59      1.0  0.89624  0.62381  0.92100  1.0000
  S   S118      1.0  0.86781  0.59622  0.87696  1.0000
  S   S119      1.0  0.87508  0.63300  0.97941  1.0000
  Fe  Fe60      1.0  0.91470  0.57408  0.86046  1.0000
  H   H712      1.0  0.95212  0.70954  0.84409  1.0000
  Fe  Fe61      1.0  0.88034  0.63646  0.83695  1.0000
  S   S120      1.0  0.84469  0.65723  0.79341  1.0000
  S   S121      1.0  0.94200  0.59880  0.90769  1.0000
  S   S122      1.0  0.90598  0.66527  0.88172  1.0000
  H   H713      1.0  0.74895  0.69416  0.88530  1.0000
  H   H714      1.0  0.74395  0.75427  0.90022  1.0000
  S   S123      1.0  0.69587  0.80234  0.62303  1.0000
  H   H715      1.0  0.68530  0.71331  0.76454  1.0000
  H   H716      1.0  0.98196  0.53477  0.76024  1.0000
  C   C416      1.0  0.70425  0.80154  0.54562  1.0000
  C   C417      1.0  0.74576  0.95653  0.78888  1.0000
  C   C418      1.0  0.75186  0.97903  0.81794  1.0000
  C   C419      1.0  0.74566  0.74582  0.87024  1.0000
  H   H717      1.0  0.75300  0.93185  0.79270  1.0000
  H   H718      1.0  0.72330  0.79027  0.81789  1.0000
  C   C420      1.0  0.80302  0.75945  0.79087  1.0000
  C   C421      1.0  0.79492  0.73742  0.76240  1.0000
  C   C422      1.0  0.80768  0.70615  0.76375  1.0000
  C   C423      1.0  0.82828  0.69644  0.79376  1.0000
  C   C424      1.0  0.83574  0.71826  0.82269  1.0000
  C   C425      1.0  0.82362  0.74973  0.82088  1.0000
  H   H719      1.0  0.77917  0.74457  0.73909  1.0000
  H   H720      1.0  0.80168  0.68941  0.74128  1.0000
  H   H721      1.0  0.85096  0.71087  0.84635  1.0000
  H   H722      1.0  0.82985  0.76652  0.84321  1.0000
  H   H723      1.0  0.98823  0.63126  0.78519  1.0000
  H   H724      1.0  0.77458  0.76843  0.52413  1.0000
  H   H725      1.0  0.76385  0.97149  0.84406  1.0000
  H   H726      1.0  0.99197  0.51400  0.82434  1.0000
  H   H727      1.0  0.71120  0.00622  0.72325  1.0000
  C   C426      1.0  0.73133  0.96630  0.75449  1.0000
  H   H728      1.0  0.69227  0.80104  0.89621  1.0000
  N   N31       1.0  0.94388  0.73007  0.78807  1.0000
  H   H729      1.0  0.68237  0.78485  0.82776  1.0000
  C   C427      1.0  0.91409  0.71073  0.78089  1.0000
  C   C428      1.0  0.94920  0.73353  0.83055  1.0000
  C   C429      1.0  0.94281  0.76235  0.76858  1.0000
  N   N32       1.0  0.71339  0.74728  0.85033  1.0000
  C   C430      1.0  0.90840  0.69988  0.73927  1.0000
  C   C431      1.0  0.92337  0.75157  0.85261  1.0000
  C   C432      1.0  0.90982  0.77892  0.76455  1.0000
  H   H730      1.0  0.88712  0.52999  0.78922  1.0000
  H   H731      1.0  0.78524  0.71575  0.88929  1.0000
  H   H732      1.0  0.89250  0.72393  0.78941  1.0000
  H   H733      1.0  0.91429  0.68872  0.79890  1.0000
  H   H734      1.0  0.97122  0.68629  0.78473  1.0000
  H   H735      1.0  0.69656  0.91534  0.82664  1.0000
  H   H736      1.0  0.95907  0.77940  0.78353  1.0000
  H   H737      1.0  0.95205  0.76077  0.73905  1.0000
  H   H738      1.0  0.68727  0.91553  0.52233  1.0000
  H   H739      1.0  0.97169  0.74655  0.83711  1.0000
  C   C433      1.0  0.74318  0.85543  0.54480  1.0000
  H   H740      1.0  0.88300  0.69293  0.73518  1.0000
  H   H741      1.0  0.73837  0.85544  0.60613  1.0000
  H   H742      1.0  0.92300  0.67838  0.73294  1.0000
  H   H743      1.0  0.89914  0.74203  0.84752  1.0000
  H   H744      1.0  0.92409  0.77759  0.84655  1.0000
  H   H745      1.0  0.99007  0.55519  0.87056  1.0000
  H   H746      1.0  0.89409  0.76657  0.74355  1.0000
  H   H747      1.0  0.91313  0.80363  0.75367  1.0000
  H   H748      1.0  0.89704  0.78091  0.79173  1.0000
  C   C434      1.0  0.71393  0.72899  0.81326  1.0000
  C   C435      1.0  0.70672  0.78186  0.84020  1.0000
  C   C436      1.0  0.97159  0.71101  0.77298  1.0000
  H   H749      1.0  0.70286  0.83028  0.86184  1.0000
  C   C437      1.0  0.68652  0.70013  0.88601  1.0000
  S   S124      1.0  0.92948  0.52173  0.85574  1.0000
  H   H750      1.0  0.91364  0.71895  0.71836  1.0000
  C   C438      1.0  0.99653  0.54920  0.78058  1.0000
  C   C439      1.0  0.68740  0.73613  0.87629  1.0000
  C   C440      1.0  0.76300  0.71320  0.87184  1.0000
  H   H751      1.0  0.97996  0.56645  0.79386  1.0000
  H   H752      1.0  0.75822  0.87640  0.54465  1.0000
  Fe  Fe62      1.0  0.72154  0.88570  0.72509  1.0000
  S   S125      1.0  0.99877  0.65948  0.86046  1.0000
  H   H753      1.0  0.69621  0.68446  0.86368  1.0000
  H   H754      1.0  0.77070  0.70542  0.84321  1.0000
  H   H755      1.0  0.96969  0.70838  0.74145  1.0000
  S   S126      1.0  0.72061  0.86041  0.78121  1.0000
  C   C441      1.0  0.71226  0.81673  0.58021  1.0000
  C   C442      1.0  0.73200  0.84358  0.57968  1.0000
  H   H756      1.0  0.73125  0.74004  0.79344  1.0000
  Fe  Fe63      1.0  0.70682  0.82511  0.68071  1.0000
  C   C443      1.0  0.70923  0.80619  0.87318  1.0000
  Fe  Fe64      1.0  0.74816  0.82080  0.75307  1.0000
  S   S127      1.0  0.70386  0.79493  0.73414  1.0000
  H   H757      1.0  0.73391  0.80794  0.88492  1.0000
  H   H758      1.0  0.72266  0.70416  0.81706  1.0000
  S   S128      1.0  0.72431  0.93939  0.71655  1.0000
  H   H759      1.0  0.68907  0.78069  0.54588  1.0000
  H   H760      1.0  0.92848  0.74879  0.88366  1.0000
  C   C444      1.0  0.00518  0.72469  0.78109  1.0000
  H   H761      1.0  0.68907  0.74867  0.90418  1.0000
  C   C445      1.0  0.72240  0.99849  0.74976  1.0000
  H   H762      1.0  0.69941  0.69522  0.91339  1.0000
  C   C446      1.0  0.68154  0.72609  0.79186  1.0000
  H   H763      1.0  0.68755  0.90894  0.87543  1.0000
  H   H764      1.0  0.69362  0.94877  0.85897  1.0000
  H   H765      1.0  0.81526  0.77843  0.53284  1.0000
  H   H766      1.0  0.67942  0.97555  0.80411  1.0000
  C   C447      1.0  0.68329  0.92532  0.85086  1.0000
  H   H767      1.0  0.00649  0.58678  0.84492  1.0000
  C   C448      1.0  0.74289  0.01123  0.81323  1.0000
  H   H768      1.0  0.00692  0.75031  0.77330  1.0000
