data_image0
_chemical_formula_structural       S2FeSFeHFeSFeS2FeSFeS3FeS2FeS2FeSFeCS2C2SHC2FeS2FeS2FeSFeS3HSCFeS2FeSFeNSCH2C3HC2H2CH4C4H2NC2H3CHCH2SHCH3CHCH3C4H3CH2C6H5SC6H4C6H4C6H3C7H4CSCHC2H3SHCH3SCHC3H3C3H5CH2CH5SC2FeCH7NC2HNC8H20NC8H20SC2HSHC2H5C2HCHSH6CH2SNC9H5CH3CH5CH3NHC2HC2H3CH6SH16CH2CH2CHSHCH3CH4C2HNFeCHCH2CHCH8CH3FeNC2H2C6H5CHCHCH2CH3CSHCFeH2NCSH3CHCH2SH2SH3C2HC2H4FeH7CFeSCFeS2FeCFeCS2FeS2FeS2FeCFeCS2FeS2FeS2FeSFeS3FeS2FeHFeH2S2HSC3HC3HCH4NC4HFeHCH4NH2C2SH8C6H4C6H4C2HCH3CH2CHCNC6H4SC2H2CSC6H9C3HSH3CH2CH3CNCNC8H20C2H7NC8H20NC8H20CH8CSH3CHSC3HCHCSHC3HCHSH2C2SCH2NC8H6CH10CSH2C3NC2H4CH3S2H3CHCS2H2CH2CH2CSC2H3CHSHC2HCHC2H4SH3CH2C4H4FeH2CH2CH2C2H3C3HCHSHCHNHCHCH3C2H3NCHFe2HCH4CH2CFeH7SH6SC3H3C2H5FeH4C2NCHNSC2H3CHC2FeSHFeS2Fe2CS2FeSHFeS2FeSFeHS2FeHSH4C2S2FeS2FeS2FeSFeS3CHSH2CH2C7FeH2C6H5CHC6H4CHNH3CHCH3C3HSH3SHCSHC6H5SCHC2HC2HCH4CHCH8SHCH2NHSCH3C5H8CH5NHC3FeC3H4CH3SHNH4FeH3C2H6CH4FeHC3SHCHCH2SCFeH4CH4C2NC2HCH5CHFeHCH3CHCH2FeSHCH9SCSH3CH3C2H6CSC2H5C3H2CHSNC7H4NHC2SH3CSHCH2CH2CH4CHC3HCH3SHC2H4CHCH3C3H2CSH3C2FeHNH3FeCFeH2C2HCSH3FeSFeSHFeS3FeS2C2FeSFeSH2FeS2FeS2FeSFeS3HC3H3FeHCH5FeS2FeS2FeSFeS3H2C4SH3CHC2SH2C6H4CHC3H5CHCHCH3C6H4C4HCH4CH2C4H3C6H4CHCHC4HC6H9C3H6C2SHC2HCH3C2HC2H5CHC2HC5H11CHCH2C4FeH3CH3SHC2NCH2CH4SNH2NFeHCH3CHCH3SH9CHCHSH2CHCH2C5NC8H19NC5H2SH13SHCHC4HCHCNCH3FeH2CHSH3CH3FeHSHSNC8H20FeH4CH7CHCNH4NHCHCH2SCHCHSHCH2CS4HCH3FeH5CFeHSCHC2HC3H2CH3CNCHC2H8CH5C2HCHCHC3H4SH2NCH3C2H2CFeSNCHFeSFeH5CFeSHSCSH2SNFeSFeHSH4SCH2FeSFeHCH4C2SH3CH7SC3HFeS2FeS2FeSFeHS2HSHCHCHFeSCHFeS2FeS2Fe2S3HC6H2CHC6H6NC5H2FeHC2H2CH4CHC6H7CH2CHNHC4SCH2FeH3C2HC2HCH3C2H4CHCHC2HCFeHCHC7H5SC4HCH7CSH4SH2SNHC3HSCH2FeH2CH10C3H2CHCH4SHC2H6NC4FeH12C4H6CH5NC5H7CH6CH3SH2CHNC8H17CH2CH3CH2S2H3CSH3C4H2NHC9H4CH2CFeH4C2H2SHSH17CHC2SFeSHFeS2FeS2FeSH2S2HFeSHSH2CH2C2SCH4FeCHCHFeS2FeS2Fe2S4FeSFeS2FeS2FeSFeS3HC4H2C6H4C6H9C3H3C6H4CSC2H4FeCH2NC2H2SH3FeH2S2C6H4C6H5SC6H4CH4C2SNC7H18SH4C2HSFeH2SCHSH4NC5HC2H11SH8CH4C6H2CH2CH3CHSH3SFeHCHNC6HCH16CH4CHC3HCH4C3HFeSH2CH2C2H2C3FeH3CHCH3SCH3C2H5SH2FeNCH3CH2CHFeHC2H10C4HSH5CHNHCH2CH3SHCHCHCHCHCHCHCNHNH6CH2C2H2C2H3C2HCHC2HNCH2SC2SCHCH2FeH5CH6CHCHC2HFeSFeS2FeS2FeSFeS3H2SHFeS2FeS2FeSFeS2CSCHSCFeSFeSNC7H4C6H4C2HCHCSH3C3H2CHNHC2H4C6H4C6H5C3H2C6H4CNC8H20NC2HC3HCH9SH9CHCSH4CHCHCH2SHSH5Fe2HSC2SHCH2C2H2SC2HSH6CH3CNC8H20CH7NCH2CHC3HC2H2FeH4FeSH5CS2H2FeCHSH4CHFeNSCHC2FeH2FeSCHC2HC2HSH3S2CHCFeHCH6FeSC2SHCFeCFeHCH2FeCHCH2CHCHCH4CNSC2H2SCH2CHSHC2H2C3H3SH2S2CHCH2C2H2CH2C2HC3SH8SHC3SH2CH2SH4FeSHSHFeHCH6NFeCHCHFeSH2C3HCHC2H2C3SH7CH2NHCHNHNC2H4C7HSCH3CH5CH2SH6SCNHC2H2NH7CFeH2C2HC4H4CHC2H3FeH9C2H2CHCHCFeHC3H3SFe2NHCHCSHFeCSHCHCHC2SFeSHCSFeSFeS2CSFeS2FeSFeS3FeS2FeS3FeSCFeS2HFeSCSH2SH3CHFeS2FeS2FeSFeS3FeHSHC6H4C4H6C6H4C6H4C6H5C6H5C2H5CHC6HCHSHCH2C6H5C6H9CH3CHSH2CH2SH3FeH2CH4CHCHCH2NHFeSC4H3SH2SNCHSH2C2H3NC8H8NH11NCHCHCH2SH2CH3SH2CH8CNHNHC4H2NCHFeSH2Fe3HCHFeH2SC2H6C3H9NCHC2FeH5CH2SH2CHCFe2H3CHCHNCH2SHCHCNCH2CH3CHCHSCH2CSH3C2HCH5CH3CHCHSH2CFeH2CH4FeH3C2H2NHCSCHC2HC3H2CHCH10C4H3CHSCHCNH3SHCHC3H2CH4SC2H4CH3CH5CH6FeH2CH2CH4C2HCH4SC3SFeH2SC3HC4HC3HCH2CH2C3HCH2C2SH2C2H3C2HSH5CHCH2CHC2H2CHCHCH2CSHNCH5SH5SH3CH9CH2CH4CH2C2HC2H3CH4SCS2CH4CFeS2FeHSFeSHSCFeS2HCHCFeS3CH2CH2SFeHSFeS2FeSFeS4HC6H3CHCH6NSC2H6C8H4C2HC3HCH3C5H2CH4CHC6H6CHC2H3C2H2CHCH2SCH3C2H5S2H6CSNH2SHFeNHCSHC2HCHC2HC2FeCH4CH2CHCHCH4CHCH2CHCH2C2HCHNCH2CH2FeHC2HC2H5CH4NC5H2CH11CH2CH8NHFeH2CHSH10NC8H10C2HCH2CHC2HC2HCHCH13CHCHCSH2NC2H2NH2CHCHCH5CH2C2H5CHSH2CFeS2FeS2FeSFeS3FeS2FeS2FeSFeS3CH2CH2SCHCH2CFeS2FeHFeH3S2H2CH2CNSCH2NH3FeH6C3H9CSC6H4C6H5CH3C6H6C5H3CHC2NCSHCH2C4H4CHC4H4FeCH9CH4FeHSH2CHCHC3HCHCSH2CHCNCH3CHCHSC3HC2FeH3CHCHC3H2CH3CH3CSH6CH3CH12FeC2H4NH2NC7H19FeH5CHCH3CHSHC3H5CH2C2SC2H3C2HCH2NC2HCHCHCHCNC6H8CSHCH6NC3H5CH4C5HC2HCHFeCH4CHCHC2H7SH4CSH2CH7C2H3CFeS2FeS2FeHFeS3HCH2CHFe2S2FeS2FeSFeHS2HSC6H5C2H2C2HC5HC6H6C2H7CNHSNFeCH2CFeH5NHNH2CSH4CHC4H4SHC2H2CH3CHC2HCH4CH3CH5C2H3CHC3H3CH2CHC3H4SH2CH4CHCHC4HC2HCH2CHSCH2CSCH2CHCH3CH2SH7C2H4CH3CH7NHCHC2HCFeSHFeS2FeCFeS3FeS2FeS2FeSFeHS2FeS2HCFeHFeSNC2HC2H2C3NH2SCHSC6H8CHCHCHC3H2CHCHC6H14CHC2H6SH2CH2SH8CH2CH4CH2CH2CHCH2C2HSCH2CNH2C2H3CH3C2HC2HC2H2C2NC2SHCH2CH2FeH4C2H2CH4CH3NHCH2CH4CH6NH3SH5CH4CH2CFeH2FeS2FeHFe2S2FeS2FeS2FeSFeHS3HC2S2C4HCHSCH4CH2CHCHCNH2SHC6H4C6H2SHC7H6SC2SCHCHC3H3FeH2CH5C2H3NH6CH2NCNH2C2HCHCHC2H5CHCH3NCH6C2H3CHCH4NC8H24CH4CH5C3H2C2HCH7CHSC2H4FeHFeSCSHFeS2FeS2FeCFeS3H2CHCH2NHSC3H5CH5CSFeHNC6H5CHCH6CFeCSC4H2C2H4C6H5CSHC2HCFeH2C2H2CH2SCH3SH3CHNH5NHCHCHCHSCH5NH3CH2C3HC2H3CH2C2SHFeS2FeS2FeSFeS3FeS2FeS2FeSFeS3CHSCH2CH3C2HFeS2FeSHFeSFeS3H2CH3SH2CH2C4H3CH2C2SC3H4CN2H3CH3CH5SHCHSC6H4C7H2C2H2SH3CSCH3C2H2CHCH2NHCHCH2C6H4C6H5CH3C3HCH3CH2NCH3CH9CHC2HC2HNH3CHCH4C2HC2H3CH2C2H13CH2CHC2H3NH2CH2SFeH11CH2C3HC2HSNC2H4C3H4CNC5H13NCHC3H13NC8H18FeH3CH3CHC3HNHFeHCHC2HSH2CH2CH2C6H2C2H6CH3CH2CHSH4CH2FeCH6C5H4CH2CHCHCHCH4C2H4C2HNH3C2H5C2H2SH3NH4FeSH2FeS2FeS2FeHS3FeS2FeS2Fe2S3FeCSH4CHSHC3NCH2FeS2H3FeHFeSHSHC4HCHC5HCHN3H4CSHC3H3S2H2CHCH6NC7H4C6H4SH4CHC2HC6H5C6H5CSHCH4CHCHCNC8H20CHSHSHSCHCHCHCHC2HCH2CH2SH4CHC2H4CFeH5C2H2CHSHFeH3CH2CH2SH4CH3C2H4CH2C2H2CHFeHCHCHNFeCH3CH3CHCH2CHFeCHCH6CHCHC2SH2C2H3CH6SCH6CH2FeH4S2FeCSFeHSHFeSCS2HCFeHFeSH2CH3NH4C2H2C2FeSCFeS2FeSFeS3CHSFeCHFeS2FeCSHS2CHSHFeS2FeS2FeSFeS3FeSHFeS2FeSFeS3C6H4CH3C2H4C6H7CH2CSCHC6H4C6H2CHC6H4C3H5CH2C6SHC2NC8H8C6H4C6H4C2SC3H4C6H4SNH4CHCHCH6CNC3HCHSH5CH4CH2C2H2C2HN2HCH3C2HNH7CHC4H2CH2C3HSHCH4CHSHCH2CSHCH2CHNC8H20SH6CH5FeHNC8H20C2H2C2H6SH4CH6CFeH2CH6NC8H19CSHSCNFeH2SHC3H2CH2NHCH3CH5CSH2CH3FeNCH6CHCH3CHSCH9CH5SH3CHC2HSH3CSHCHCH2CHCFeH2CHCSCFeS2FeSCFeSFeS3NHFeSFeSFeS2FeS2FeS2FeSFeS3HCSC2HCH3SFeS3FeSFeSFeS2FeS2FeSFeS3C6H4C7H3C6H4C3HCH3NHCH2C6H3C6H7C2SC2H3CH2SCHC3H2C6H9CHC2H6C3HCH3SCH4CH2CFeH5CHCHCH2SCSHSH2CH2CH3FeH2CSC2HC2H6SFeH2CS2NSC2H5C2SH3CHCHC2FeHCH3C3SC2HCHCHC2H10CH14C3HCHNC7H6CH4CH5CH3CH3CH3CH4CH2C3H4NHFeHCSH8CHC2H4CNC4HSH3SHCH6C2HCHCH3CHSHC3H3NH2CHCH3NCH8CHCH4CH3C2HCH2C2H3CSFeCHC3SH3C2H3CFeHCNCH8C2HNCH5C4HC2HCHFeH3CHCH3CH3CHCNH3FeSHCH3C2H3CFeHCHC3HC2SCSH2CH3SC2H6NH2CH4CHSHCH2CFeHCH3NH2C2H2C2H2CHSHC2H2CH2SFeS2FeSFeS2FeS2FeSFeS3H2CSH4CH2FeCH2CFeS2H3CHFeSHSHFeS2FeSHSHC6H6CHC3HC2HNHNHCH2NHSHC5H2C6FeH3CNH2CH5SHC4H3C6H4C6H4C2HC2H3CH4C4H5SH6NHCH6C2HNH2C2HC2HCH2C2H2CH3CHC2H3C2HCHCHFeC2H2C2HC2HC2H6NCHC3HC2H3CH2CHCH10CH4CH7SH4CH5SH2FeH3CH2CH4CH3CH4CH2NHCSCH3CH2CH6C2H3CHCHC2H2CNCH7CH2CHCH2CFeS2FeHSFeS2HFeS2H2CSHSHCH4SHCHCHC2SH5CH3SHCH2FeS2FeS2FeHFeNS2FeS2FeHNH4CH2C2H2C4HC2H5C2H3CHCH4CH2CH4CHCH3CH2SHC2H2C2H2CSNHC6H4C2H8C6H4C2HC3HNHC2H3C2HFeSH2NHFeCH2C3HCHCHCH2SHCH2C2HCH8CHFeH2CHCH2CHC2HC2H4CNH3CH3C2HCH2CH6CH2CH3CH2CHCHCH2SHNHFeS2FeS2FeSFeS3FeS2FeSFeSH2CFeSFe2S2FeSNFeSHCSHC6H4CH4CH2CNC2H2CHNH3C2H7C5H4C6H4C6H4C4H2C6SH3CHC3NH2CH2CNHCHCH11C3NC8H20CH3CHFeH2CH2CHCHCH3S2H5SHCH4CHCHCHC2SH4CH4SNC4H3CH2CHC2H5SFeCHCHC2H6CSH10C3HCH3C3NH2C2H4C4H4CHS2H2SNC3H8CH3CH3CH2SH8CH3C2H5C2HCHC2H4CSHCH2CH2FeC2HSHCH5C2SH2CHFeSHFeSHCFeSCSFeHSHS2HCSH2CS3HC7H3CHC6H4CNC2HSH3C2SCH2CH5SH3NCHFe2H2CH2SCHFeHN2FeH4FeCHCSC2H4NC2FeH4CHC2H3CH2C2H2CHCH3SC2SHCH2FeH2CHCH3CHCH3C4H4CH4CHSFeH5C3H3CH7CHFeS2FeSFeSFeS3H3SH3FeSH7FeS2FeS2FeSFeS3HCHCSFeS2FeSFeHS2FeSFeS2FeC2S2FeS2FeSHFeSFeHS2HSHCHC2H2CHC5H4CH3C4H2C6H4C6H4CHSH2CH2CHC6H3C7H4C3H3CH2SC6H5CH2C2HC9H4CH2CH2C2NH2NH8SNC5HC2H16NC8H20NC6H5CH7FeSCH3CH3NHNH5C2H3CHCHCH2CNC8H12C2H6C3HC2S2HCH5CH2C4HC4H2CHFeCH2CH2SHNC8H20C2H5CHC2H7C2HCH5C2H2CH4CHCH2CHC2HCH6CH3C2H2CH2SHCHFeHCH3C2H2CHC2HCHCHNHCHC2HC2HCH3CNCHCH3CHCNHCSHSHCSHFeH9CH8CSCH2CH5CSCH3CH5CHC2HSCHC2H2NCHSCHC2NFeS2H4SFe2S2FeSFeHS2HFe2S2FeSHS2FeS2FeS2FeSFeS3HSH2SHFeS2FeS2FeSFeS3FeS2FeS2FeSFeS3CSFeH2C2SHC6H4CHC3H5SHCHC6H4C5H3CHC6H4C6H4CH2C4H2C4H2CHC6H4C6HCHC6H4CH2CH6CHCH3C2H2CH2CH4CH2CHC2H8C2FeC2HCSHC3HCFeH7CHC2H2CH2SHCH2CHCH3CH2NCH4CHNC8H21CSHCNHCH7NC8H20CHCHCHC2HC2HCHNCH4FeH2C2H3FeCH8C2H5CNHCH2CH4SH4C2H3FeSH2C3HCHCSHCH4CHCH6CH2CH3CH5CNCHSHCHCHCH3CHC3H2CHCH2C2H2CH7CHCH3CH2CSHNCH2CH6CHSH4CHNH2NH6NH2CHCH2NCHC3HCHCH2CH6CH5C2HC2SHFeS2HNHCHCSC3FeS2FeS2FeSFeS3CSHC2FeS2H4FeSH2SH2FeS2C2FeC4H3C4HC7H4C6H4C6H4CHFeH3SH2C6H5SNH5CSHCH3C2HS2H4CH2C2HC2H5SHNC8H14CH5CH3SCHC3HCH2NH2FeHSHCHCH7CSC2HCHC4SH4SC2H7SH2FeHCH3NC8H25CH3Fe2H2S2CHFeCHCH3CHNC8H21SHC2H6CH3C2H3CSH4CH2NCHC3H2NSH4FeH3FeSHFe2CNCHCSCHSHC3H2CHC2H6CHFeH6CHCH4CH3CHFeSCFeSFeSFeS2FeS2FeSFeS3H2CHSCHCFeH5C2HFeH3SHCHCHFeCH2SHCH2SHCHC6H4C6HSH2C3HC2H6N2C6H4CSH2CH2C2H2C3H4C2SCH2CSHFeHCH2CH2CHCH2CHSC2H4NC8H20NC4HC5H9CHCH7CSHNHS2HC2HCFeNSH2Fe2C2FeH2CNHSHCSH9NC8H24CHSH3CHC2HCHC3H2CH3NC2SH3CS2C2HSHFeH4SFeHFeH4C2SH3C2Fe2HCHC2SHCH3CSH2FeSH3SH3SH3C2H4FeCFeHSHSH2CHCH3CHCH3CSHC2H2SH2CHN2H3C2H2CHCH2CHC2H6SH3C6HCH7FeHS2H2SH2SH2S2FeSH4CHC2FeS2FeS2FeSFeS3FeSHSCS2CFeSHSHC5HCH2C6H4C6H4C6H3SH3C6H4CHFeHC2H2CH2CH3SH2NHCHSH2C7H4CHCHCHCH2CHC2H4FeCSCH3FeH2C2HSC2NH3CH2CHFe2H11CFeHNC8H11FeH9CNC4H2CH2CHCSH2C2H2CH5SHCSHCHCH3CH2NC8H4CH3SH13CH2SH2SH3CH5CH2CHSH3CH2CH5CH6NH2S2CH2SCFeCSCHSH2CHSC3H5C2HFe2HCH3FeCSH4CHCHC3H3CSH5C2SCHNCH3SH2CH5CNHCHFeH4SH4CNH2SH6CHCH2FeC2SC2HCNH3C2H3C2H2SHC3H2FeSCHCHCH3FeH4C2HCHFeH3C2NHSCHSHCNH3CNCHC2HCH3CH4SH2S2H2SH4CHSCHFeH2CHC3HCSHFeS2FeS2FeSFeS3FeSCHS2FeSFeSHSC2FeCH2CSH4FeSHC2S2H2C2H2C2H5CH3FeHC6H4C6H4CHC2HCH5CH4C2HCHCH3CHCH4SC3HCH5SH9C2HCNH4CHSC2H2CHFeCSHC4HCH3CH2CH2C2H6SHCHNC8H16C3HCFeH7CH2C3HCNSHCFeHCSCHCHSH4C2HCNHCNC8H20FeH2CSH3CSCSCH2CHCH2CFeH6CH3SH2SHC2SCHCHNH3NCH2C3H2C3H3CH3C2HCH5CHCHFeHCH4CHCHC2H2SHCHNC2HCS2H3CHC3H5CHCHCHCH2SH2CHCHFeC2HFeC2HFeH3C2HC2H2CH12CHSHFeS2FeS2FeSFeS3FeS2FeSFe2HS2C2HCHC4FeSHCSHS2CH3CSFeS2FeS2FeSFeS3FeHSFeCSFeH4SH3CH3CHC3H2CH4CH6CH2C2HC3H4C5H3C2SH3CH3CSC6H5CHFeHC5H6CH2CHC3H4C2H6C7H4C2HC2H2C6H6C6H4NC2HCHSC2H2CH3CSH4CFeNC8H20NC6H19SHSCSHC2H3CHCHNH5CH3CSH4SH4CH2FeHCHSC2HCHC2FeC2HNH3C2H4CSCHCHNC8H20NC7SH17CNC8H13CH6NHCHCHCHC2H3S2HCH8CH4CHCH5CHCH3NH2CHCH2SHCSH3Fe2S2FeS2FeSFeS4C3HS2FeHCHCHCHCHFe2SHSHSCSFeS2FeS2FeHFeS3HC6SH2C6H4NHCHC2NH2CH2C4H8SFeHC6H4C2HC2H3C6H4CHCH2CH5N2C3HC2HC6H7NH4SHCHC2H3CH3CFeH4C4FeHC3H2CHCHCHC3H7SH7CH2NC7H4CH8CHCH4CH2CFeCHCH3CHCH2CH4C2HC5H4CHCH7SH2CHCH4C2HNHCHNH5CH8CH5C2HNHCNFeHCH2CHCHSH3FeHSCH3CSC2SH8C2HSC2H3SC2NFeHCH3C4H3NC8H14SH2C3HCH2CNHC2H6FeH2SHCHSH2CH4C3H2FeH3CHCH2CH3SHFeH4C3H3CH5CHCH3CH2CH2CH2FeHSCH2C4H2CHC2HFeHSCH4FeS2H3S2FeS2FeS2FeSFeS5CHC6H3C3HC2HCH2C3SH3SC6H5C5SH9C2NCHC3HC2H11FeH3NCH3C4H2C3HCHCSHFeH2FeH2CH2NHCHC3HC2H3C2HCH2FeC2H3NCHC3HCH4SH8C2H4C2NHC3HC3HSH4SHCH3CH4CH2FeH3SH3FeHCFeHSC2HCHFeH2CH3CHFeH2SHCHNH3C3H4CH2C2H3FeHCHC2H3SCHCSHCHCSH2SCH2CHSH4C2NH3FeC2H2CHCH6SCNHCH4CH3C3H3C2H10C3H6FeHSHCH5CSHCH2CHSCH2SHS2H2CHCSCFeSHFeS2FeS2FeSFeS3H3NCH3CFeS2FeS2FeSFeHS2HCH4NH3C6H4C6H4SC6H10CHFeHC2HC6H3C5H6NHNSHNH2SFeH5C2H3CH4CHC3HCNCHCHC3H4CH11CHNHCHCHC2H2CH4C3H4NC8H18NC8H21FeH2CHCFeH4C2HCSH2CH3CH2SH2CHCSH2C3HCH2C3H5CHC3H6SC2H4CH4CHSH3SH3C2H3CH7C2
_chemical_formula_sum              "S1248 Fe624 H7488 C4368 N312"
_cell_length_a       90.5427
_cell_length_b       90.7316
_cell_length_c       90.6096
_cell_angle_alpha    73.9862
_cell_angle_beta     73.9511
_cell_angle_gamma    73.9605

_space_group_name_H-M_alt    "P 1"
_space_group_IT_number       1

loop_
  _space_group_symop_operation_xyz
  'x, y, z'

loop_
  _atom_site_type_symbol
  _atom_site_label
  _atom_site_symmetry_multiplicity
  _atom_site_fract_x
  _atom_site_fract_y
  _atom_site_fract_z
  _atom_site_occupancy
  S   S1        1.0  0.19547  0.03218  0.14166  1.0000
  S   S2        1.0  0.21755  0.03605  0.16259  1.0000
  Fe  Fe1       1.0  0.20400  0.01853  0.16349  1.0000
  S   S3        1.0  0.18789  0.00741  0.18493  1.0000
  Fe  Fe2       1.0  0.21118  0.04828  0.13941  1.0000
  H   H1        1.0  0.20655  0.21757  0.10909  1.0000
  Fe  Fe3       1.0  0.11038  0.01977  0.26520  1.0000
  S   S4        1.0  0.10744  0.03288  0.24090  1.0000
  Fe  Fe4       1.0  0.10673  0.04948  0.27647  1.0000
  S   S5        1.0  0.10327  0.06498  0.25319  1.0000
  S   S6        1.0  0.10658  0.06187  0.29501  1.0000
  Fe  Fe5       1.0  0.08785  0.04945  0.25345  1.0000
  S   S7        1.0  0.06592  0.06040  0.24390  1.0000
  Fe  Fe6       1.0  0.12311  0.04728  0.24278  1.0000
  S   S8        1.0  0.14189  0.05691  0.22346  1.0000
  S   S9        1.0  0.08946  0.03527  0.27776  1.0000
  S   S10       1.0  0.12787  0.03284  0.26602  1.0000
  Fe  Fe7       1.0  0.17710  0.09115  0.32719  1.0000
  S   S11       1.0  0.18524  0.06490  0.33454  1.0000
  S   S12       1.0  0.15649  0.10297  0.34376  1.0000
  Fe  Fe8       1.0  0.20037  0.09294  0.29588  1.0000
  S   S13       1.0  0.20975  0.06701  0.30061  1.0000
  S   S14       1.0  0.21053  0.10894  0.27374  1.0000
  Fe  Fe9       1.0  0.18460  0.06515  0.30993  1.0000
  S   S15       1.0  0.17632  0.04678  0.30380  1.0000
  Fe  Fe10      1.0  0.20978  0.06920  0.32470  1.0000
  C   C1        1.0  0.22107  0.98700  0.11117  1.0000
  S   S16       1.0  0.17506  0.09103  0.30308  1.0000
  S   S17       1.0  0.20176  0.09550  0.31943  1.0000
  C   C2        1.0  0.21483  0.20137  0.14179  1.0000
  C   C3        1.0  0.10686  0.21600  0.31076  1.0000
  S   S18       1.0  0.00337  0.08781  0.28893  1.0000
  H   H2        1.0  0.23519  0.07831  0.45130  1.0000
  C   C4        1.0  0.21215  0.14222  0.99162  1.0000
  C   C5        1.0  0.15958  0.12453  0.06832  1.0000
  Fe  Fe11      1.0  0.08273  0.16705  0.32722  1.0000
  S   S19       1.0  0.06660  0.16907  0.31165  1.0000
  S   S20       1.0  0.10822  0.16158  0.31461  1.0000
  Fe  Fe12      1.0  0.05530  0.17567  0.35392  1.0000
  S   S21       1.0  0.03701  0.17824  0.34043  1.0000
  S   S22       1.0  0.04772  0.17745  0.37944  1.0000
  Fe  Fe13      1.0  0.05218  0.15634  0.33290  1.0000
  S   S23       1.0  0.04279  0.13683  0.33046  1.0000
  Fe  Fe14      1.0  0.05302  0.19079  0.32032  1.0000
  S   S24       1.0  0.04364  0.21104  0.30216  1.0000
  S   S25       1.0  0.06933  0.15246  0.34804  1.0000
  S   S26       1.0  0.07030  0.19006  0.33427  1.0000
  H   H3        1.0  0.00168  0.19522  0.18822  1.0000
  S   S27       1.0  0.21499  0.15114  0.07920  1.0000
  C   C6        1.0  0.05360  0.01511  0.28506  1.0000
  Fe  Fe15      1.0  0.21513  0.16715  0.03476  1.0000
  S   S28       1.0  0.19695  0.15458  0.05122  1.0000
  S   S29       1.0  0.21263  0.17811  0.00982  1.0000
  Fe  Fe16      1.0  0.19655  0.16897  0.06778  1.0000
  S   S30       1.0  0.17337  0.18086  0.08063  1.0000
  Fe  Fe17      1.0  0.21696  0.13788  0.06097  1.0000
  N   N1        1.0  0.22859  0.18965  0.11685  1.0000
  S   S31       1.0  0.21326  0.18293  0.05068  1.0000
  C   C7        1.0  0.23946  0.05704  0.34769  1.0000
  H   H4        1.0  0.01236  0.18391  0.23393  1.0000
  H   H5        1.0  0.17064  0.99963  0.15941  1.0000
  C   C8        1.0  0.10648  0.22817  0.25827  1.0000
  C   C9        1.0  0.99209  0.21208  0.39051  1.0000
  C   C10       1.0  0.22926  0.10904  0.24433  1.0000
  H   H6        1.0  0.20559  0.19437  0.14678  1.0000
  C   C11       1.0  0.06817  0.01671  0.25760  1.0000
  C   C12       1.0  0.06884  0.01754  0.24020  1.0000
  H   H7        1.0  0.23943  0.09412  0.43595  1.0000
  H   H8        1.0  0.99821  0.20227  0.41984  1.0000
  C   C13       1.0  0.22058  0.10040  0.25753  1.0000
  H   H9        1.0  0.24097  0.04406  0.17676  1.0000
  H   H10       1.0  0.06624  0.00600  0.30395  1.0000
  H   H11       1.0  0.18526  0.10888  0.05329  1.0000
  H   H12       1.0  0.16716  0.16332  0.00919  1.0000
  C   C14       1.0  0.15783  0.19643  0.04011  1.0000
  C   C15       1.0  0.16757  0.19024  0.05097  1.0000
  C   C16       1.0  0.16107  0.18857  0.06710  1.0000
  C   C17       1.0  0.14477  0.19309  0.07235  1.0000
  H   H13       1.0  0.16296  0.19782  0.02764  1.0000
  H   H14       1.0  0.18014  0.18705  0.04675  1.0000
  N   N2        1.0  0.11844  0.21613  0.98486  1.0000
  C   C18       1.0  0.04028  0.19594  0.38448  1.0000
  C   C19       1.0  0.03871  0.20988  0.37299  1.0000
  H   H15       1.0  0.99446  0.16938  0.19391  1.0000
  H   H16       1.0  0.06161  0.02879  0.23492  1.0000
  H   H17       1.0  0.20993  0.21298  0.13503  1.0000
  C   C20       1.0  0.03540  0.19660  0.40043  1.0000
  H   H18       1.0  0.04247  0.20945  0.36067  1.0000
  C   C21       1.0  0.13512  0.19016  0.28982  1.0000
  H   H19       1.0  0.16566  0.99018  0.13807  1.0000
  H   H20       1.0  0.03676  0.18587  0.40935  1.0000
  S   S32       1.0  0.99701  0.22319  0.44303  1.0000
  H   H21       1.0  0.14659  0.09905  0.25606  1.0000
  C   C22       1.0  0.12935  0.08580  0.25937  1.0000
  H   H22       1.0  0.00331  0.13313  0.30460  1.0000
  H   H23       1.0  0.00118  0.20848  0.24500  1.0000
  H   H24       1.0  0.23021  0.20957  0.98291  1.0000
  C   C23       1.0  0.17878  0.99993  0.14774  1.0000
  H   H25       1.0  0.04329  0.03887  0.26112  1.0000
  C   C24       1.0  0.23602  0.04389  0.18941  1.0000
  H   H26       1.0  0.12549  0.18915  0.00949  1.0000
  H   H27       1.0  0.07840  0.00768  0.26083  1.0000
  H   H28       1.0  0.13722  0.18308  0.99149  1.0000
  C   C25       1.0  0.02710  0.16012  0.31012  1.0000
  C   C26       1.0  0.02903  0.14447  0.31835  1.0000
  C   C27       1.0  0.02026  0.13480  0.31651  1.0000
  C   C28       1.0  0.14942  0.22617  0.08819  1.0000
  H   H29       1.0  0.13966  0.19144  0.08482  1.0000
  H   H30       1.0  0.03369  0.16772  0.31154  1.0000
  H   H31       1.0  0.02154  0.12275  0.32304  1.0000
  C   C29       1.0  0.05284  0.22697  0.29661  1.0000
  H   H32       1.0  0.14634  0.19164  0.29138  1.0000
  H   H33       1.0  0.20431  0.11993  0.02007  1.0000
  C   C30       1.0  0.14324  0.11938  0.33559  1.0000
  C   C31       1.0  0.12907  0.12543  0.34528  1.0000
  C   C32       1.0  0.11811  0.13828  0.33897  1.0000
  C   C33       1.0  0.12148  0.14537  0.32299  1.0000
  C   C34       1.0  0.13573  0.13948  0.31334  1.0000
  C   C35       1.0  0.14652  0.12643  0.31959  1.0000
  H   H34       1.0  0.12657  0.12012  0.35771  1.0000
  H   H35       1.0  0.10722  0.14287  0.34652  1.0000
  H   H36       1.0  0.13842  0.14497  0.30099  1.0000
  H   H37       1.0  0.15750  0.12199  0.31208  1.0000
  H   H38       1.0  0.00463  0.15854  0.23978  1.0000
  S   S33       1.0  0.21935  0.11181  0.06490  1.0000
  C   C36       1.0  0.04874  0.06806  0.25661  1.0000
  C   C37       1.0  0.04678  0.06303  0.27294  1.0000
  C   C38       1.0  0.03255  0.06868  0.28280  1.0000
  C   C39       1.0  0.02057  0.07996  0.27639  1.0000
  C   C40       1.0  0.02268  0.08523  0.26008  1.0000
  C   C41       1.0  0.03662  0.07905  0.25021  1.0000
  H   H39       1.0  0.05613  0.05467  0.27795  1.0000
  H   H40       1.0  0.03096  0.06466  0.29543  1.0000
  H   H41       1.0  0.01347  0.09391  0.25507  1.0000
  H   H42       1.0  0.03808  0.08295  0.23758  1.0000
  C   C42       1.0  0.12517  0.05698  0.29968  1.0000
  C   C43       1.0  0.13096  0.06854  0.30245  1.0000
  C   C44       1.0  0.14646  0.06531  0.30448  1.0000
  C   C45       1.0  0.15624  0.05051  0.30364  1.0000
  C   C46       1.0  0.15024  0.03876  0.30148  1.0000
  C   C47       1.0  0.13472  0.04197  0.29955  1.0000
  H   H43       1.0  0.12375  0.08021  0.30223  1.0000
  H   H44       1.0  0.15097  0.07440  0.30620  1.0000
  H   H45       1.0  0.15772  0.02725  0.30093  1.0000
  H   H46       1.0  0.13024  0.03288  0.29773  1.0000
  C   C48       1.0  0.20848  0.08484  0.11593  1.0000
  C   C49       1.0  0.21431  0.07681  0.10366  1.0000
  C   C50       1.0  0.21744  0.08520  0.08800  1.0000
  C   C51       1.0  0.21474  0.10162  0.08457  1.0000
  C   C52       1.0  0.20876  0.10965  0.09684  1.0000
  C   C53       1.0  0.20569  0.10127  0.11249  1.0000
  H   H47       1.0  0.21632  0.06415  0.10620  1.0000
  H   H48       1.0  0.07359  0.98481  0.27198  1.0000
  H   H49       1.0  0.20631  0.12229  0.09432  1.0000
  C   C54       1.0  0.06654  0.00307  0.29273  1.0000
  C   C55       1.0  0.17526  0.02121  0.19570  1.0000
  C   C56       1.0  0.17528  0.03721  0.19028  1.0000
  C   C57       1.0  0.16501  0.04809  0.19893  1.0000
  C   C58       1.0  0.15464  0.04304  0.21293  1.0000
  C   C59       1.0  0.15464  0.02705  0.21841  1.0000
  C   C60       1.0  0.16500  0.01615  0.20982  1.0000
  H   H50       1.0  0.18301  0.04124  0.17930  1.0000
  H   H51       1.0  0.16482  0.06047  0.19458  1.0000
  H   H52       1.0  0.14670  0.02309  0.22927  1.0000
  H   H53       1.0  0.16506  0.00382  0.21414  1.0000
  C   C61       1.0  0.17756  0.09232  0.25621  1.0000
  S   S34       1.0  0.20469  0.07467  0.13565  1.0000
  C   C62       1.0  0.99771  0.20766  0.27438  1.0000
  H   H54       1.0  0.12872  0.18566  0.30183  1.0000
  C   C63       1.0  0.02460  0.20984  0.26098  1.0000
  C   C64       1.0  0.14159  0.20136  0.04533  1.0000
  H   H55       1.0  0.20761  0.05832  0.18259  1.0000
  H   H56       1.0  0.12823  0.08933  0.24694  1.0000
  H   H57       1.0  0.23985  0.14210  0.09790  1.0000
  S   S35       1.0  0.99201  0.14495  0.22205  1.0000
  H   H58       1.0  0.05500  0.02702  0.28475  1.0000
  C   C65       1.0  0.05494  0.23207  0.10362  1.0000
  H   H59       1.0  0.99910  0.19621  0.27136  1.0000
  H   H60       1.0  0.13772  0.18104  0.28288  1.0000
  H   H61       1.0  0.03237  0.21779  0.25305  1.0000
  S   S36       1.0  0.23216  0.03488  0.12496  1.0000
  C   C66       1.0  0.10507  0.98816  0.24971  1.0000
  H   H62       1.0  0.04370  0.00002  0.25933  1.0000
  C   C67       1.0  0.06023  0.23008  0.30677  1.0000
  C   C68       1.0  0.00737  0.19134  0.21075  1.0000
  C   C69       1.0  0.02868  0.21105  0.40494  1.0000
  H   H63       1.0  0.15106  0.12584  0.03664  1.0000
  H   H64       1.0  0.10953  0.22777  0.00444  1.0000
  H   H65       1.0  0.09834  0.19811  0.00699  1.0000
  C   C70       1.0  0.13503  0.19963  0.06146  1.0000
  C   C71       1.0  0.13263  0.22307  0.09374  1.0000
  C   C72       1.0  0.19662  0.17359  0.99059  1.0000
  H   H66       1.0  0.15119  0.08082  0.23262  1.0000
  H   H67       1.0  0.22939  0.12100  0.24409  1.0000
  H   H68       1.0  0.00186  0.20473  0.28553  1.0000
  H   H69       1.0  0.01485  0.03734  0.26835  1.0000
  H   H70       1.0  0.12737  0.22426  0.08368  1.0000
  C   C73       1.0  0.17365  0.07602  0.25971  1.0000
  H   H71       1.0  0.10469  0.00042  0.24429  1.0000
  H   H72       1.0  0.19139  0.09306  0.18214  1.0000
  C   C74       1.0  0.22972  0.19227  0.13224  1.0000
  H   H73       1.0  0.10010  0.21445  0.32315  1.0000
  H   H74       1.0  0.15044  0.13082  0.07684  1.0000
  H   H75       1.0  0.01979  0.01736  0.27866  1.0000
  H   H76       1.0  0.22549  0.03865  0.19337  1.0000
  H   H77       1.0  0.14611  0.18784  0.00435  1.0000
  S   S37       1.0  0.11499  0.99336  0.27369  1.0000
  C   C75       1.0  0.10140  0.20671  0.30211  1.0000
  C   C76       1.0  0.00244  0.18718  0.19940  1.0000
  Fe  Fe18      1.0  0.23784  0.02189  0.14839  1.0000
  C   C77       1.0  0.09798  0.20870  0.01092  1.0000
  H   H78       1.0  0.21178  0.17483  0.12800  1.0000
  H   H79       1.0  0.16440  0.10814  0.04288  1.0000
  H   H80       1.0  0.12469  0.23076  0.10162  1.0000
  H   H81       1.0  0.08014  0.19698  0.29217  1.0000
  H   H82       1.0  0.01000  0.18924  0.37577  1.0000
  H   H83       1.0  0.06437  0.99103  0.29586  1.0000
  H   H84       1.0  0.19064  0.18577  0.99010  1.0000
  N   N3        1.0  0.05296  0.01405  0.26892  1.0000
  C   C78       1.0  0.21484  0.15064  0.00119  1.0000
  C   C79       1.0  0.20738  0.16648  0.00034  1.0000
  H   H85       1.0  0.18503  0.14856  0.02812  1.0000
  N   N4        1.0  0.09854  0.10151  0.33523  1.0000
  C   C80       1.0  0.10987  0.09307  0.34595  1.0000
  C   C81       1.0  0.08537  0.11238  0.34396  1.0000
  C   C82       1.0  0.10734  0.11088  0.32056  1.0000
  C   C83       1.0  0.09275  0.08929  0.33131  1.0000
  C   C84       1.0  0.12564  0.08316  0.33854  1.0000
  C   C85       1.0  0.07527  0.10445  0.35918  1.0000
  C   C86       1.0  0.09760  0.12543  0.31127  1.0000
  C   C87       1.0  0.08017  0.09526  0.32128  1.0000
  H   H86       1.0  0.11291  0.10160  0.35081  1.0000
  H   H87       1.0  0.10444  0.08488  0.35631  1.0000
  H   H88       1.0  0.07695  0.11980  0.33660  1.0000
  H   H89       1.0  0.09026  0.12086  0.34706  1.0000
  H   H90       1.0  0.11613  0.11545  0.32351  1.0000
  H   H91       1.0  0.11430  0.10327  0.31218  1.0000
  H   H92       1.0  0.10265  0.08168  0.32464  1.0000
  H   H93       1.0  0.08843  0.08075  0.34204  1.0000
  H   H94       1.0  0.12394  0.07316  0.33489  1.0000
  H   H95       1.0  0.13268  0.09029  0.32854  1.0000
  H   H96       1.0  0.13297  0.07806  0.34751  1.0000
  H   H97       1.0  0.06571  0.11369  0.36403  1.0000
  H   H98       1.0  0.06945  0.09625  0.35695  1.0000
  H   H99       1.0  0.08211  0.09840  0.36840  1.0000
  H   H100      1.0  0.08792  0.12282  0.30791  1.0000
  H   H101      1.0  0.10547  0.13029  0.30027  1.0000
  H   H102      1.0  0.09277  0.13493  0.31796  1.0000
  H   H103      1.0  0.08576  0.09764  0.30855  1.0000
  H   H104      1.0  0.07127  0.10574  0.32424  1.0000
  H   H105      1.0  0.07332  0.08609  0.32365  1.0000
  N   N5        1.0  0.05227  0.11684  0.27079  1.0000
  C   C88       1.0  0.04238  0.13152  0.27627  1.0000
  C   C89       1.0  0.04346  0.10387  0.27871  1.0000
  C   C90       1.0  0.05370  0.11991  0.25326  1.0000
  C   C91       1.0  0.06824  0.11326  0.27478  1.0000
  C   C92       1.0  0.04824  0.14682  0.26806  1.0000
  C   C93       1.0  0.03835  0.10116  0.29679  1.0000
  C   C94       1.0  0.06355  0.10646  0.24505  1.0000
  C   C95       1.0  0.07704  0.09584  0.27779  1.0000
  H   H106      1.0  0.03002  0.13365  0.27499  1.0000
  H   H107      1.0  0.04161  0.13016  0.28902  1.0000
  H   H108      1.0  0.05034  0.09248  0.27584  1.0000
  H   H109      1.0  0.03256  0.10624  0.27423  1.0000
  H   H110      1.0  0.04178  0.12315  0.25051  1.0000
  H   H111      1.0  0.05928  0.13004  0.24698  1.0000
  H   H112      1.0  0.07626  0.11991  0.26531  1.0000
  H   H113      1.0  0.06738  0.11737  0.28557  1.0000
  H   H114      1.0  0.04187  0.15594  0.27499  1.0000
  H   H115      1.0  0.06099  0.14531  0.26728  1.0000
  H   H116      1.0  0.04550  0.15151  0.25621  1.0000
  H   H117      1.0  0.04742  0.10219  0.30230  1.0000
  H   H118      1.0  0.02722  0.10959  0.30023  1.0000
  H   H119      1.0  0.03583  0.08924  0.30170  1.0000
  H   H120      1.0  0.06197  0.10950  0.23275  1.0000
  H   H121      1.0  0.05987  0.09521  0.25060  1.0000
  H   H122      1.0  0.07629  0.10495  0.24432  1.0000
  H   H123      1.0  0.07139  0.08896  0.28906  1.0000
  H   H124      1.0  0.08919  0.09515  0.27875  1.0000
  H   H125      1.0  0.07810  0.08996  0.26827  1.0000
  S   S38       1.0  0.07496  0.22892  0.09430  1.0000
  C   C96       1.0  0.19375  0.16512  0.98126  1.0000
  C   C97       1.0  0.21311  0.18549  0.11844  1.0000
  H   H126      1.0  0.22947  0.07387  0.40992  1.0000
  S   S39       1.0  0.99614  0.16377  0.28391  1.0000
  H   H127      1.0  0.08585  0.18728  0.27623  1.0000
  C   C98       1.0  0.21057  0.18239  0.10347  1.0000
  C   C99       1.0  0.23116  0.20366  0.10367  1.0000
  H   H128      1.0  0.21847  0.13019  0.99173  1.0000
  H   H129      1.0  0.13550  0.21504  0.99805  1.0000
  H   H130      1.0  0.18285  0.22593  0.08908  1.0000
  H   H131      1.0  0.20291  0.19475  0.12213  1.0000
  H   H132      1.0  0.21071  0.19286  0.09363  1.0000
  C   C100      1.0  0.03499  0.23074  0.12799  1.0000
  C   C101      1.0  0.99906  0.18381  0.40121  1.0000
  H   H133      1.0  0.16662  0.03395  0.26341  1.0000
  C   C102      1.0  0.20187  0.14957  0.98138  1.0000
  H   H134      1.0  0.14974  0.05699  0.25203  1.0000
  S   S40       1.0  0.00459  0.12925  0.26317  1.0000
  H   H135      1.0  0.19090  0.99906  0.14885  1.0000
  H   H136      1.0  0.19878  0.17961  0.10602  1.0000
  H   H137      1.0  0.22557  0.08036  0.34859  1.0000
  H   H138      1.0  0.21928  0.17216  0.09961  1.0000
  H   H139      1.0  0.04239  0.01355  0.29363  1.0000
  H   H140      1.0  0.13134  0.20676  0.26874  1.0000
  C   C103      1.0  0.99841  0.17256  0.20261  1.0000
  H   H141      1.0  0.03827  0.02658  0.25203  1.0000
  H   H142      1.0  0.05995  0.22280  0.12673  1.0000
  S   S41       1.0  0.23243  0.05468  0.33229  1.0000
  N   N6        1.0  0.22210  0.07330  0.18360  1.0000
  C   C104      1.0  0.23232  0.06027  0.19323  1.0000
  C   C105      1.0  0.22065  0.08828  0.18861  1.0000
  C   C106      1.0  0.23029  0.07442  0.16642  1.0000
  C   C107      1.0  0.20637  0.06914  0.18670  1.0000
  C   C108      1.0  0.02364  0.02867  0.27466  1.0000
  C   C109      1.0  0.21144  0.08930  0.20554  1.0000
  C   C110      1.0  0.22785  0.09070  0.15513  1.0000
  C   C111      1.0  0.19384  0.08161  0.17885  1.0000
  C   C112      1.0  0.05083  0.22805  0.12008  1.0000
  H   H143      1.0  0.17554  0.04436  0.27132  1.0000
  H   H144      1.0  0.21469  0.09872  0.18098  1.0000
  H   H145      1.0  0.23257  0.09025  0.18734  1.0000
  H   H146      1.0  0.99499  0.17331  0.40928  1.0000
  H   H147      1.0  0.22709  0.06618  0.16130  1.0000
  C   C113      1.0  0.99898  0.16227  0.21726  1.0000
  H   H148      1.0  0.20141  0.06629  0.19954  1.0000
  H   H149      1.0  0.06515  0.00752  0.23862  1.0000
  H   H150      1.0  0.17179  0.07153  0.27272  1.0000
  C   C114      1.0  0.00388  0.18040  0.38453  1.0000
  H   H151      1.0  0.21627  0.07969  0.21464  1.0000
  H   H152      1.0  0.21228  0.10038  0.20795  1.0000
  H   H153      1.0  0.19878  0.08980  0.20698  1.0000
  H   H154      1.0  0.23460  0.09829  0.15703  1.0000
  H   H155      1.0  0.21537  0.09683  0.15601  1.0000
  C   C115      1.0  0.00826  0.15627  0.29766  1.0000
  H   H156      1.0  0.22203  0.07891  0.07856  1.0000
  H   H157      1.0  0.18264  0.07751  0.18263  1.0000
  H   H158      1.0  0.19720  0.08317  0.16591  1.0000
  N   N7        1.0  0.10858  0.20831  0.28476  1.0000
  H   H159      1.0  0.23893  0.98478  0.12363  1.0000
  C   C116      1.0  0.10482  0.19595  0.27905  1.0000
  C   C117      1.0  0.12620  0.20606  0.28150  1.0000
  H   H160      1.0  0.10457  0.22878  0.30557  1.0000
  C   C118      1.0  0.08720  0.19740  0.28000  1.0000
  C   C119      1.0  0.23564  0.07958  0.41508  1.0000
  H   H161      1.0  0.11125  0.19563  0.26672  1.0000
  H   H162      1.0  0.10909  0.18405  0.28594  1.0000
  H   H163      1.0  0.21794  0.20351  0.15194  1.0000
  C   C120      1.0  0.00994  0.14067  0.30610  1.0000
  H   H164      1.0  0.22645  0.08787  0.42154  1.0000
  H   H165      1.0  0.12975  0.21581  0.28398  1.0000
  H   H166      1.0  0.06019  0.22266  0.31837  1.0000
  H   H167      1.0  0.08212  0.20821  0.27212  1.0000
  H   H168      1.0  0.15362  0.15082  0.01944  1.0000
  H   H169      1.0  0.08113  0.01730  0.23341  1.0000
  S   S42       1.0  0.22494  0.00288  0.15143  1.0000
  H   H170      1.0  0.23968  0.09873  0.29508  1.0000
  H   H171      1.0  0.11345  0.19385  0.98519  1.0000
  H   H172      1.0  0.12001  0.09405  0.26580  1.0000
  H   H173      1.0  0.02120  0.22929  0.28084  1.0000
  H   H174      1.0  0.18073  0.09731  0.24342  1.0000
  H   H175      1.0  0.10334  0.19426  0.30853  1.0000
  H   H176      1.0  0.16876  0.14478  0.05463  1.0000
  H   H177      1.0  0.04017  0.99549  0.28018  1.0000
  H   H178      1.0  0.23249  0.08917  0.14282  1.0000
  H   H179      1.0  0.15662  0.21782  0.08057  1.0000
  H   H180      1.0  0.12243  0.20315  0.06556  1.0000
  H   H181      1.0  0.16615  0.10578  0.01794  1.0000
  H   H182      1.0  0.01545  0.17806  0.29345  1.0000
  H   H183      1.0  0.01011  0.18386  0.40432  1.0000
  H   H184      1.0  0.18457  0.06818  0.25469  1.0000
  H   H185      1.0  0.14689  0.22635  0.05860  1.0000
  C   C121      1.0  0.03014  0.19412  0.25546  1.0000
  H   H186      1.0  0.18702  0.06972  0.22916  1.0000
  H   H187      1.0  0.08526  0.21369  0.01501  1.0000
  C   C122      1.0  0.23788  0.08671  0.23191  1.0000
  H   H188      1.0  0.14484  0.08482  0.27404  1.0000
  H   H189      1.0  0.20481  0.98550  0.09848  1.0000
  C   C123      1.0  0.22039  0.08498  0.25775  1.0000
  H   H190      1.0  0.21359  0.07830  0.26775  1.0000
  S   S43       1.0  0.12977  0.21003  0.03151  1.0000
  H   H191      1.0  0.16801  0.10073  0.26220  1.0000
  C   C124      1.0  0.16377  0.11990  0.03474  1.0000
  H   H192      1.0  0.23868  0.16457  0.12072  1.0000
  H   H193      1.0  0.02919  0.19560  0.24317  1.0000
  H   H194      1.0  0.13319  0.21079  0.10057  1.0000
  C   C125      1.0  0.21876  0.21913  0.10432  1.0000
  H   H195      1.0  0.16355  0.09293  0.23246  1.0000
  H   H196      1.0  0.04278  0.18942  0.25577  1.0000
  H   H197      1.0  0.02497  0.21142  0.41727  1.0000
  H   H198      1.0  0.18795  0.09106  0.26104  1.0000
  C   C126      1.0  0.16829  0.11734  0.01769  1.0000
  C   C127      1.0  0.04917  0.99870  0.26937  1.0000
  H   H199      1.0  0.17589  0.07601  0.21406  1.0000
  N   N8        1.0  0.15968  0.07540  0.25405  1.0000
  Fe  Fe19      1.0  0.00078  0.22846  0.18871  1.0000
  C   C128      1.0  0.10540  0.22137  0.99807  1.0000
  H   H200      1.0  0.23572  0.19598  0.05280  1.0000
  C   C129      1.0  0.23796  0.10219  0.23154  1.0000
  H   H201      1.0  0.10295  0.22025  0.25314  1.0000
  H   H202      1.0  0.15460  0.22240  0.09880  1.0000
  C   C130      1.0  0.22897  0.07818  0.24494  1.0000
  H   H203      1.0  0.18027  0.04527  0.25049  1.0000
  C   C131      1.0  0.14555  0.08664  0.26123  1.0000
  H   H204      1.0  0.10351  0.20516  0.02124  1.0000
  H   H205      1.0  0.17514  0.01173  0.14035  1.0000
  H   H206      1.0  0.23664  0.07984  0.28240  1.0000
  H   H207      1.0  0.22322  0.14511  0.00865  1.0000
  H   H208      1.0  0.20103  0.10753  0.12194  1.0000
  H   H209      1.0  0.22883  0.06621  0.24521  1.0000
  H   H210      1.0  0.08833  0.21427  0.98148  1.0000
  H   H211      1.0  0.16044  0.12617  0.01042  1.0000
  C   C132      1.0  0.01671  0.16601  0.29986  1.0000
  H   H212      1.0  0.17334  0.05864  0.22845  1.0000
  H   H213      1.0  0.18069  0.11719  0.01157  1.0000
  H   H214      1.0  0.09563  0.23019  0.99338  1.0000
  Fe  Fe20      1.0  0.21715  0.01736  0.12936  1.0000
  N   N9        1.0  0.17305  0.12929  0.03865  1.0000
  C   C133      1.0  0.04002  0.02737  0.26345  1.0000
  C   C134      1.0  0.17716  0.14274  0.02528  1.0000
  H   H215      1.0  0.07858  0.00331  0.28552  1.0000
  H   H216      1.0  0.19641  0.10217  0.02773  1.0000
  C   C135      1.0  0.20042  0.11125  0.03072  1.0000
  C   C136      1.0  0.16306  0.15569  0.02068  1.0000
  C   C137      1.0  0.13541  0.19111  0.99942  1.0000
  C   C138      1.0  0.18791  0.11887  0.04338  1.0000
  C   C139      1.0  0.16191  0.08064  0.23644  1.0000
  C   C140      1.0  0.13361  0.20836  0.99036  1.0000
  H   H217      1.0  0.17012  0.11966  0.07357  1.0000
  H   H218      1.0  0.15500  0.11486  0.06717  1.0000
  H   H219      1.0  0.19378  0.12552  0.04779  1.0000
  H   H220      1.0  0.18407  0.13874  0.01444  1.0000
  H   H221      1.0  0.21106  0.10505  0.03560  1.0000
  C   C141      1.0  0.10177  0.22459  0.27639  1.0000
  H   H222      1.0  0.01472  0.22092  0.23609  1.0000
  C   C142      1.0  0.17547  0.07053  0.22670  1.0000
  H   H223      1.0  0.15150  0.14326  0.05015  1.0000
  C   C143      1.0  0.16315  0.13629  0.05252  1.0000
  H   H224      1.0  0.14876  0.05768  0.27154  1.0000
  H   H225      1.0  0.23938  0.19846  0.13033  1.0000
  C   C144      1.0  0.17067  0.04503  0.26111  1.0000
  H   H226      1.0  0.08873  0.22702  0.27962  1.0000
  H   H227      1.0  0.02331  0.03328  0.28493  1.0000
  H   H228      1.0  0.07070  0.02784  0.25816  1.0000
  C   C145      1.0  0.00419  0.16637  0.22844  1.0000
  S   S44       1.0  0.21269  0.00690  0.11149  1.0000
  H   H229      1.0  0.11948  0.21152  0.31117  1.0000
  C   C146      1.0  0.23449  0.07093  0.35326  1.0000
  Fe  Fe21      1.0  0.23205  0.16387  0.06058  1.0000
  H   H230      1.0  0.22689  0.05859  0.20599  1.0000
  H   H231      1.0  0.99380  0.17939  0.38048  1.0000
  N   N10       1.0  0.00748  0.21783  0.26156  1.0000
  C   C147      1.0  0.15644  0.05904  0.25961  1.0000
  S   S45       1.0  0.08432  0.22380  0.04907  1.0000
  H   H232      1.0  0.15817  0.16338  0.02932  1.0000
  H   H233      1.0  0.03194  0.22745  0.14067  1.0000
  H   H234      1.0  0.08842  0.21055  0.30415  1.0000
  C   C148      1.0  0.02709  0.22497  0.39350  1.0000
  H   H235      1.0  0.12668  0.07402  0.26458  1.0000
  C   C149      1.0  0.03225  0.22438  0.37752  1.0000
  H   H236      1.0  0.22160  0.22614  0.11105  1.0000
  H   H237      1.0  0.23437  0.22337  0.05326  1.0000
  S   S46       1.0  0.23547  0.14926  0.04302  1.0000
  H   H238      1.0  0.23268  0.20094  0.09205  1.0000
  H   H239      1.0  0.00511  0.21048  0.38806  1.0000
  S   S47       1.0  0.01072  0.21013  0.20795  1.0000
  H   H240      1.0  0.23291  0.18079  0.14045  1.0000
  H   H241      1.0  0.02376  0.18505  0.26329  1.0000
  H   H242      1.0  0.02745  0.20714  0.27277  1.0000
  C   C150      1.0  0.00858  0.18077  0.22511  1.0000
  C   C151      1.0  0.17799  0.98742  0.13954  1.0000
  H   H243      1.0  0.01251  0.16896  0.38471  1.0000
  C   C152      1.0  0.00407  0.21942  0.24567  1.0000
  C   C153      1.0  0.06308  0.98424  0.26843  1.0000
  H   H244      1.0  0.00116  0.22790  0.29087  1.0000
  H   H245      1.0  0.21884  0.22617  0.09213  1.0000
  H   H246      1.0  0.23274  0.13573  0.11857  1.0000
  H   H247      1.0  0.23647  0.06099  0.43544  1.0000
  Fe  Fe22      1.0  0.10886  0.22773  0.04063  1.0000
  H   H248      1.0  0.18544  0.98976  0.12743  1.0000
  H   H249      1.0  0.23755  0.08358  0.36883  1.0000
  H   H250      1.0  0.14389  0.20851  0.98016  1.0000
  H   H251      1.0  0.11923  0.22790  0.25388  1.0000
  H   H252      1.0  0.23634  0.11348  0.10780  1.0000
  H   H253      1.0  0.10509  0.23368  0.28016  1.0000
  H   H254      1.0  0.24122  0.11495  0.08148  1.0000
  C   C154      1.0  0.00511  0.23384  0.26487  1.0000
  Fe  Fe23      1.0  0.17658  0.18707  0.93178  1.0000
  S   S48       1.0  0.19823  0.18113  0.94139  1.0000
  C   C155      1.0  0.14699  0.20596  0.66300  1.0000
  Fe  Fe24      1.0  0.18854  0.16161  0.91300  1.0000
  S   S49       1.0  0.21109  0.15278  0.92159  1.0000
  S   S50       1.0  0.18216  0.15601  0.89308  1.0000
  Fe  Fe25      1.0  0.19600  0.15628  0.94522  1.0000
  C   C156      1.0  0.11297  0.98924  0.81246  1.0000
  Fe  Fe26      1.0  0.21140  0.17825  0.91719  1.0000
  C   C157      1.0  0.23023  0.08632  0.67636  1.0000
  S   S51       1.0  0.17330  0.16245  0.93710  1.0000
  S   S52       1.0  0.18999  0.18694  0.90705  1.0000
  Fe  Fe27      1.0  0.18897  0.08131  0.86440  1.0000
  S   S53       1.0  0.21160  0.06828  0.85163  1.0000
  S   S54       1.0  0.18856  0.08636  0.88762  1.0000
  Fe  Fe28      1.0  0.17107  0.08157  0.84039  1.0000
  S   S55       1.0  0.19216  0.06882  0.82559  1.0000
  S   S56       1.0  0.14822  0.08983  0.83243  1.0000
  Fe  Fe29      1.0  0.19684  0.05361  0.84863  1.0000
  C   C158      1.0  0.09850  0.21171  0.97171  1.0000
  Fe  Fe30      1.0  0.20486  0.08462  0.82988  1.0000
  C   C159      1.0  0.00708  0.19479  0.71426  1.0000
  S   S57       1.0  0.17461  0.06515  0.86328  1.0000
  S   S58       1.0  0.18335  0.09890  0.84274  1.0000
  Fe  Fe31      1.0  0.08005  0.05708  0.78894  1.0000
  S   S59       1.0  0.08812  0.05698  0.76326  1.0000
  S   S60       1.0  0.05471  0.06394  0.80114  1.0000
  Fe  Fe32      1.0  0.11319  0.04624  0.79464  1.0000
  S   S61       1.0  0.12393  0.04520  0.76942  1.0000
  S   S62       1.0  0.13014  0.03764  0.81089  1.0000
  Fe  Fe33      1.0  0.10704  0.06813  0.76403  1.0000
  S   S63       1.0  0.11433  0.08746  0.74388  1.0000
  Fe  Fe34      1.0  0.10417  0.03405  0.77102  1.0000
  S   S64       1.0  0.10934  0.01458  0.75815  1.0000
  S   S65       1.0  0.09769  0.07019  0.78914  1.0000
  S   S66       1.0  0.09465  0.03315  0.79675  1.0000
  Fe  Fe35      1.0  0.17460  0.13405  0.73509  1.0000
  S   S67       1.0  0.18443  0.15510  0.73234  1.0000
  S   S68       1.0  0.15529  0.12753  0.75581  1.0000
  Fe  Fe36      1.0  0.19825  0.12372  0.70660  1.0000
  H   H255      1.0  0.15328  0.00619  0.91297  1.0000
  Fe  Fe37      1.0  0.20818  0.13896  0.72726  1.0000
  H   H256      1.0  0.23401  0.18949  0.93611  1.0000
  H   H257      1.0  0.06466  0.02274  0.79845  1.0000
  S   S69       1.0  0.19817  0.11762  0.73228  1.0000
  S   S70       1.0  0.17358  0.13841  0.70980  1.0000
  H   H258      1.0  0.14354  0.13004  0.93301  1.0000
  S   S71       1.0  0.00887  0.10794  0.75764  1.0000
  C   C160      1.0  0.13320  0.18809  0.68365  1.0000
  C   C161      1.0  0.03842  0.23262  0.89054  1.0000
  C   C162      1.0  0.14685  0.18186  0.69005  1.0000
  H   H259      1.0  0.23651  0.16183  0.88659  1.0000
  C   C163      1.0  0.14491  0.99663  0.82218  1.0000
  C   C164      1.0  0.13192  0.15863  0.93801  1.0000
  C   C165      1.0  0.03764  0.19719  0.76703  1.0000
  H   H260      1.0  0.20075  0.16370  0.66888  1.0000
  C   C166      1.0  0.13461  0.16106  0.92001  1.0000
  H   H261      1.0  0.12142  0.15369  0.94435  1.0000
  H   H262      1.0  0.11693  0.13548  0.91245  1.0000
  H   H263      1.0  0.13888  0.14083  0.89157  1.0000
  H   H264      1.0  0.14242  0.15102  0.94237  1.0000
  N   N11       1.0  0.04121  0.19438  0.75064  1.0000
  C   C167      1.0  0.02727  0.20322  0.74336  1.0000
  C   C168      1.0  0.99456  0.19835  0.78517  1.0000
  C   C169      1.0  0.03389  0.17925  0.71049  1.0000
  C   C170      1.0  0.02839  0.16619  0.72042  1.0000
  H   H265      1.0  0.08094  0.19663  0.73466  1.0000
  Fe  Fe38      1.0  0.18493  0.15832  0.70663  1.0000
  H   H266      1.0  0.03658  0.15515  0.72288  1.0000
  C   C171      1.0  0.22453  0.16305  0.74434  1.0000
  H   H267      1.0  0.14678  0.17253  0.70049  1.0000
  H   H268      1.0  0.17066  0.20501  0.66409  1.0000
  H   H269      1.0  0.15815  0.22521  0.90509  1.0000
  H   H270      1.0  0.12275  0.18337  0.68904  1.0000
  N   N12       1.0  0.13400  0.14729  0.91410  1.0000
  H   H271      1.0  0.22741  0.12424  0.67720  1.0000
  H   H272      1.0  0.05454  0.17573  0.77606  1.0000
  C   C172      1.0  0.23482  0.14705  0.85607  1.0000
  C   C173      1.0  0.10227  0.99720  0.76628  1.0000
  S   S72       1.0  0.00166  0.22305  0.79157  1.0000
  H   H273      1.0  0.99412  0.19767  0.89172  1.0000
  H   H274      1.0  0.11040  0.20767  0.70937  1.0000
  H   H275      1.0  0.12378  0.20266  0.96701  1.0000
  H   H276      1.0  0.15901  0.02710  0.86251  1.0000
  H   H277      1.0  0.05491  0.22437  0.63524  1.0000
  H   H278      1.0  0.21369  0.99479  0.85335  1.0000
  H   H279      1.0  0.01362  0.22627  0.73479  1.0000
  H   H280      1.0  0.09148  0.00219  0.78920  1.0000
  C   C174      1.0  0.04191  0.07622  0.78912  1.0000
  C   C175      1.0  0.02871  0.08683  0.79535  1.0000
  C   C176      1.0  0.01847  0.09677  0.78577  1.0000
  C   C177      1.0  0.02118  0.09571  0.77010  1.0000
  C   C178      1.0  0.03418  0.08489  0.76400  1.0000
  C   C179      1.0  0.04465  0.07534  0.77341  1.0000
  H   H281      1.0  0.02652  0.08754  0.80752  1.0000
  H   H282      1.0  0.00843  0.10512  0.79055  1.0000
  H   H283      1.0  0.03627  0.08406  0.75187  1.0000
  H   H284      1.0  0.05472  0.06719  0.76856  1.0000
  C   C180      1.0  0.12521  0.09885  0.74752  1.0000
  C   C181      1.0  0.12433  0.10018  0.76278  1.0000
  C   C182      1.0  0.13317  0.10949  0.76522  1.0000
  C   C183      1.0  0.14322  0.11711  0.75246  1.0000
  C   C184      1.0  0.14403  0.11572  0.73726  1.0000
  C   C185      1.0  0.13491  0.10680  0.73478  1.0000
  H   H285      1.0  0.11678  0.09417  0.77268  1.0000
  H   H286      1.0  0.13246  0.11052  0.77703  1.0000
  H   H287      1.0  0.15166  0.12148  0.72737  1.0000
  H   H288      1.0  0.13560  0.10583  0.72295  1.0000
  C   C186      1.0  0.20171  0.01709  0.84163  1.0000
  C   C187      1.0  0.20668  0.00071  0.84462  1.0000
  H   H289      1.0  0.16436  0.02776  0.89613  1.0000
  C   C188      1.0  0.04953  0.18796  0.77741  1.0000
  H   H290      1.0  0.21363  0.19086  0.96018  1.0000
  H   H291      1.0  0.02676  0.17024  0.77282  1.0000
  H   H292      1.0  0.16410  0.99723  0.78749  1.0000
  C   C189      1.0  0.23358  0.10172  0.83139  1.0000
  H   H293      1.0  0.05564  0.21176  0.74348  1.0000
  H   H294      1.0  0.01921  0.17401  0.75522  1.0000
  C   C190      1.0  0.09381  0.99392  0.78182  1.0000
  H   H295      1.0  0.04774  0.02969  0.81238  1.0000
  C   C191      1.0  0.99179  0.20753  0.89765  1.0000
  N   N13       1.0  0.14175  0.98988  0.79757  1.0000
  C   C192      1.0  0.14284  0.07511  0.82717  1.0000
  C   C193      1.0  0.15154  0.05961  0.82956  1.0000
  C   C194      1.0  0.14741  0.04815  0.82472  1.0000
  C   C195      1.0  0.13465  0.05212  0.81740  1.0000
  C   C196      1.0  0.12597  0.06760  0.81504  1.0000
  C   C197      1.0  0.13002  0.07905  0.81998  1.0000
  H   H296      1.0  0.16147  0.05649  0.83510  1.0000
  H   H297      1.0  0.15434  0.03628  0.82633  1.0000
  H   H298      1.0  0.11607  0.07079  0.80953  1.0000
  H   H299      1.0  0.12327  0.09103  0.81810  1.0000
  S   S73       1.0  0.04749  0.22375  0.69283  1.0000
  C   C198      1.0  0.16030  0.20015  0.66959  1.0000
  C   C199      1.0  0.07175  0.18976  0.74100  1.0000
  H   H300      1.0  0.07366  0.18466  0.75306  1.0000
  H   H301      1.0  0.16293  0.22160  0.71050  1.0000
  C   C200      1.0  0.20223  0.99191  0.83673  1.0000
  S   S74       1.0  0.11731  0.20779  0.66045  1.0000
  C   C201      1.0  0.18496  0.13653  0.89141  1.0000
  C   C202      1.0  0.18978  0.12378  0.90311  1.0000
  C   C203      1.0  0.19109  0.10840  0.90171  1.0000
  C   C204      1.0  0.18788  0.10570  0.88849  1.0000
  C   C205      1.0  0.18344  0.11846  0.87663  1.0000
  C   C206      1.0  0.18186  0.13384  0.87815  1.0000
  H   H302      1.0  0.19222  0.12577  0.91336  1.0000
  H   H303      1.0  0.19452  0.09854  0.91092  1.0000
  H   H304      1.0  0.18085  0.11651  0.86647  1.0000
  H   H305      1.0  0.17817  0.14367  0.86905  1.0000
  H   H306      1.0  0.14623  0.16441  0.91478  1.0000
  H   H307      1.0  0.15715  0.19155  0.91324  1.0000
  H   H308      1.0  0.15801  0.13690  0.91680  1.0000
  H   H309      1.0  0.21675  0.19491  0.97659  1.0000
  H   H310      1.0  0.09638  0.20259  0.96699  1.0000
  C   C207      1.0  0.14889  0.11838  0.91415  1.0000
  C   C208      1.0  0.99656  0.20462  0.79681  1.0000
  C   C209      1.0  0.13331  0.20015  0.67001  1.0000
  H   H311      1.0  0.18875  0.03734  0.82798  1.0000
  S   S75       1.0  0.08268  0.20376  0.69813  1.0000
  H   H312      1.0  0.04869  0.22816  0.89565  1.0000
  H   H313      1.0  0.01967  0.22510  0.75228  1.0000
  H   H314      1.0  0.19930  0.16629  0.64923  1.0000
  C   C210      1.0  0.02982  0.16933  0.76033  1.0000
  H   H315      1.0  0.17274  0.98515  0.85721  1.0000
  H   H316      1.0  0.02857  0.00595  0.79806  1.0000
  C   C211      1.0  0.19300  0.14424  0.66591  1.0000
  H   H317      1.0  0.13531  0.00954  0.88730  1.0000
  H   H318      1.0  0.13237  0.00228  0.82589  1.0000
  H   H319      1.0  0.15956  0.23242  0.67718  1.0000
  C   C212      1.0  0.16976  0.16823  0.64673  1.0000
  N   N14       1.0  0.16071  0.00529  0.88012  1.0000
  C   C213      1.0  0.22787  0.17359  0.75119  1.0000
  N   N15       1.0  0.18793  0.13538  0.78696  1.0000
  C   C214      1.0  0.20203  0.12525  0.77831  1.0000
  C   C215      1.0  0.19150  0.15144  0.78356  1.0000
  C   C216      1.0  0.17389  0.13631  0.78054  1.0000
  C   C217      1.0  0.18552  0.12772  0.80423  1.0000
  C   C218      1.0  0.20004  0.10902  0.77782  1.0000
  C   C219      1.0  0.20529  0.15225  0.78998  1.0000
  C   C220      1.0  0.15983  0.15034  0.78257  1.0000
  C   C221      1.0  0.17270  0.13681  0.81565  1.0000
  H   H320      1.0  0.20548  0.13143  0.76586  1.0000
  H   H321      1.0  0.21248  0.12292  0.78345  1.0000
  H   H322      1.0  0.18126  0.16011  0.78830  1.0000
  H   H323      1.0  0.19411  0.15629  0.77061  1.0000
  H   H324      1.0  0.17748  0.13698  0.76761  1.0000
  H   H325      1.0  0.16918  0.12543  0.78573  1.0000
  H   H326      1.0  0.18235  0.11618  0.80639  1.0000
  H   H327      1.0  0.19668  0.12453  0.80842  1.0000
  H   H328      1.0  0.19708  0.10160  0.78972  1.0000
  H   H329      1.0  0.19120  0.11007  0.77100  1.0000
  H   H330      1.0  0.21144  0.10266  0.77172  1.0000
  H   H331      1.0  0.20664  0.16461  0.78693  1.0000
  H   H332      1.0  0.20323  0.14841  0.80297  1.0000
  H   H333      1.0  0.21662  0.14534  0.78456  1.0000
  H   H334      1.0  0.15530  0.15162  0.79487  1.0000
  H   H335      1.0  0.14997  0.14846  0.77872  1.0000
  H   H336      1.0  0.16279  0.16145  0.77490  1.0000
  H   H337      1.0  0.16122  0.13358  0.81758  1.0000
  H   H338      1.0  0.17124  0.14969  0.81199  1.0000
  H   H339      1.0  0.17615  0.13373  0.82716  1.0000
  C   C222      1.0  0.12768  0.16492  0.88768  1.0000
  C   C223      1.0  0.10336  0.15632  0.92105  1.0000
  H   H340      1.0  0.12584  0.17166  0.91625  1.0000
  H   H341      1.0  0.13312  0.16695  0.87490  1.0000
  H   H342      1.0  0.12613  0.17606  0.89125  1.0000
  H   H343      1.0  0.11610  0.16224  0.88895  1.0000
  H   H344      1.0  0.09376  0.15294  0.91816  1.0000
  H   H345      1.0  0.10469  0.16775  0.91307  1.0000
  H   H346      1.0  0.09884  0.15797  0.93333  1.0000
  N   N16       1.0  0.06817  0.11520  0.74332  1.0000
  C   C224      1.0  0.07194  0.11604  0.75827  1.0000
  C   C225      1.0  0.07785  0.12484  0.72973  1.0000
  C   C226      1.0  0.07268  0.09816  0.74203  1.0000
  C   C227      1.0  0.05075  0.12156  0.74434  1.0000
  C   C228      1.0  0.06474  0.10538  0.77358  1.0000
  C   C229      1.0  0.07526  0.14235  0.72992  1.0000
  C   C230      1.0  0.07859  0.09465  0.72538  1.0000
  C   C231      1.0  0.04453  0.12167  0.73014  1.0000
  H   H347      1.0  0.08495  0.11296  0.75727  1.0000
  H   H348      1.0  0.06779  0.12817  0.76037  1.0000
  H   H349      1.0  0.07574  0.12470  0.71828  1.0000
  H   H350      1.0  0.09065  0.11961  0.72915  1.0000
  H   H351      1.0  0.08233  0.09149  0.74818  1.0000
  H   H352      1.0  0.06276  0.09223  0.74812  1.0000
  H   H353      1.0  0.04382  0.11459  0.75462  1.0000
  H   H354      1.0  0.04718  0.13367  0.74643  1.0000
  H   H355      1.0  0.06826  0.09278  0.77315  1.0000
  H   H356      1.0  0.06911  0.10646  0.78347  1.0000
  H   H357      1.0  0.05172  0.10895  0.77672  1.0000
  H   H358      1.0  0.08234  0.14817  0.71884  1.0000
  H   H359      1.0  0.06287  0.14868  0.73019  1.0000
  H   H360      1.0  0.07941  0.14395  0.73967  1.0000
  H   H361      1.0  0.07062  0.10130  0.71735  1.0000
  H   H362      1.0  0.07965  0.08194  0.72631  1.0000
  H   H363      1.0  0.09055  0.09701  0.72003  1.0000
  H   H364      1.0  0.05026  0.12870  0.71904  1.0000
  H   H365      1.0  0.03172  0.12710  0.73216  1.0000
  H   H366      1.0  0.04570  0.10959  0.72884  1.0000
  N   N17       1.0  0.17249  0.06970  0.77057  1.0000
  C   C232      1.0  0.17060  0.08198  0.75564  1.0000
  C   C233      1.0  0.16075  0.07627  0.78390  1.0000
  C   C234      1.0  0.16811  0.05534  0.76915  1.0000
  C   C235      1.0  0.18929  0.06631  0.77221  1.0000
  C   C236      1.0  0.18177  0.07834  0.74014  1.0000
  C   C237      1.0  0.16457  0.08982  0.78841  1.0000
  C   C238      1.0  0.17011  0.04065  0.78252  1.0000
  C   C239      1.0  0.19290  0.05750  0.78855  1.0000
  H   H367      1.0  0.15837  0.08440  0.75391  1.0000
  H   H368      1.0  0.17242  0.09335  0.75631  1.0000
  H   H369      1.0  0.15901  0.06721  0.79482  1.0000
  H   H370      1.0  0.14880  0.08044  0.78121  1.0000
  H   H371      1.0  0.15560  0.05824  0.76801  1.0000
  H   H372      1.0  0.17529  0.05128  0.75836  1.0000
  H   H373      1.0  0.19714  0.05926  0.76360  1.0000
  H   H374      1.0  0.19350  0.07747  0.76899  1.0000
  H   H375      1.0  0.17961  0.08881  0.73050  1.0000
  H   H376      1.0  0.19435  0.07620  0.74044  1.0000
  H   H377      1.0  0.17948  0.06854  0.73667  1.0000
  H   H378      1.0  0.15435  0.09462  0.79712  1.0000
  H   H379      1.0  0.17479  0.08573  0.79408  1.0000
  H   H380      1.0  0.16652  0.09979  0.77843  1.0000
  H   H381      1.0  0.16382  0.04283  0.79429  1.0000
  H   H382      1.0  0.18268  0.03518  0.78242  1.0000
  H   H383      1.0  0.16499  0.03172  0.78059  1.0000
  H   H384      1.0  0.20105  0.04594  0.78779  1.0000
  H   H385      1.0  0.18253  0.05536  0.79804  1.0000
  H   H386      1.0  0.19904  0.06430  0.79246  1.0000
  C   C240      1.0  0.21347  0.12981  0.63739  1.0000
  H   H387      1.0  0.14943  0.99108  0.83304  1.0000
  H   H388      1.0  0.05479  0.20398  0.72785  1.0000
  H   H389      1.0  0.04859  0.22097  0.61154  1.0000
  H   H390      1.0  0.03338  0.15663  0.76020  1.0000
  H   H391      1.0  0.22133  0.13336  0.62583  1.0000
  H   H392      1.0  0.22259  0.12929  0.85643  1.0000
  H   H393      1.0  0.19572  0.11517  0.66226  1.0000
  H   H394      1.0  0.21922  0.12991  0.64665  1.0000
  C   C241      1.0  0.13852  0.15099  0.89635  1.0000
  S   S76       1.0  0.17763  0.18185  0.69076  1.0000
  H   H395      1.0  0.15062  0.15331  0.89229  1.0000
  H   H396      1.0  0.02716  0.20345  0.69893  1.0000
  H   H397      1.0  0.00352  0.20963  0.89697  1.0000
  C   C242      1.0  0.21973  0.17263  0.86094  1.0000
  H   H398      1.0  0.21267  0.11758  0.63830  1.0000
  S   S77       1.0  0.20564  0.10361  0.69413  1.0000
  C   C243      1.0  0.23208  0.11300  0.67392  1.0000
  C   C244      1.0  0.21848  0.21537  0.91116  1.0000
  C   C245      1.0  0.04353  0.17728  0.75054  1.0000
  H   H399      1.0  0.15743  0.17432  0.64596  1.0000
  C   C246      1.0  0.23852  0.16829  0.76121  1.0000
  H   H400      1.0  0.22407  0.16624  0.95970  1.0000
  C   C247      1.0  0.10504  0.98651  0.75672  1.0000
  S   S78       1.0  0.20579  0.02740  0.85327  1.0000
  H   H401      1.0  0.22397  0.07690  0.68150  1.0000
  C   C248      1.0  0.03679  0.99878  0.78987  1.0000
  C   C249      1.0  0.99439  0.19619  0.81240  1.0000
  C   C250      1.0  0.15080  0.00519  0.76926  1.0000
  H   H402      1.0  0.16513  0.14663  0.64536  1.0000
  C   C251      1.0  0.23224  0.15413  0.88175  1.0000
  H   H403      1.0  0.15659  0.99494  0.76375  1.0000
  S   S79       1.0  0.99888  0.14917  0.76722  1.0000
  H   H404      1.0  0.19923  0.15308  0.63276  1.0000
  H   H405      1.0  0.20891  0.20985  0.91823  1.0000
  C   C252      1.0  0.12471  0.99838  0.80010  1.0000
  C   C253      1.0  0.18441  0.12333  0.66017  1.0000
  S   S80       1.0  0.07236  0.20676  0.66486  1.0000
  C   C254      1.0  0.18842  0.01591  0.82223  1.0000
  H   H406      1.0  0.17712  0.17102  0.63476  1.0000
  H   H407      1.0  0.20865  0.16839  0.86674  1.0000
  N   N18       1.0  0.04779  0.02374  0.77565  1.0000
  C   C255      1.0  0.06290  0.02865  0.76626  1.0000
  C   C256      1.0  0.04238  0.03057  0.79017  1.0000
  C   C257      1.0  0.03509  0.02970  0.76632  1.0000
  C   C258      1.0  0.05089  0.00607  0.77981  1.0000
  C   C259      1.0  0.06942  0.02447  0.74994  1.0000
  C   C260      1.0  0.05198  0.02280  0.80303  1.0000
  C   C261      1.0  0.03116  0.04763  0.76002  1.0000
  C   C262      1.0  0.16050  0.01430  0.86347  1.0000
  H   H408      1.0  0.06165  0.04150  0.76447  1.0000
  H   H409      1.0  0.07246  0.02330  0.77284  1.0000
  H   H410      1.0  0.02981  0.03044  0.79575  1.0000
  H   H411      1.0  0.04274  0.04324  0.78704  1.0000
  H   H412      1.0  0.03804  0.02389  0.75623  1.0000
  H   H413      1.0  0.02386  0.02651  0.77362  1.0000
  C   C263      1.0  0.12729  0.22258  0.70273  1.0000
  H   H414      1.0  0.10102  0.99697  0.81356  1.0000
  H   H415      1.0  0.07305  0.01160  0.75079  1.0000
  H   H416      1.0  0.06111  0.02988  0.74198  1.0000
  H   H417      1.0  0.08022  0.02917  0.74422  1.0000
  H   H418      1.0  0.05039  0.01067  0.80870  1.0000
  H   H419      1.0  0.15111  0.98520  0.88163  1.0000
  H   H420      1.0  0.15174  0.00572  0.81547  1.0000
  H   H421      1.0  0.04140  0.05207  0.75192  1.0000
  H   H422      1.0  0.02641  0.05403  0.76973  1.0000
  H   H423      1.0  0.02182  0.05061  0.75324  1.0000
  C   C264      1.0  0.11819  0.14277  0.91993  1.0000
  S   S81       1.0  0.19997  0.13964  0.96809  1.0000
  H   H424      1.0  0.11743  0.13522  0.93200  1.0000
  H   H425      1.0  0.07371  0.18021  0.73473  1.0000
  C   C265      1.0  0.11422  0.20545  0.97727  1.0000
  C   C266      1.0  0.02355  0.22127  0.74093  1.0000
  C   C267      1.0  0.24054  0.13701  0.88782  1.0000
  N   N19       1.0  0.23393  0.15983  0.86417  1.0000
  C   C268      1.0  0.17401  0.02402  0.88643  1.0000
  C   C269      1.0  0.14640  0.13356  0.91995  1.0000
  H   H426      1.0  0.15474  0.11963  0.90153  1.0000
  H   H427      1.0  0.15697  0.10880  0.92060  1.0000
  H   H428      1.0  0.13007  0.17019  0.94102  1.0000
  H   H429      1.0  0.11562  0.98584  0.82432  1.0000
  C   C270      1.0  0.16233  0.98795  0.88165  1.0000
  H   H430      1.0  0.01628  0.19950  0.75055  1.0000
  H   H431      1.0  0.21654  0.16729  0.73640  1.0000
  H   H432      1.0  0.13391  0.21551  0.69377  1.0000
  S   S82       1.0  0.22093  0.09675  0.80948  1.0000
  S   S83       1.0  0.02031  0.22074  0.86031  1.0000
  H   H433      1.0  0.13755  0.19397  0.89796  1.0000
  H   H434      1.0  0.14502  0.20281  0.73316  1.0000
  H   H435      1.0  0.03672  0.20978  0.76663  1.0000
  C   C271      1.0  0.14399  0.00431  0.90832  1.0000
  H   H436      1.0  0.13779  0.11443  0.91637  1.0000
  C   C272      1.0  0.14534  0.19816  0.91655  1.0000
  S   S84       1.0  0.18615  0.98854  0.81675  1.0000
  S   S85       1.0  0.05433  0.17756  0.70360  1.0000
  H   H437      1.0  0.21961  0.15503  0.88780  1.0000
  H   H438      1.0  0.16471  0.19590  0.72440  1.0000
  C   C273      1.0  0.13418  0.19935  0.90800  1.0000
  H   H439      1.0  0.15878  0.21274  0.69785  1.0000
  H   H440      1.0  0.17395  0.12453  0.68500  1.0000
  C   C274      1.0  0.21978  0.14056  0.86026  1.0000
  H   H441      1.0  0.12285  0.22096  0.94218  1.0000
  H   H442      1.0  0.18534  0.17068  0.97386  1.0000
  C   C275      1.0  0.00173  0.18181  0.72467  1.0000
  S   S86       1.0  0.20978  0.14403  0.70121  1.0000
  C   C276      1.0  0.14547  0.01154  0.89058  1.0000
  C   C277      1.0  0.03628  0.22511  0.87987  1.0000
  H   H443      1.0  0.18569  0.00437  0.87584  1.0000
  H   H444      1.0  0.15998  0.12454  0.67397  1.0000
  H   H445      1.0  0.14333  0.02454  0.88885  1.0000
  C   C278      1.0  0.14130  0.20593  0.92894  1.0000
  H   H446      1.0  0.14242  0.00235  0.86219  1.0000
  S   S87       1.0  0.15560  0.20564  0.93872  1.0000
  H   H447      1.0  0.99886  0.20589  0.71189  1.0000
  C   C279      1.0  0.01236  0.16739  0.72733  1.0000
  C   C280      1.0  0.22027  0.19756  0.96354  1.0000
  H   H448      1.0  0.14945  0.19254  0.71738  1.0000
  C   C281      1.0  0.11874  0.20760  0.91237  1.0000
  H   H449      1.0  0.05415  0.16998  0.75479  1.0000
  C   C282      1.0  0.11644  0.21267  0.71536  1.0000
  C   C283      1.0  0.17045  0.15052  0.65298  1.0000
  H   H450      1.0  0.21070  0.14873  0.85403  1.0000
  H   H451      1.0  0.14727  0.21513  0.65241  1.0000
  H   H452      1.0  0.14753  0.22622  0.88383  1.0000
  H   H453      1.0  0.21991  0.17609  0.84809  1.0000
  S   S88       1.0  0.10479  0.20941  0.90159  1.0000
  H   H454      1.0  0.22235  0.18594  0.74854  1.0000
  H   H455      1.0  0.11150  0.98902  0.74465  1.0000
  H   H456      1.0  0.12318  0.00967  0.80353  1.0000
  C   C284      1.0  0.15362  0.21652  0.70919  1.0000
  H   H457      1.0  0.05915  0.19419  0.77529  1.0000
  H   H458      1.0  0.17370  0.10697  0.68000  1.0000
  C   C285      1.0  0.02314  0.19346  0.70702  1.0000
  C   C286      1.0  0.17223  0.11990  0.67567  1.0000
  C   C287      1.0  0.20257  0.15729  0.65948  1.0000
  C   C288      1.0  0.21773  0.18781  0.86655  1.0000
  H   H459      1.0  0.03360  0.22643  0.73337  1.0000
  H   H460      1.0  0.23997  0.15131  0.96577  1.0000
  H   H461      1.0  0.06096  0.00096  0.78569  1.0000
  H   H462      1.0  0.04574  0.17585  0.73824  1.0000
  Fe  Fe39      1.0  0.09147  0.21259  0.67246  1.0000
  H   H463      1.0  0.00824  0.15712  0.73465  1.0000
  H   H464      1.0  0.17281  0.17330  0.65501  1.0000
  C   C289      1.0  0.23203  0.14719  0.74734  1.0000
  H   H465      1.0  0.14773  0.01273  0.79051  1.0000
  H   H466      1.0  0.13773  0.02338  0.85642  1.0000
  C   C290      1.0  0.15149  0.00131  0.78675  1.0000
  H   H467      1.0  0.10707  0.22008  0.72270  1.0000
  H   H468      1.0  0.12057  0.00180  0.78892  1.0000
  C   C291      1.0  0.23182  0.20667  0.90277  1.0000
  C   C292      1.0  0.12596  0.21448  0.93304  1.0000
  H   H469      1.0  0.19146  0.13866  0.62989  1.0000
  H   H470      1.0  0.21540  0.15212  0.65695  1.0000
  H   H471      1.0  0.18120  0.02178  0.81370  1.0000
  C   C293      1.0  0.21772  0.23115  0.91075  1.0000
  C   C294      1.0  0.16043  0.18799  0.68301  1.0000
  C   C295      1.0  0.22397  0.10085  0.68074  1.0000
  H   H472      1.0  0.20326  0.21946  0.96643  1.0000
  C   C296      1.0  0.05541  0.20071  0.74051  1.0000
  H   H473      1.0  0.18338  0.14772  0.67583  1.0000
  S   S89       1.0  0.00736  0.22855  0.48075  1.0000
  H   H474      1.0  0.02580  0.19528  0.77370  1.0000
  C   C297      1.0  0.11461  0.21502  0.92501  1.0000
  H   H475      1.0  0.18106  0.11938  0.65117  1.0000
  N   N20       1.0  0.18643  0.14011  0.65430  1.0000
  H   H476      1.0  0.20571  0.19506  0.86613  1.0000
  C   C298      1.0  0.14749  0.01278  0.85629  1.0000
  H   H477      1.0  0.04329  0.18687  0.78997  1.0000
  C   C299      1.0  0.02303  0.23077  0.87316  1.0000
  H   H478      1.0  0.05480  0.00120  0.76902  1.0000
  H   H479      1.0  0.01806  0.22517  0.50886  1.0000
  H   H480      1.0  0.13250  0.01009  0.91483  1.0000
  C   C300      1.0  0.15285  0.20116  0.72174  1.0000
  C   C301      1.0  0.19274  0.02473  0.83026  1.0000
  H   H481      1.0  0.20106  0.13372  0.67129  1.0000
  H   H482      1.0  0.17677  0.99915  0.89593  1.0000
  H   H483      1.0  0.15255  0.01173  0.84388  1.0000
  N   N21       1.0  0.13843  0.22855  0.70822  1.0000
  C   C302      1.0  0.13050  0.23346  0.72363  1.0000
  H   H484      1.0  0.21908  0.18532  0.87884  1.0000
  Fe  Fe40      1.0  0.06250  0.19994  0.69087  1.0000
  Fe  Fe41      1.0  0.08741  0.23178  0.90530  1.0000
  H   H485      1.0  0.16217  0.14966  0.66468  1.0000
  C   C303      1.0  0.19714  0.14112  0.63816  1.0000
  H   H486      1.0  0.15719  0.01470  0.76278  1.0000
  H   H487      1.0  0.02899  0.20056  0.73165  1.0000
  H   H488      1.0  0.23758  0.15132  0.84306  1.0000
  H   H489      1.0  0.11913  0.23255  0.69671  1.0000
  C   C304      1.0  0.21327  0.21506  0.95728  1.0000
  H   H490      1.0  0.12286  0.20270  0.72296  1.0000
  H   H491      1.0  0.17204  0.01117  0.85548  1.0000
  C   C305      1.0  0.19289  0.99948  0.82572  1.0000
  Fe  Fe42      1.0  0.06844  0.22823  0.69784  1.0000
  H   H492      1.0  0.10268  0.22137  0.92853  1.0000
  H   H493      1.0  0.22614  0.19503  0.85872  1.0000
  H   H494      1.0  0.04495  0.21491  0.87679  1.0000
  H   H495      1.0  0.13857  0.00947  0.76758  1.0000
  H   H496      1.0  0.23997  0.13517  0.90059  1.0000
  H   H497      1.0  0.20894  0.21652  0.94651  1.0000
  H   H498      1.0  0.18521  0.02410  0.88919  1.0000
  S   S90       1.0  0.23352  0.18663  0.90412  1.0000
  H   H499      1.0  0.17307  0.03279  0.87533  1.0000
  H   H500      1.0  0.21475  0.13828  0.87306  1.0000
  H   H501      1.0  0.22167  0.22276  0.95457  1.0000
  H   H502      1.0  0.03010  0.99682  0.78224  1.0000
  H   H503      1.0  0.22850  0.09237  0.83957  1.0000
  H   H504      1.0  0.12691  0.22359  0.73308  1.0000
  S   S91       1.0  0.22944  0.13384  0.73787  1.0000
  C   C306      1.0  0.23123  0.10652  0.81602  1.0000
  C   C307      1.0  0.17470  0.00739  0.88470  1.0000
  C   C308      1.0  0.14716  0.98399  0.81285  1.0000
  H   H505      1.0  0.09863  0.22230  0.96203  1.0000
  H   H506      1.0  0.15169  0.23318  0.73143  1.0000
  H   H507      1.0  0.04122  0.98730  0.79738  1.0000
  C   C309      1.0  0.04184  0.23077  0.61688  1.0000
  C   C310      1.0  0.23693  0.16342  0.95871  1.0000
  H   H508      1.0  0.17179  0.23157  0.88802  1.0000
  H   H509      1.0  0.99599  0.20492  0.77313  1.0000
  H   H510      1.0  0.18230  0.22217  0.91224  1.0000
  H   H511      1.0  0.14414  0.99158  0.91104  1.0000
  H   H512      1.0  0.23595  0.12254  0.79367  1.0000
  Fe  Fe43      1.0  0.05862  0.23114  0.66726  1.0000
  H   H513      1.0  0.99624  0.20071  0.82140  1.0000
  H   H514      1.0  0.13053  0.22715  0.96194  1.0000
  H   H515      1.0  0.23735  0.17247  0.97805  1.0000
  H   H516      1.0  0.23453  0.12844  0.88659  1.0000
  C   C311      1.0  0.04543  0.23266  0.63032  1.0000
  C   C312      1.0  0.23774  0.11878  0.80557  1.0000
  N   N22       1.0  0.23771  0.19202  0.95785  1.0000
  C   C313      1.0  0.12141  0.23054  0.97226  1.0000
  H   H517      1.0  0.23809  0.20774  0.93493  1.0000
  N   N23       1.0  0.04338  0.41804  0.36826  1.0000
  S   S92       1.0  0.07488  0.26976  0.28133  1.0000
  C   C314      1.0  0.19029  0.46256  0.00968  1.0000
  C   C315      1.0  0.02100  0.27309  0.22517  1.0000
  H   H518      1.0  0.11364  0.35853  0.12129  1.0000
  H   H519      1.0  0.06546  0.28848  0.13392  1.0000
  H   H520      1.0  0.18711  0.24535  0.08301  1.0000
  C   C316      1.0  0.01846  0.27652  0.13094  1.0000
  H   H521      1.0  0.21878  0.46969  0.08424  1.0000
  C   C317      1.0  0.06153  0.24869  0.98845  1.0000
  C   C318      1.0  0.09407  0.28664  0.15813  1.0000
  Fe  Fe44      1.0  0.19971  0.41127  0.02930  1.0000
  S   S93       1.0  0.22124  0.42114  0.02151  1.0000
  H   H522      1.0  0.19916  0.44498  0.98890  1.0000
  Fe  Fe45      1.0  0.20492  0.39803  0.06251  1.0000
  S   S94       1.0  0.22678  0.40768  0.05728  1.0000
  S   S95       1.0  0.19867  0.38160  0.08606  1.0000
  Fe  Fe46      1.0  0.21297  0.42963  0.04409  1.0000
  Fe  Fe47      1.0  0.23287  0.39862  0.03519  1.0000
  C   C319      1.0  0.19624  0.40826  0.99491  1.0000
  S   S96       1.0  0.19055  0.42084  0.05123  1.0000
  S   S97       1.0  0.21199  0.38773  0.04112  1.0000
  Fe  Fe48      1.0  0.03501  0.28722  0.24867  1.0000
  S   S98       1.0  0.06084  0.28656  0.24070  1.0000
  H   H523      1.0  0.06820  0.27203  0.16140  1.0000
  Fe  Fe49      1.0  0.02937  0.31206  0.26830  1.0000
  S   S99       1.0  0.05486  0.31349  0.26148  1.0000
  S   S100      1.0  0.01041  0.32121  0.28806  1.0000
  Fe  Fe50      1.0  0.05349  0.31278  0.23709  1.0000
  S   S101      1.0  0.06292  0.32782  0.21367  1.0000
  Fe  Fe51      1.0  0.05980  0.28718  0.26552  1.0000
  H   H524      1.0  0.19935  0.45156  0.01202  1.0000
  S   S102      1.0  0.02737  0.31349  0.24361  1.0000
  S   S103      1.0  0.03451  0.28582  0.27374  1.0000
  Fe  Fe52      1.0  0.09906  0.26117  0.04568  1.0000
  H   H525      1.0  0.08115  0.25936  0.17338  1.0000
  S   S104      1.0  0.10935  0.28102  0.04604  1.0000
  H   H526      1.0  0.04415  0.37977  0.39184  1.0000
  H   H527      1.0  0.03525  0.30391  0.12070  1.0000
  H   H528      1.0  0.22328  0.30694  0.09231  1.0000
  H   H529      1.0  0.02980  0.29157  0.34247  1.0000
  C   C320      1.0  0.01318  0.28433  0.45812  1.0000
  C   C321      1.0  0.00178  0.41614  0.41054  1.0000
  S   S105      1.0  0.07342  0.26042  0.05380  1.0000
  S   S106      1.0  0.10281  0.25109  0.02454  1.0000
  Fe  Fe53      1.0  0.13901  0.32521  0.11242  1.0000
  S   S107      1.0  0.14092  0.30637  0.09993  1.0000
  S   S108      1.0  0.14146  0.34921  0.09734  1.0000
  Fe  Fe54      1.0  0.13222  0.30400  0.14467  1.0000
  S   S109      1.0  0.13416  0.28325  0.13483  1.0000
  S   S110      1.0  0.12778  0.30032  0.17111  1.0000
  Fe  Fe55      1.0  0.15497  0.29075  0.11737  1.0000
  S   S111      1.0  0.17574  0.27322  0.10768  1.0000
  Fe  Fe56      1.0  0.11991  0.30033  0.11824  1.0000
  S   S112      1.0  0.10067  0.29121  0.11461  1.0000
  S   S113      1.0  0.15472  0.31001  0.12859  1.0000
  S   S114      1.0  0.11636  0.32072  0.12935  1.0000
  C   C322      1.0  0.06695  0.25297  0.28716  1.0000
  H   H530      1.0  0.15811  0.26962  0.08642  1.0000
  S   S115      1.0  0.10742  0.23803  0.06076  1.0000
  H   H531      1.0  0.19253  0.47060  0.01564  1.0000
  H   H532      1.0  0.22969  0.28350  0.08132  1.0000
  C   C323      1.0  0.14263  0.24859  0.06629  1.0000
  H   H533      1.0  0.06980  0.26788  0.12271  1.0000
  H   H534      1.0  0.11158  0.35158  0.18878  1.0000
  C   C324      1.0  0.19264  0.26962  0.11509  1.0000
  C   C325      1.0  0.20675  0.26121  0.10748  1.0000
  C   C326      1.0  0.22076  0.25920  0.11223  1.0000
  C   C327      1.0  0.22073  0.26531  0.12482  1.0000
  C   C328      1.0  0.20653  0.27343  0.13272  1.0000
  C   C329      1.0  0.19247  0.27564  0.12781  1.0000
  C   C330      1.0  0.00323  0.33492  0.31325  1.0000
  Fe  Fe57      1.0  0.99968  0.35869  0.38300  1.0000
  H   H535      1.0  0.20644  0.27814  0.14249  1.0000
  H   H536      1.0  0.18157  0.28201  0.13384  1.0000
  C   C331      1.0  0.10726  0.28359  0.06512  1.0000
  C   C332      1.0  0.11270  0.29576  0.06721  1.0000
  C   C333      1.0  0.11094  0.29805  0.08238  1.0000
  C   C334      1.0  0.10374  0.28814  0.09554  1.0000
  C   C335      1.0  0.09858  0.27580  0.09346  1.0000
  C   C336      1.0  0.10027  0.27356  0.07831  1.0000
  H   H537      1.0  0.11810  0.30357  0.05705  1.0000
  H   H538      1.0  0.11485  0.30768  0.08386  1.0000
  H   H539      1.0  0.09332  0.26787  0.10356  1.0000
  H   H540      1.0  0.09606  0.26412  0.07684  1.0000
  H   H541      1.0  0.10280  0.28321  0.16565  1.0000
  C   C337      1.0  0.14228  0.25331  0.09165  1.0000
  H   H542      1.0  0.00389  0.27902  0.46710  1.0000
  C   C338      1.0  0.08059  0.31949  0.20183  1.0000
  C   C339      1.0  0.08376  0.32550  0.18551  1.0000
  C   C340      1.0  0.09788  0.31921  0.17584  1.0000
  C   C341      1.0  0.10917  0.30726  0.18252  1.0000
  C   C342      1.0  0.10600  0.30126  0.19882  1.0000
  C   C343      1.0  0.09168  0.30719  0.20843  1.0000
  H   H543      1.0  0.07520  0.33501  0.18035  1.0000
  H   H544      1.0  0.10015  0.32388  0.16329  1.0000
  H   H545      1.0  0.11473  0.29208  0.20409  1.0000
  H   H546      1.0  0.08942  0.30258  0.22100  1.0000
  C   C344      1.0  0.01323  0.33362  0.29854  1.0000
  H   H547      1.0  0.00163  0.32350  0.45913  1.0000
  N   N24       1.0  0.04697  0.28046  0.11740  1.0000
  H   H548      1.0  0.21495  0.45130  0.07037  1.0000
  H   H549      1.0  0.05624  0.31379  0.18504  1.0000
  H   H550      1.0  0.03592  0.28997  0.13849  1.0000
  C   C345      1.0  0.01343  0.27915  0.19568  1.0000
  H   H551      1.0  0.99974  0.28793  0.42027  1.0000
  C   C346      1.0  0.05782  0.26589  0.12433  1.0000
  H   H552      1.0  0.06093  0.29518  0.30366  1.0000
  H   H553      1.0  0.02531  0.25967  0.46266  1.0000
  H   H554      1.0  0.12462  0.33415  0.16241  1.0000
  C   C347      1.0  0.05536  0.28676  0.10088  1.0000
  C   C348      1.0  0.01765  0.28854  0.21659  1.0000
  C   C349      1.0  0.16930  0.38460  0.98378  1.0000
  H   H555      1.0  0.01858  0.25759  0.33904  1.0000
  S   S116      1.0  0.00954  0.28280  0.17688  1.0000
  H   H556      1.0  0.01791  0.29814  0.22134  1.0000
  H   H557      1.0  0.16464  0.37596  0.99413  1.0000
  H   H558      1.0  0.10438  0.35298  0.14140  1.0000
  S   S117      1.0  0.00329  0.24117  0.12922  1.0000
  H   H559      1.0  0.21250  0.34743  0.06224  1.0000
  C   C350      1.0  0.08119  0.26101  0.99046  1.0000
  S   S118      1.0  0.99187  0.46273  0.45385  1.0000
  H   H560      1.0  0.08649  0.26515  0.99743  1.0000
  C   C351      1.0  0.18300  0.37236  0.08895  1.0000
  C   C352      1.0  0.17303  0.37714  0.07838  1.0000
  C   C353      1.0  0.16042  0.36984  0.08108  1.0000
  C   C354      1.0  0.15789  0.35747  0.09413  1.0000
  C   C355      1.0  0.16807  0.35245  0.10454  1.0000
  C   C356      1.0  0.18048  0.36000  0.10205  1.0000
  H   H561      1.0  0.17485  0.38666  0.06827  1.0000
  H   H562      1.0  0.15255  0.37383  0.07302  1.0000
  H   H563      1.0  0.16627  0.34289  0.11455  1.0000
  H   H564      1.0  0.18819  0.35626  0.11024  1.0000
  H   H565      1.0  0.03324  0.36169  0.29475  1.0000
  S   S119      1.0  0.21329  0.45556  0.03753  1.0000
  C   C357      1.0  0.02723  0.24120  0.10297  1.0000
  H   H566      1.0  0.99689  0.27668  0.33218  1.0000
  C   C358      1.0  0.20893  0.39550  0.99678  1.0000
  C   C359      1.0  0.05310  0.29001  0.18625  1.0000
  H   H567      1.0  0.09126  0.26963  0.18825  1.0000
  C   C360      1.0  0.03211  0.27664  0.11631  1.0000
  C   C361      1.0  0.12172  0.34372  0.18265  1.0000
  H   H568      1.0  0.05269  0.30702  0.13605  1.0000
  C   C362      1.0  0.99552  0.30033  0.41993  1.0000
  H   H569      1.0  0.01438  0.42768  0.35487  1.0000
  H   H570      1.0  0.99278  0.36324  0.28951  1.0000
  H   H571      1.0  0.23160  0.25310  0.10592  1.0000
  H   H572      1.0  0.12409  0.38257  0.14309  1.0000
  C   C363      1.0  0.05230  0.25815  0.14172  1.0000
  H   H573      1.0  0.04697  0.44427  0.38029  1.0000
  C   C364      1.0  0.02492  0.35414  0.30000  1.0000
  H   H574      1.0  0.10803  0.34922  0.16541  1.0000
  H   H575      1.0  0.10685  0.37300  0.13282  1.0000
  H   H576      1.0  0.13707  0.38295  0.16298  1.0000
  H   H577      1.0  0.16810  0.33664  0.15446  1.0000
  H   H578      1.0  0.15256  0.36264  0.14375  1.0000
  H   H579      1.0  0.10815  0.37561  0.15729  1.0000
  H   H580      1.0  0.11682  0.39228  0.16770  1.0000
  H   H581      1.0  0.13282  0.34533  0.18414  1.0000
  S   S120      1.0  0.06140  0.25036  0.01833  1.0000
  H   H582      1.0  0.02199  0.26881  0.14171  1.0000
  C   C365      1.0  0.05665  0.25859  0.18231  1.0000
  H   H583      1.0  0.02920  0.40717  0.38997  1.0000
  H   H584      1.0  0.01257  0.26449  0.31190  1.0000
  N   N25       1.0  0.06970  0.28161  0.18032  1.0000
  H   H585      1.0  0.07600  0.25288  0.20685  1.0000
  S   S121      1.0  0.18561  0.41703  0.01078  1.0000
  C   C366      1.0  0.21753  0.47373  0.07216  1.0000
  H   H586      1.0  0.10018  0.24030  0.25376  1.0000
  H   H587      1.0  0.03335  0.25940  0.30352  1.0000
  H   H588      1.0  0.01651  0.25406  0.19964  1.0000
  C   C367      1.0  0.04930  0.29543  0.31199  1.0000
  C   C368      1.0  0.05901  0.27618  0.08899  1.0000
  C   C369      1.0  0.04138  0.40500  0.38277  1.0000
  C   C370      1.0  0.00040  0.43203  0.41022  1.0000
  C   C371      1.0  0.02410  0.25746  0.31432  1.0000
  H   H589      1.0  0.16445  0.46955  0.01759  1.0000
  H   H590      1.0  0.14127  0.24370  0.04459  1.0000
  H   H591      1.0  0.06002  0.25652  0.11776  1.0000
  H   H592      1.0  0.06484  0.28233  0.07732  1.0000
  H   H593      1.0  0.00922  0.28725  0.44686  1.0000
  H   H594      1.0  0.05504  0.27002  0.31764  1.0000
  H   H595      1.0  0.09461  0.27673  0.15294  1.0000
  H   H596      1.0  0.05933  0.24774  0.17777  1.0000
  C   C372      1.0  0.02793  0.26075  0.32855  1.0000
  H   H597      1.0  0.21223  0.39101  0.00802  1.0000
  H   H598      1.0  0.05687  0.30033  0.20400  1.0000
  H   H599      1.0  0.02044  0.27567  0.35180  1.0000
  H   H600      1.0  0.14492  0.24782  0.10349  1.0000
  H   H601      1.0  0.02029  0.43197  0.37635  1.0000
  N   N26       1.0  0.20349  0.31056  0.08145  1.0000
  H   H602      1.0  0.01261  0.24093  0.25523  1.0000
  C   C373      1.0  0.18583  0.31578  0.08618  1.0000
  C   C374      1.0  0.07927  0.27621  0.19281  1.0000
  C   C375      1.0  0.21081  0.32294  0.06897  1.0000
  Fe  Fe58      1.0  0.07796  0.24794  0.03401  1.0000
  C   C376      1.0  0.17677  0.32024  0.07290  1.0000
  C   C377      1.0  0.21712  0.38823  0.98420  1.0000
  C   C378      1.0  0.20664  0.33945  0.07246  1.0000
  H   H603      1.0  0.20028  0.32739  0.10556  1.0000
  H   H604      1.0  0.22520  0.27707  0.06657  1.0000
  H   H605      1.0  0.18242  0.32613  0.09159  1.0000
  H   H606      1.0  0.18086  0.30638  0.09545  1.0000
  C   C379      1.0  0.14569  0.26988  0.08686  1.0000
  H   H607      1.0  0.21710  0.46179  0.98280  1.0000
  H   H608      1.0  0.04625  0.24177  0.08232  1.0000
  H   H609      1.0  0.20761  0.32431  0.05758  1.0000
  S   S122      1.0  0.99182  0.35125  0.36535  1.0000
  H   H610      1.0  0.19112  0.31096  0.11558  1.0000
  N   N27       1.0  0.19203  0.46897  0.99219  1.0000
  H   H611      1.0  0.18118  0.32927  0.06287  1.0000
  H   H612      1.0  0.17680  0.30977  0.06881  1.0000
  H   H613      1.0  0.16425  0.32542  0.07756  1.0000
  H   H614      1.0  0.00613  0.24653  0.28156  1.0000
  Fe  Fe59      1.0  0.00316  0.24338  0.42330  1.0000
  H   H615      1.0  0.13829  0.23809  0.98076  1.0000
  H   H616      1.0  0.19385  0.34463  0.07406  1.0000
  H   H617      1.0  0.20275  0.29919  0.06350  1.0000
  C   C380      1.0  0.20814  0.47266  0.98491  1.0000
  C   C381      1.0  0.99988  0.32690  0.41040  1.0000
  H   H618      1.0  0.16398  0.39640  0.98652  1.0000
  H   H619      1.0  0.17147  0.44934  0.01530  1.0000
  H   H620      1.0  0.04226  0.42421  0.34365  1.0000
  H   H621      1.0  0.20027  0.28738  0.08280  1.0000
  H   H622      1.0  0.03789  0.27213  0.46123  1.0000
  H   H623      1.0  0.22388  0.31932  0.06655  1.0000
  C   C382      1.0  0.99287  0.44360  0.39927  1.0000
  H   H624      1.0  0.23156  0.29512  0.06137  1.0000
  H   H625      1.0  0.13831  0.27651  0.09593  1.0000
  H   H626      1.0  0.05607  0.38446  0.37265  1.0000
  H   H627      1.0  0.06100  0.43091  0.35355  1.0000
  Fe  Fe60      1.0  0.00001  0.26293  0.17549  1.0000
  H   H628      1.0  0.12968  0.24973  0.07030  1.0000
  C   C383      1.0  0.03273  0.43321  0.37204  1.0000
  C   C384      1.0  0.05256  0.23685  0.28178  1.0000
  C   C385      1.0  0.06005  0.42041  0.36340  1.0000
  S   S123      1.0  0.00903  0.43683  0.42307  1.0000
  H   H629      1.0  0.16933  0.25506  0.06669  1.0000
  C   C386      1.0  0.06746  0.24299  0.30198  1.0000
  H   H630      1.0  0.08431  0.41064  0.35343  1.0000
  C   C387      1.0  0.04313  0.23869  0.09504  1.0000
  H   H631      1.0  0.01662  0.40873  0.36820  1.0000
  H   H632      1.0  0.17124  0.35376  0.98524  1.0000
  S   S124      1.0  0.02047  0.47537  0.42655  1.0000
  C   C388      1.0  0.04450  0.38815  0.38025  1.0000
  Fe  Fe61      1.0  0.00044  0.37173  0.34823  1.0000
  H   H633      1.0  0.03986  0.29609  0.45610  1.0000
  H   H634      1.0  0.03480  0.26501  0.11319  1.0000
  H   H635      1.0  0.15718  0.33464  0.14186  1.0000
  H   H636      1.0  0.20696  0.25662  0.09758  1.0000
  C   C389      1.0  0.02430  0.34306  0.29205  1.0000
  H   H637      1.0  0.06735  0.26493  0.09220  1.0000
  H   H638      1.0  0.14797  0.35702  0.16440  1.0000
  H   H639      1.0  0.02639  0.44898  0.38815  1.0000
  H   H640      1.0  0.12121  0.33139  0.18887  1.0000
  C   C390      1.0  0.02153  0.41547  0.35651  1.0000
  C   C391      1.0  0.00395  0.34587  0.32125  1.0000
  N   N28       1.0  0.02991  0.27717  0.32681  1.0000
  C   C392      1.0  0.04481  0.27951  0.31476  1.0000
  C   C393      1.0  0.17755  0.23873  0.08695  1.0000
  H   H641      1.0  0.06278  0.25160  0.14669  1.0000
  C   C394      1.0  0.01630  0.28935  0.32133  1.0000
  H   H642      1.0  0.03287  0.44283  0.36127  1.0000
  H   H643      1.0  0.03738  0.43006  0.39562  1.0000
  H   H644      1.0  0.07087  0.40235  0.34894  1.0000
  H   H645      1.0  0.17887  0.45337  0.98959  1.0000
  H   H646      1.0  0.03885  0.25196  0.33074  1.0000
  C   C395      1.0  0.01389  0.29157  0.20181  1.0000
  H   H647      1.0  0.04839  0.29834  0.09577  1.0000
  Fe  Fe62      1.0  0.99882  0.24244  0.15465  1.0000
  H   H648      1.0  0.00761  0.40712  0.41897  1.0000
  C   C396      1.0  0.03629  0.43926  0.38476  1.0000
  H   H649      1.0  0.01748  0.30135  0.32089  1.0000
  H   H650      1.0  0.99594  0.34700  0.33241  1.0000
  H   H651      1.0  0.04674  0.25643  0.35005  1.0000
  C   C397      1.0  0.17411  0.45897  0.01877  1.0000
  H   H652      1.0  0.01810  0.24628  0.09632  1.0000
  C   C398      1.0  0.05710  0.29843  0.12832  1.0000
  H   H653      1.0  0.20995  0.31088  0.11813  1.0000
  H   H654      1.0  0.99188  0.45587  0.39879  1.0000
  Fe  Fe63      1.0  0.00289  0.46107  0.42873  1.0000
  S   S125      1.0  0.01840  0.24321  0.39883  1.0000
  H   H655      1.0  0.06348  0.30449  0.11695  1.0000
  C   C399      1.0  0.07305  0.40662  0.35831  1.0000
  H   H656      1.0  0.06686  0.28896  0.10081  1.0000
  H   H657      1.0  0.04576  0.26655  0.14931  1.0000
  H   H658      1.0  0.13382  0.34353  0.13571  1.0000
  H   H659      1.0  0.03521  0.38663  0.37537  1.0000
  H   H660      1.0  0.06993  0.29851  0.15806  1.0000
  H   H661      1.0  0.04898  0.40474  0.39068  1.0000
  H   H662      1.0  0.00348  0.35622  0.26463  1.0000
  H   H663      1.0  0.13635  0.36306  0.12758  1.0000
  H   H664      1.0  0.14411  0.26066  0.05999  1.0000
  S   S126      1.0  0.01029  0.37791  0.36548  1.0000
  C   C400      1.0  0.02046  0.26071  0.21904  1.0000
  S   S127      1.0  0.00556  0.25731  0.43926  1.0000
  H   H665      1.0  0.12340  0.37311  0.17867  1.0000
  H   H666      1.0  0.15087  0.32875  0.16300  1.0000
  H   H667      1.0  0.07842  0.30311  0.17122  1.0000
  C   C401      1.0  0.20244  0.31448  0.10934  1.0000
  H   H668      1.0  0.07807  0.26591  0.21764  1.0000
  H   H669      1.0  0.01296  0.28854  0.13299  1.0000
  H   H670      1.0  0.05632  0.27291  0.34158  1.0000
  C   C402      1.0  0.01467  0.35568  0.31457  1.0000
  C   C403      1.0  0.14843  0.23855  0.05371  1.0000
  H   H671      1.0  0.14262  0.27650  0.07547  1.0000
  H   H672      1.0  0.00093  0.31402  0.44470  1.0000
  H   H673      1.0  0.04415  0.30959  0.42958  1.0000
  H   H674      1.0  0.05166  0.24309  0.99398  1.0000
  H   H675      1.0  0.04827  0.27377  0.08735  1.0000
  H   H676      1.0  0.05559  0.25495  0.19518  1.0000
  C   C404      1.0  0.01663  0.26373  0.20437  1.0000
  S   S128      1.0  0.01488  0.37060  0.32357  1.0000
  C   C405      1.0  0.07734  0.29318  0.16698  1.0000
  C   C406      1.0  0.04541  0.26919  0.34891  1.0000
  H   H677      1.0  0.16766  0.47998  0.99076  1.0000
  H   H678      1.0  0.01133  0.30352  0.19516  1.0000
  H   H679      1.0  0.04086  0.30528  0.30634  1.0000
  H   H680      1.0  0.04508  0.26549  0.17977  1.0000
  H   H681      1.0  0.02322  0.24874  0.22555  1.0000
  C   C407      1.0  0.21497  0.47997  0.99432  1.0000
  C   C408      1.0  0.16770  0.24339  0.07422  1.0000
  C   C409      1.0  0.00539  0.31073  0.41137  1.0000
  H   H682      1.0  0.07505  0.39686  0.36857  1.0000
  H   H683      1.0  0.04394  0.27859  0.30310  1.0000
  C   C410      1.0  0.06853  0.25367  0.99772  1.0000
  H   H684      1.0  0.06352  0.42286  0.37320  1.0000
  S   S129      1.0  0.23850  0.26331  0.13022  1.0000
  N   N29       1.0  0.12934  0.35756  0.15312  1.0000
  C   C411      1.0  0.12886  0.35585  0.13713  1.0000
  C   C412      1.0  0.14645  0.35451  0.15369  1.0000
  C   C413      1.0  0.12118  0.37422  0.15454  1.0000
  C   C414      1.0  0.12081  0.34593  0.16539  1.0000
  C   C415      1.0  0.11239  0.36041  0.13321  1.0000
  C   C416      1.0  0.15597  0.33762  0.15322  1.0000
  C   C417      1.0  0.12497  0.38074  0.16677  1.0000
  H   H685      1.0  0.04503  0.24971  0.14280  1.0000
  H   H686      1.0  0.21097  0.33952  0.08271  1.0000
  H   H687      1.0  0.05927  0.25733  0.26557  1.0000
  H   H688      1.0  0.22657  0.37807  0.98592  1.0000
  N   N30       1.0  0.01429  0.29909  0.46196  1.0000
  H   H689      1.0  0.03025  0.29850  0.43057  1.0000
  C   C418      1.0  0.22437  0.28770  0.07085  1.0000
  C   C419      1.0  0.04297  0.29326  0.12644  1.0000
  S   S130      1.0  0.01232  0.33984  0.39991  1.0000
  H   H690      1.0  0.00912  0.27205  0.12887  1.0000
  H   H691      1.0  0.05999  0.26877  0.21260  1.0000
  H   H692      1.0  0.03879  0.30892  0.19785  1.0000
  C   C420      1.0  0.06963  0.26795  0.17381  1.0000
  S   S131      1.0  0.01641  0.24136  0.16845  1.0000
  H   H693      1.0  0.02408  0.31930  0.43038  1.0000
  C   C421      1.0  0.02833  0.27122  0.45642  1.0000
  H   H694      1.0  0.09785  0.29609  0.14817  1.0000
  H   H695      1.0  0.05046  0.29787  0.32289  1.0000
  C   C422      1.0  0.02922  0.30458  0.45298  1.0000
  H   H696      1.0  0.02008  0.41019  0.34743  1.0000
  H   H697      1.0  0.02697  0.28525  0.10663  1.0000
  C   C423      1.0  0.21075  0.30591  0.09573  1.0000
  H   H698      1.0  0.21114  0.29331  0.10137  1.0000
  H   H699      1.0  0.03203  0.34220  0.28069  1.0000
  H   H700      1.0  0.04635  0.28199  0.19537  1.0000
  H   H701      1.0  0.03301  0.27047  0.44388  1.0000
  C   C424      1.0  0.07284  0.26524  0.20817  1.0000
  H   H702      1.0  0.08165  0.28629  0.19586  1.0000
  C   C425      1.0  0.05958  0.24980  0.27708  1.0000
  C   C426      1.0  0.05146  0.30400  0.19361  1.0000
  C   C427      1.0  0.03907  0.41521  0.35447  1.0000
  H   H703      1.0  0.17427  0.45490  0.03148  1.0000
  C   C428      1.0  0.21416  0.46840  0.04860  1.0000
  H   H704      1.0  0.04693  0.23453  0.27382  1.0000
  H   H705      1.0  0.01628  0.28933  0.30905  1.0000
  H   H706      1.0  0.01721  0.30627  0.40528  1.0000
  S   S132      1.0  0.02595  0.26881  0.24354  1.0000
  H   H707      1.0  0.04582  0.40379  0.35152  1.0000
  C   C429      1.0  0.03069  0.27904  0.34260  1.0000
  C   C430      1.0  0.21537  0.46331  0.06434  1.0000
  H   H708      1.0  0.04651  0.29435  0.17661  1.0000
  H   H709      1.0  0.02353  0.24490  0.31687  1.0000
  H   H710      1.0  0.04416  0.27095  0.36090  1.0000
  H   H711      1.0  0.02949  0.31548  0.45624  1.0000
  C   C431      1.0  0.20688  0.29621  0.07466  1.0000
  H   H712      1.0  0.12927  0.25503  0.09368  1.0000
  C   C432      1.0  0.03189  0.30811  0.43489  1.0000
  H   H713      1.0  0.21886  0.47111  0.00446  1.0000
  H   H714      1.0  0.18217  0.38284  0.98241  1.0000
  H   H715      1.0  0.07314  0.24541  0.30982  1.0000
  C   C433      1.0  0.99583  0.41181  0.39991  1.0000
  C   C434      1.0  0.19075  0.45616  0.98520  1.0000
  C   C435      1.0  0.99981  0.28794  0.33159  1.0000
  H   H716      1.0  0.99706  0.39953  0.40020  1.0000
  H   H717      1.0  0.11787  0.24787  0.98668  1.0000
  C   C436      1.0  0.17927  0.48318  0.98828  1.0000
  S   S133      1.0  0.02181  0.47418  0.46991  1.0000
  H   H718      1.0  0.99286  0.24066  0.26500  1.0000
  H   H719      1.0  0.99852  0.28937  0.34367  1.0000
  H   H720      1.0  0.17077  0.24171  0.09832  1.0000
  C   C437      1.0  0.00070  0.31211  0.45741  1.0000
  C   C438      1.0  0.19199  0.41398  0.98030  1.0000
  Fe  Fe64      1.0  0.00796  0.47860  0.45110  1.0000
  H   H721      1.0  0.99502  0.24461  0.23693  1.0000
  N   N31       1.0  0.15054  0.24285  0.08009  1.0000
  H   H722      1.0  0.99463  0.32766  0.31834  1.0000
  H   H723      1.0  0.23735  0.35876  0.06351  1.0000
  H   H724      1.0  0.03104  0.23514  0.36863  1.0000
  Fe  Fe65      1.0  0.08207  0.23653  0.06792  1.0000
  C   C439      1.0  0.02316  0.23733  0.11947  1.0000
  Fe  Fe66      1.0  0.99716  0.23826  0.45903  1.0000
  H   H725      1.0  0.16084  0.23853  0.04755  1.0000
  H   H726      1.0  0.17365  0.23516  0.06618  1.0000
  C   C440      1.0  0.01296  0.29702  0.47935  1.0000
  C   C441      1.0  0.00864  0.23412  0.28049  1.0000
  H   H727      1.0  0.09673  0.26884  0.96859  1.0000
  C   C442      1.0  0.03456  0.34706  0.69207  1.0000
  S   S134      1.0  0.03043  0.44521  0.58175  1.0000
  H   H728      1.0  0.13916  0.28730  0.79103  1.0000
  H   H729      1.0  0.00167  0.29382  0.48625  1.0000
  H   H730      1.0  0.07331  0.33867  0.67434  1.0000
  Fe  Fe67      1.0  0.21532  0.39681  0.93150  1.0000
  S   S135      1.0  0.22329  0.38457  0.95404  1.0000
  Fe  Fe68      1.0  0.22842  0.40707  0.89685  1.0000
  S   S136      1.0  0.20459  0.41653  0.89070  1.0000
  H   H731      1.0  0.09105  0.28844  0.83339  1.0000
  Fe  Fe69      1.0  0.19863  0.39436  0.90737  1.0000
  S   S137      1.0  0.18591  0.37668  0.90580  1.0000
  S   S138      1.0  0.22266  0.41890  0.91704  1.0000
  S   S139      1.0  0.22300  0.38430  0.91172  1.0000
  Fe  Fe70      1.0  0.05478  0.25209  0.90966  1.0000
  S   S140      1.0  0.06288  0.27285  0.91129  1.0000
  S   S141      1.0  0.09814  0.25096  0.90573  1.0000
  C   C443      1.0  0.02976  0.24157  0.61015  1.0000
  C   C444      1.0  0.03656  0.29478  0.83804  1.0000
  Fe  Fe71      1.0  0.07846  0.25511  0.92651  1.0000
  S   S142      1.0  0.08873  0.25978  0.94458  1.0000
  Fe  Fe72      1.0  0.08191  0.26692  0.89072  1.0000
  S   S143      1.0  0.08940  0.28497  0.86921  1.0000
  H   H732      1.0  0.06206  0.24662  0.96504  1.0000
  H   H733      1.0  0.17342  0.36232  0.94076  1.0000
  Fe  Fe73      1.0  0.16648  0.35287  0.83864  1.0000
  S   S144      1.0  0.17866  0.32896  0.84946  1.0000
  S   S145      1.0  0.17110  0.37508  0.84161  1.0000
  Fe  Fe74      1.0  0.14908  0.33968  0.82213  1.0000
  S   S146      1.0  0.16033  0.31467  0.83149  1.0000
  S   S147      1.0  0.12832  0.34666  0.81039  1.0000
  Fe  Fe75      1.0  0.15553  0.32234  0.85415  1.0000
  S   S148      1.0  0.14589  0.30765  0.87727  1.0000
  Fe  Fe76      1.0  0.18247  0.32359  0.82583  1.0000
  S   S149      1.0  0.20601  0.30937  0.81612  1.0000
  S   S150      1.0  0.14281  0.34674  0.84542  1.0000
  S   S151      1.0  0.17180  0.34805  0.81438  1.0000
  H   H734      1.0  0.11293  0.30871  0.79425  1.0000
  C   C445      1.0  0.08842  0.31184  0.81993  1.0000
  C   C446      1.0  0.16736  0.37198  0.94701  1.0000
  C   C447      1.0  0.04368  0.27113  0.85789  1.0000
  H   H735      1.0  0.22128  0.25441  0.85853  1.0000
  H   H736      1.0  0.05859  0.27677  0.62720  1.0000
  H   H737      1.0  0.05401  0.27949  0.87973  1.0000
  Fe  Fe77      1.0  0.99365  0.26835  0.55151  1.0000
  H   H738      1.0  0.20557  0.46202  0.96130  1.0000
  C   C448      1.0  0.13745  0.25070  0.90812  1.0000
  H   H739      1.0  0.19330  0.37884  0.95560  1.0000
  H   H740      1.0  0.04931  0.29600  0.56253  1.0000
  H   H741      1.0  0.06254  0.38609  0.61515  1.0000
  H   H742      1.0  0.19309  0.44912  0.96341  1.0000
  H   H743      1.0  0.01192  0.26266  0.61197  1.0000
  Fe  Fe78      1.0  0.10751  0.31924  0.74584  1.0000
  S   S152      1.0  0.08272  0.32295  0.76024  1.0000
  S   S153      1.0  0.12784  0.32802  0.74791  1.0000
  Fe  Fe79      1.0  0.10202  0.29607  0.73011  1.0000
  S   S154      1.0  0.07711  0.29750  0.74361  1.0000
  S   S155      1.0  0.11192  0.28077  0.71235  1.0000
  Fe  Fe80      1.0  0.07559  0.32340  0.73801  1.0000
  S   S156      1.0  0.05281  0.33755  0.73083  1.0000
  Fe  Fe81      1.0  0.08648  0.29682  0.76424  1.0000
  S   S157      1.0  0.08073  0.28071  0.78774  1.0000
  S   S158      1.0  0.10013  0.32213  0.72313  1.0000
  S   S159      1.0  0.11160  0.29295  0.75128  1.0000
  H   H744      1.0  0.01845  0.26459  0.77962  1.0000
  H   H745      1.0  0.14329  0.26129  0.92458  1.0000
  C   C449      1.0  0.06289  0.34029  0.68362  1.0000
  C   C450      1.0  0.06451  0.33775  0.69918  1.0000
  C   C451      1.0  0.05116  0.34008  0.71124  1.0000
  C   C452      1.0  0.03619  0.34475  0.70762  1.0000
  S   S160      1.0  0.04658  0.34818  0.66025  1.0000
  H   H746      1.0  0.08510  0.29109  0.81546  1.0000
  H   H747      1.0  0.07609  0.33423  0.70180  1.0000
  H   H748      1.0  0.00066  0.41673  0.57635  1.0000
  C   C453      1.0  0.17168  0.33974  0.96975  1.0000
  H   H749      1.0  0.01914  0.28390  0.77839  1.0000
  C   C454      1.0  0.07365  0.28299  0.57816  1.0000
  C   C455      1.0  0.02496  0.25632  0.63035  1.0000
  S   S161      1.0  0.07855  0.23768  0.67254  1.0000
  H   H750      1.0  0.18342  0.47507  0.93114  1.0000
  H   H751      1.0  0.01865  0.26644  0.63531  1.0000
  C   C456      1.0  0.07850  0.24960  0.71692  1.0000
  C   C457      1.0  0.08829  0.25427  0.70239  1.0000
  C   C458      1.0  0.09850  0.26396  0.70098  1.0000
  C   C459      1.0  0.09904  0.26882  0.71415  1.0000
  C   C460      1.0  0.08977  0.26355  0.72882  1.0000
  C   C461      1.0  0.07949  0.25397  0.73019  1.0000
  H   H752      1.0  0.08791  0.25065  0.69218  1.0000
  H   H753      1.0  0.10582  0.26785  0.68965  1.0000
  H   H754      1.0  0.09083  0.26651  0.73919  1.0000
  H   H755      1.0  0.07968  0.23667  0.58000  1.0000
  C   C462      1.0  0.04499  0.29737  0.86041  1.0000
  H   H756      1.0  0.00051  0.29042  0.75702  1.0000
  C   C463      1.0  0.05410  0.27126  0.80567  1.0000
  C   C464      1.0  0.06039  0.28337  0.79466  1.0000
  C   C465      1.0  0.05038  0.29726  0.78883  1.0000
  H   H757      1.0  0.04476  0.25788  0.74340  1.0000
  H   H758      1.0  0.06661  0.28709  0.70703  1.0000
  H   H759      1.0  0.06185  0.26056  0.81027  1.0000
  H   H760      1.0  0.05522  0.30669  0.78037  1.0000
  H   H761      1.0  0.02328  0.31411  0.82318  1.0000
  C   C466      1.0  0.05061  0.25534  0.77441  1.0000
  H   H762      1.0  0.04236  0.28964  0.73581  1.0000
  C   C467      1.0  0.15881  0.26447  0.89367  1.0000
  H   H763      1.0  0.03647  0.41145  0.58861  1.0000
  C   C468      1.0  0.02527  0.43947  0.53291  1.0000
  H   H764      1.0  0.17097  0.38256  0.93867  1.0000
  H   H765      1.0  0.02627  0.30953  0.78907  1.0000
  H   H766      1.0  0.22299  0.45971  0.93514  1.0000
  C   C469      1.0  0.12854  0.34109  0.79313  1.0000
  C   C470      1.0  0.14258  0.33497  0.78346  1.0000
  C   C471      1.0  0.14221  0.33099  0.76962  1.0000
  C   C472      1.0  0.12782  0.33271  0.76558  1.0000
  C   C473      1.0  0.11377  0.33856  0.77542  1.0000
  C   C474      1.0  0.11416  0.34289  0.78904  1.0000
  H   H767      1.0  0.15371  0.33356  0.78649  1.0000
  H   H768      1.0  0.15311  0.32655  0.76200  1.0000
  H   H769      1.0  0.10265  0.34008  0.77233  1.0000
  H   H770      1.0  0.10325  0.34763  0.79647  1.0000
  C   C475      1.0  0.22061  0.31354  0.82272  1.0000
  C   C476      1.0  0.21769  0.32703  0.82865  1.0000
  C   C477      1.0  0.22853  0.32896  0.83608  1.0000
  C   C478      1.0  0.18993  0.36725  0.95953  1.0000
  H   H771      1.0  0.05122  0.41396  0.61032  1.0000
  C   C479      1.0  0.99837  0.29931  0.59941  1.0000
  H   H772      1.0  0.20697  0.33586  0.82775  1.0000
  H   H773      1.0  0.22598  0.33910  0.84117  1.0000
  H   H774      1.0  0.07780  0.30670  0.56978  1.0000
  H   H775      1.0  0.16286  0.33259  0.97664  1.0000
  C   C480      1.0  0.20029  0.35781  0.94713  1.0000
  H   H776      1.0  0.07557  0.31477  0.82498  1.0000
  H   H777      1.0  0.14506  0.36367  0.95596  1.0000
  C   C481      1.0  0.00340  0.24131  0.49359  1.0000
  C   C482      1.0  0.03158  0.29062  0.74542  1.0000
  C   C483      1.0  0.02114  0.25422  0.61712  1.0000
  C   C484      1.0  0.02889  0.31236  0.83319  1.0000
  H   H778      1.0  0.10381  0.29608  0.79006  1.0000
  H   H779      1.0  0.14255  0.38492  0.95189  1.0000
  H   H780      1.0  0.02579  0.31647  0.70306  1.0000
  C   C485      1.0  0.10350  0.29311  0.87229  1.0000
  C   C486      1.0  0.10764  0.28906  0.88690  1.0000
  C   C487      1.0  0.12022  0.29415  0.88866  1.0000
  C   C488      1.0  0.12871  0.30326  0.87579  1.0000
  C   C489      1.0  0.12381  0.30826  0.86153  1.0000
  C   C490      1.0  0.11117  0.30324  0.85981  1.0000
  H   H781      1.0  0.10110  0.28211  0.89689  1.0000
  H   H782      1.0  0.12339  0.29094  0.89997  1.0000
  H   H783      1.0  0.12975  0.31596  0.85176  1.0000
  H   H784      1.0  0.10744  0.30713  0.84879  1.0000
  C   C491      1.0  0.20653  0.46538  0.89714  1.0000
  H   H785      1.0  0.03298  0.26338  0.81885  1.0000
  C   C492      1.0  0.04684  0.29159  0.87760  1.0000
  H   H786      1.0  0.00665  0.40308  0.66192  1.0000
  C   C493      1.0  0.11172  0.27064  0.81330  1.0000
  C   C494      1.0  0.01355  0.43732  0.54895  1.0000
  C   C495      1.0  0.19512  0.46456  0.91116  1.0000
  C   C496      1.0  0.00870  0.30170  0.60706  1.0000
  H   H787      1.0  0.03756  0.26475  0.85341  1.0000
  C   C497      1.0  0.18254  0.37610  0.88765  1.0000
  C   C498      1.0  0.17662  0.36364  0.88683  1.0000
  C   C499      1.0  0.17343  0.36298  0.87269  1.0000
  C   C500      1.0  0.17589  0.37497  0.85931  1.0000
  C   C501      1.0  0.18185  0.38741  0.86012  1.0000
  C   C502      1.0  0.18528  0.38792  0.87419  1.0000
  H   H788      1.0  0.17432  0.35456  0.89724  1.0000
  H   H789      1.0  0.16868  0.35345  0.87224  1.0000
  H   H790      1.0  0.18378  0.39671  0.84983  1.0000
  H   H791      1.0  0.18979  0.39760  0.87469  1.0000
  H   H792      1.0  0.18461  0.46946  0.96246  1.0000
  H   H793      1.0  0.23755  0.29262  0.81810  1.0000
  H   H794      1.0  0.07445  0.28413  0.56542  1.0000
  H   H795      1.0  0.04903  0.42194  0.64213  1.0000
  H   H796      1.0  0.05720  0.27228  0.75326  1.0000
  C   C503      1.0  0.04137  0.28849  0.57071  1.0000
  C   C504      1.0  0.99414  0.42645  0.61099  1.0000
  C   C505      1.0  0.10729  0.26021  0.82979  1.0000
  H   H797      1.0  0.04434  0.28756  0.66170  1.0000
  H   H798      1.0  0.19731  0.41159  0.95625  1.0000
  H   H799      1.0  0.19411  0.36163  0.97066  1.0000
  H   H800      1.0  0.09438  0.26263  0.83444  1.0000
  H   H801      1.0  0.06201  0.25409  0.77752  1.0000
  H   H802      1.0  0.04176  0.27845  0.56576  1.0000
  C   C506      1.0  0.02467  0.41566  0.59491  1.0000
  C   C507      1.0  0.01953  0.29033  0.86496  1.0000
  S   S162      1.0  0.19041  0.40508  0.92867  1.0000
  H   H803      1.0  0.05742  0.30310  0.63915  1.0000
  C   C508      1.0  0.12181  0.28893  0.82141  1.0000
  C   C509      1.0  0.09348  0.29405  0.82063  1.0000
  H   H804      1.0  0.03304  0.46926  0.49787  1.0000
  C   C510      1.0  0.14963  0.37395  0.94816  1.0000
  H   H805      1.0  0.04887  0.29338  0.83105  1.0000
  H   H806      1.0  0.15845  0.25105  0.87041  1.0000
  H   H807      1.0  0.06358  0.26993  0.83724  1.0000
  C   C511      1.0  0.01180  0.24385  0.87736  1.0000
  C   C512      1.0  0.13845  0.25134  0.92460  1.0000
  H   H808      1.0  0.02922  0.25176  0.75882  1.0000
  C   C513      1.0  0.06131  0.26670  0.85026  1.0000
  C   C514      1.0  0.14232  0.24300  0.69618  1.0000
  H   H809      1.0  0.05695  0.29734  0.85271  1.0000
  H   H810      1.0  0.04009  0.26519  0.67899  1.0000
  H   H811      1.0  0.16759  0.27308  0.86843  1.0000
  H   H812      1.0  0.12819  0.26102  0.90439  1.0000
  H   H813      1.0  0.06737  0.30866  0.67404  1.0000
  C   C515      1.0  0.03403  0.29886  0.79374  1.0000
  H   H814      1.0  0.14151  0.25264  0.72279  1.0000
  C   C516      1.0  0.06639  0.29688  0.68169  1.0000
  C   C517      1.0  0.20051  0.40700  0.96755  1.0000
  H   H815      1.0  0.07252  0.24975  0.74158  1.0000
  C   C518      1.0  0.23026  0.23824  0.90186  1.0000
  C   C519      1.0  0.05122  0.27607  0.69078  1.0000
  C   C520      1.0  0.03740  0.30443  0.68378  1.0000
  C   C521      1.0  0.03769  0.26917  0.69012  1.0000
  C   C522      1.0  0.02927  0.30425  0.70124  1.0000
  H   H816      1.0  0.05019  0.27577  0.70329  1.0000
  H   H817      1.0  0.02832  0.30339  0.67818  1.0000
  H   H818      1.0  0.03679  0.25859  0.69978  1.0000
  H   H819      1.0  0.02614  0.27752  0.69161  1.0000
  H   H820      1.0  0.06393  0.39312  0.65986  1.0000
  H   H821      1.0  0.05400  0.25326  0.58815  1.0000
  H   H822      1.0  0.03654  0.29735  0.70977  1.0000
  H   H823      1.0  0.02916  0.29571  0.57153  1.0000
  H   H824      1.0  0.13806  0.30433  0.80733  1.0000
  H   H825      1.0  0.00478  0.26095  0.89187  1.0000
  H   H826      1.0  0.02582  0.34664  0.71689  1.0000
  C   C523      1.0  0.04795  0.34493  0.68001  1.0000
  H   H827      1.0  0.06992  0.30690  0.64916  1.0000
  C   C524      1.0  0.12912  0.28942  0.78543  1.0000
  H   H828      1.0  0.04131  0.43198  0.61690  1.0000
  H   H829      1.0  0.06531  0.25372  0.85351  1.0000
  C   C525      1.0  0.03777  0.27274  0.81031  1.0000
  C   C526      1.0  0.19373  0.45963  0.96706  1.0000
  C   C527      1.0  0.21299  0.39400  0.96955  1.0000
  C   C528      1.0  0.01540  0.40487  0.60423  1.0000
  Fe  Fe82      1.0  0.01790  0.47082  0.57746  1.0000
  H   H830      1.0  0.09414  0.31535  0.82737  1.0000
  H   H831      1.0  0.13282  0.27982  0.81926  1.0000
  H   H832      1.0  0.11327  0.26153  0.83836  1.0000
  C   C529      1.0  0.00337  0.43723  0.60165  1.0000
  H   H833      1.0  0.99345  0.28723  0.77748  1.0000
  H   H834      1.0  0.01813  0.30010  0.70427  1.0000
  H   H835      1.0  0.13136  0.29797  0.77406  1.0000
  S   S163      1.0  0.01374  0.33029  0.65697  1.0000
  H   H836      1.0  0.03898  0.31000  0.85907  1.0000
  C   C530      1.0  0.07228  0.29942  0.58087  1.0000
  C   C531      1.0  0.14007  0.24089  0.73012  1.0000
  N   N32       1.0  0.06138  0.27399  0.58835  1.0000
  C   C532      1.0  0.04487  0.28303  0.58732  1.0000
  H   H837      1.0  0.04159  0.29368  0.59222  1.0000
  H   H838      1.0  0.11927  0.24208  0.72245  1.0000
  C   C533      1.0  0.17232  0.26739  0.87921  1.0000
  H   H839      1.0  0.22637  0.45067  0.91912  1.0000
  H   H840      1.0  0.22357  0.47809  0.88119  1.0000
  H   H841      1.0  0.13257  0.24023  0.90990  1.0000
  H   H842      1.0  0.17181  0.34049  0.95734  1.0000
  S   S164      1.0  0.02699  0.23979  0.59215  1.0000
  N   N33       1.0  0.03187  0.27523  0.75735  1.0000
  H   H843      1.0  0.02357  0.28478  0.49932  1.0000
  H   H844      1.0  0.08558  0.27627  0.57982  1.0000
  N   N34       1.0  0.15242  0.25023  0.89553  1.0000
  Fe  Fe83      1.0  0.00065  0.26467  0.81878  1.0000
  H   H845      1.0  0.01603  0.44421  0.55613  1.0000
  C   C534      1.0  0.14795  0.25133  0.88030  1.0000
  H   H846      1.0  0.06444  0.26194  0.56964  1.0000
  H   H847      1.0  0.16992  0.23834  0.92017  1.0000
  H   H848      1.0  0.04908  0.31583  0.65259  1.0000
  C   C535      1.0  0.22986  0.26779  0.80441  1.0000
  H   H849      1.0  0.13968  0.26277  0.87703  1.0000
  C   C536      1.0  0.05440  0.38653  0.66393  1.0000
  H   H850      1.0  0.07566  0.26570  0.60597  1.0000
  H   H851      1.0  0.99868  0.44970  0.60079  1.0000
  H   H852      1.0  0.06481  0.28045  0.66102  1.0000
  S   S165      1.0  0.07305  0.24731  0.88811  1.0000
  H   H853      1.0  0.01189  0.27415  0.85565  1.0000
  H   H854      1.0  0.02001  0.39241  0.60498  1.0000
  H   H855      1.0  0.06867  0.27176  0.85464  1.0000
  H   H856      1.0  0.03534  0.29219  0.88611  1.0000
  H   H857      1.0  0.04172  0.25428  0.78564  1.0000
  H   H858      1.0  0.05316  0.29920  0.88012  1.0000
  H   H859      1.0  0.20858  0.45698  0.88992  1.0000
  H   H860      1.0  0.07840  0.30108  0.69730  1.0000
  H   H861      1.0  0.09027  0.31903  0.80779  1.0000
  C   C537      1.0  0.05132  0.42167  0.61786  1.0000
  H   H862      1.0  0.03737  0.43675  0.53500  1.0000
  C   C538      1.0  0.05099  0.41291  0.63516  1.0000
  H   H863      1.0  0.11068  0.23696  0.96769  1.0000
  S   S166      1.0  0.00734  0.28807  0.80911  1.0000
  H   H864      1.0  0.12873  0.27843  0.78254  1.0000
  H   H865      1.0  0.17844  0.27569  0.88081  1.0000
  C   C539      1.0  0.02773  0.28645  0.80420  1.0000
  H   H866      1.0  0.16304  0.26406  0.90418  1.0000
  C   C540      1.0  0.06737  0.25070  0.97206  1.0000
  H   H867      1.0  0.01701  0.42480  0.55482  1.0000
  H   H868      1.0  0.19773  0.34612  0.94914  1.0000
  C   C541      1.0  0.05483  0.28125  0.61580  1.0000
  C   C542      1.0  0.05478  0.29044  0.66360  1.0000
  C   C543      1.0  0.06700  0.29818  0.69810  1.0000
  C   C544      1.0  0.05858  0.38150  0.62796  1.0000
  C   C545      1.0  0.21334  0.26756  0.80298  1.0000
  N   N35       1.0  0.13904  0.39649  0.80431  1.0000
  C   C546      1.0  0.15412  0.40143  0.79492  1.0000
  C   C547      1.0  0.12545  0.41029  0.80198  1.0000
  C   C548      1.0  0.13661  0.38313  0.79901  1.0000
  C   C549      1.0  0.13998  0.39101  0.82140  1.0000
  C   C550      1.0  0.16916  0.38828  0.79462  1.0000
  C   C551      1.0  0.12556  0.42483  0.80762  1.0000
  C   C552      1.0  0.13741  0.38566  0.78127  1.0000
  C   C553      1.0  0.12431  0.38897  0.83325  1.0000
  H   H869      1.0  0.15326  0.40718  0.78254  1.0000
  H   H870      1.0  0.15639  0.41046  0.79969  1.0000
  H   H871      1.0  0.11399  0.40683  0.80781  1.0000
  H   H872      1.0  0.12512  0.41449  0.78931  1.0000
  H   H873      1.0  0.14525  0.37210  0.80237  1.0000
  H   H874      1.0  0.12492  0.38036  0.80512  1.0000
  H   H875      1.0  0.14845  0.37952  0.82331  1.0000
  H   H876      1.0  0.14465  0.39936  0.82495  1.0000
  H   H877      1.0  0.17159  0.38316  0.80655  1.0000
  H   H878      1.0  0.16875  0.37887  0.78923  1.0000
  H   H879      1.0  0.17940  0.39335  0.78738  1.0000
  H   H880      1.0  0.12631  0.42210  0.82011  1.0000
  H   H881      1.0  0.13526  0.43060  0.80020  1.0000
  H   H882      1.0  0.12787  0.39535  0.77730  1.0000
  H   H883      1.0  0.13573  0.37482  0.77906  1.0000
  H   H884      1.0  0.14900  0.38760  0.77392  1.0000
  H   H885      1.0  0.12702  0.38019  0.84396  1.0000
  H   H886      1.0  0.11637  0.38465  0.82889  1.0000
  H   H887      1.0  0.11813  0.39992  0.83747  1.0000
  N   N36       1.0  0.03891  0.40288  0.64231  1.0000
  C   C554      1.0  0.02300  0.41361  0.64110  1.0000
  C   C555      1.0  0.02238  0.26588  0.73746  1.0000
  C   C556      1.0  0.03878  0.39637  0.65958  1.0000
  C   C557      1.0  0.04139  0.38981  0.63395  1.0000
  C   C558      1.0  0.00861  0.40612  0.64890  1.0000
  H   H888      1.0  0.00149  0.24822  0.87240  1.0000
  H   H889      1.0  0.03773  0.28601  0.48124  1.0000
  S   S167      1.0  0.99553  0.27560  0.52513  1.0000
  H   H890      1.0  0.01772  0.29200  0.61100  1.0000
  H   H891      1.0  0.21260  0.25587  0.80204  1.0000
  H   H892      1.0  0.06309  0.40607  0.63562  1.0000
  H   H893      1.0  0.06726  0.38188  0.63424  1.0000
  H   H894      1.0  0.03472  0.40608  0.66606  1.0000
  H   H895      1.0  0.03028  0.38851  0.66494  1.0000
  H   H896      1.0  0.03496  0.38061  0.64157  1.0000
  H   H897      1.0  0.03619  0.39442  0.62338  1.0000
  H   H898      1.0  0.20826  0.48076  0.97314  1.0000
  H   H899      1.0  0.00957  0.39569  0.64436  1.0000
  H   H900      1.0  0.01942  0.31688  0.84258  1.0000
  H   H901      1.0  0.05899  0.36887  0.62920  1.0000
  H   H902      1.0  0.03628  0.27576  0.59466  1.0000
  S   S168      1.0  0.99428  0.47683  0.57149  1.0000
  H   H903      1.0  0.20401  0.27164  0.81276  1.0000
  C   C559      1.0  0.07912  0.24669  0.58511  1.0000
  H   H904      1.0  0.01923  0.28300  0.87709  1.0000
  C   C560      1.0  0.22488  0.25965  0.83298  1.0000
  C   C561      1.0  0.06303  0.26922  0.60529  1.0000
  C   C562      1.0  0.02563  0.28428  0.48677  1.0000
  C   C563      1.0  0.19233  0.47564  0.92033  1.0000
  H   H905      1.0  0.14928  0.27522  0.89281  1.0000
  C   C564      1.0  0.00765  0.28597  0.85840  1.0000
  H   H906      1.0  0.15059  0.25261  0.67135  1.0000
  C   C565      1.0  0.12727  0.30459  0.81687  1.0000
  N   N37       1.0  0.11023  0.28778  0.81276  1.0000
  C   C566      1.0  0.23489  0.30264  0.82321  1.0000
  H   H907      1.0  0.02301  0.25487  0.73399  1.0000
  H   H908      1.0  0.10436  0.26934  0.80590  1.0000
  H   H909      1.0  0.07903  0.24178  0.59778  1.0000
  Fe  Fe84      1.0  0.99897  0.37241  0.63490  1.0000
  H   H910      1.0  0.07844  0.29860  0.59019  1.0000
  H   H911      1.0  0.02298  0.35069  0.68942  1.0000
  C   C567      1.0  0.08016  0.25788  0.96486  1.0000
  H   H912      1.0  0.01306  0.24322  0.52683  1.0000
  S   S169      1.0  0.02357  0.35878  0.62746  1.0000
  H   H913      1.0  0.99979  0.28790  0.59704  1.0000
  H   H914      1.0  0.05765  0.29294  0.61070  1.0000
  H   H915      1.0  0.07739  0.28852  0.67748  1.0000
  C   C568      1.0  0.14830  0.24118  0.67891  1.0000
  H   H916      1.0  0.13186  0.25296  0.69649  1.0000
  H   H917      1.0  0.12401  0.26509  0.80824  1.0000
  H   H918      1.0  0.20754  0.23779  0.91748  1.0000
  Fe  Fe85      1.0  0.00576  0.25400  0.58190  1.0000
  H   H919      1.0  0.03972  0.31639  0.67829  1.0000
  S   S170      1.0  0.02959  0.25543  0.90797  1.0000
  H   H920      1.0  0.01975  0.30730  0.76113  1.0000
  S   S171      1.0  0.00619  0.27717  0.56455  1.0000
  N   N38       1.0  0.19802  0.30402  0.89126  1.0000
  C   C569      1.0  0.20161  0.31999  0.88339  1.0000
  C   C570      1.0  0.18087  0.30497  0.89234  1.0000
  C   C571      1.0  0.20790  0.29179  0.88203  1.0000
  C   C572      1.0  0.20180  0.29927  0.90735  1.0000
  C   C573      1.0  0.21903  0.32085  0.87997  1.0000
  C   C574      1.0  0.16897  0.31630  0.90221  1.0000
  C   C575      1.0  0.20725  0.29550  0.86454  1.0000
  C   C576      1.0  0.19580  0.28479  0.91846  1.0000
  H   H921      1.0  0.19752  0.32474  0.87217  1.0000
  H   H922      1.0  0.19505  0.32871  0.89077  1.0000
  H   H923      1.0  0.17788  0.29324  0.89703  1.0000
  H   H924      1.0  0.17814  0.30889  0.88047  1.0000
  H   H925      1.0  0.22050  0.28936  0.88258  1.0000
  H   H926      1.0  0.20442  0.28033  0.88726  1.0000
  H   H927      1.0  0.21478  0.29664  0.90633  1.0000
  H   H928      1.0  0.19687  0.30921  0.91350  1.0000
  H   H929      1.0  0.22335  0.31835  0.89091  1.0000
  H   H930      1.0  0.22669  0.31285  0.87232  1.0000
  H   H931      1.0  0.22030  0.33294  0.87355  1.0000
  H   H932      1.0  0.16931  0.32872  0.89648  1.0000
  H   H933      1.0  0.15688  0.31504  0.90301  1.0000
  H   H934      1.0  0.17061  0.31373  0.91439  1.0000
  H   H935      1.0  0.21105  0.30652  0.85797  1.0000
  H   H936      1.0  0.19542  0.29594  0.86295  1.0000
  H   H937      1.0  0.21558  0.28601  0.85898  1.0000
  H   H938      1.0  0.00983  0.27077  0.74194  1.0000
  H   H939      1.0  0.19407  0.27653  0.91243  1.0000
  H   H940      1.0  0.18483  0.28849  0.92700  1.0000
  Fe  Fe86      1.0  0.19833  0.42642  0.91249  1.0000
  H   H941      1.0  0.22307  0.27230  0.83308  1.0000
  H   H942      1.0  0.13085  0.30612  0.82702  1.0000
  H   H943      1.0  0.11821  0.31511  0.81373  1.0000
  H   H944      1.0  0.11439  0.43361  0.80650  1.0000
  C   C577      1.0  0.05797  0.30501  0.65057  1.0000
  H   H945      1.0  0.05774  0.30798  0.70215  1.0000
  H   H946      1.0  0.04656  0.28028  0.76984  1.0000
  H   H947      1.0  0.06236  0.26743  0.68767  1.0000
  H   H948      1.0  0.11087  0.24769  0.82892  1.0000
  H   H949      1.0  0.11703  0.28642  0.83435  1.0000
  H   H950      1.0  0.02160  0.29373  0.73951  1.0000
  H   H951      1.0  0.05816  0.37540  0.65980  1.0000
  C   C578      1.0  0.03044  0.30513  0.75176  1.0000
  H   H952      1.0  0.05200  0.24544  0.76885  1.0000
  C   C579      1.0  0.11329  0.29613  0.79567  1.0000
  N   N39       1.0  0.05220  0.29207  0.68036  1.0000
  H   H953      1.0  0.06006  0.30615  0.58372  1.0000
  H   H954      1.0  0.05253  0.38302  0.67697  1.0000
  H   H955      1.0  0.02705  0.27389  0.72655  1.0000
  H   H956      1.0  0.13346  0.24285  0.74198  1.0000
  N   N40       1.0  0.03620  0.28845  0.85531  1.0000
  H   H957      1.0  0.03789  0.31963  0.82950  1.0000
  C   C580      1.0  0.01865  0.43188  0.59355  1.0000
  H   H958      1.0  0.18113  0.25646  0.87739  1.0000
  C   C581      1.0  0.22984  0.24995  0.84847  1.0000
  H   H959      1.0  0.04104  0.30441  0.75598  1.0000
  H   H960      1.0  0.02962  0.31571  0.74201  1.0000
  S   S172      1.0  0.04277  0.24968  0.65241  1.0000
  C   C582      1.0  0.03252  0.26212  0.74973  1.0000
  H   H961      1.0  0.99980  0.46573  0.54269  1.0000
  C   C583      1.0  0.00713  0.31646  0.60997  1.0000
  H   H962      1.0  0.04235  0.26570  0.87066  1.0000
  S   S173      1.0  0.99986  0.36670  0.66053  1.0000
  H   H963      1.0  0.02119  0.42400  0.64622  1.0000
  C   C584      1.0  0.21507  0.47726  0.89228  1.0000
  H   H964      1.0  0.13949  0.23818  0.67448  1.0000
  H   H965      1.0  0.00483  0.29471  0.84772  1.0000
  C   C585      1.0  0.04682  0.27152  0.76328  1.0000
  S   S174      1.0  0.01731  0.24140  0.81756  1.0000
  S   S175      1.0  0.18407  0.44999  0.91712  1.0000
  S   S176      1.0  0.02106  0.31920  0.61852  1.0000
  S   S177      1.0  0.22943  0.25781  0.90179  1.0000
  H   H966      1.0  0.14782  0.37491  0.93625  1.0000
  C   C586      1.0  0.16472  0.38411  0.96871  1.0000
  H   H967      1.0  0.03119  0.28783  0.83348  1.0000
  H   H968      1.0  0.15167  0.38602  0.97163  1.0000
  H   H969      1.0  0.01284  0.30831  0.48209  1.0000
  Fe  Fe87      1.0  0.02352  0.35135  0.65332  1.0000
  H   H970      1.0  0.02214  0.41844  0.62859  1.0000
  H   H971      1.0  0.21284  0.35599  0.94753  1.0000
  H   H972      1.0  0.16756  0.39469  0.95966  1.0000
  H   H973      1.0  0.02520  0.43129  0.52584  1.0000
  H   H974      1.0  0.12630  0.25309  0.93199  1.0000
  C   C587      1.0  0.00149  0.28145  0.76798  1.0000
  Fe  Fe88      1.0  0.01203  0.33860  0.63179  1.0000
  H   H975      1.0  0.19919  0.36449  0.93507  1.0000
  S   S178      1.0  0.06457  0.23877  0.71870  1.0000
  C   C588      1.0  0.01818  0.27618  0.77127  1.0000
  H   H976      1.0  0.99345  0.34020  0.60802  1.0000
  C   C589      1.0  0.01028  0.23660  0.50672  1.0000
  C   C590      1.0  0.06402  0.25920  0.58248  1.0000
  H   H977      1.0  0.20462  0.27793  0.92563  1.0000
  C   C591      1.0  0.01366  0.25103  0.88843  1.0000
  C   C592      1.0  0.03717  0.24560  0.63697  1.0000
  C   C593      1.0  0.02707  0.24556  0.89491  1.0000
  H   H978      1.0  0.21074  0.27600  0.79203  1.0000
  H   H979      1.0  0.22438  0.23713  0.82009  1.0000
  C   C594      1.0  0.00738  0.24676  0.51696  1.0000
  H   H980      1.0  0.18474  0.24153  0.90233  1.0000
  H   H981      1.0  0.04188  0.28252  0.61870  1.0000
  H   H982      1.0  0.99707  0.27120  0.76793  1.0000
  C   C595      1.0  0.00010  0.41025  0.61230  1.0000
  N   N41       1.0  0.17227  0.36941  0.96233  1.0000
  C   C596      1.0  0.12682  0.24285  0.97720  1.0000
  H   H983      1.0  0.15158  0.24712  0.69888  1.0000
  C   C597      1.0  0.08694  0.26313  0.97411  1.0000
  C   C598      1.0  0.02200  0.47783  0.49891  1.0000
  H   H984      1.0  0.14495  0.24004  0.93052  1.0000
  H   H985      1.0  0.99953  0.43416  0.52695  1.0000
  H   H986      1.0  0.01464  0.30253  0.86677  1.0000
  H   H987      1.0  0.02313  0.45169  0.52602  1.0000
  H   H988      1.0  0.99786  0.41472  0.64594  1.0000
  H   H989      1.0  0.05810  0.25863  0.61146  1.0000
  H   H990      1.0  0.06223  0.42631  0.61295  1.0000
  H   H991      1.0  0.00736  0.29847  0.65113  1.0000
  C   C599      1.0  0.99430  0.30184  0.65328  1.0000
  H   H992      1.0  0.08995  0.25117  0.57915  1.0000
  H   H993      1.0  0.21302  0.25771  0.83393  1.0000
  H   H994      1.0  0.12843  0.25279  0.96694  1.0000
  H   H995      1.0  0.02462  0.27233  0.48689  1.0000
  H   H996      1.0  0.02262  0.48092  0.52157  1.0000
  C   C600      1.0  0.01377  0.48238  0.48674  1.0000
  C   C601      1.0  0.99763  0.26169  0.51404  1.0000
  H   H997      1.0  0.99622  0.46011  0.52703  1.0000
  C   C602      1.0  0.99471  0.32874  0.60584  1.0000
  H   H998      1.0  0.99434  0.28809  0.63750  1.0000
  C   C603      1.0  0.99270  0.45893  0.54003  1.0000
  H   H999      1.0  0.23780  0.26649  0.79290  1.0000
  C   C604      1.0  0.17581  0.23450  0.90903  1.0000
  C   C605      1.0  0.16673  0.35579  0.97443  1.0000
  C   C606      1.0  0.23211  0.45220  0.92773  1.0000
  H   H1000     1.0  0.22939  0.27993  0.80518  1.0000
  H   H1001     1.0  0.18338  0.33329  0.97228  1.0000
  H   H1002     1.0  0.99645  0.28587  0.86736  1.0000
  H   H1003     1.0  0.23560  0.44067  0.93557  1.0000
  S   S179      1.0  0.99518  0.24438  0.56758  1.0000
  H   H1004     1.0  0.22970  0.23737  0.85044  1.0000
  H   H1005     1.0  0.12829  0.23903  0.88735  1.0000
  N   N42       1.0  0.23600  0.25600  0.81795  1.0000
  C   C607      1.0  0.14039  0.23809  0.88005  1.0000
  H   H1006     1.0  0.13934  0.23915  0.86786  1.0000
  H   H1007     1.0  0.18216  0.42384  0.97882  1.0000
  H   H1008     1.0  0.15372  0.35845  0.97879  1.0000
  C   C608      1.0  0.23640  0.23939  0.81756  1.0000
  C   C609      1.0  0.99324  0.25603  0.49099  1.0000
  H   H1009     1.0  0.99270  0.27764  0.65717  1.0000
  H   H1010     1.0  0.99874  0.41892  0.54368  1.0000
  C   C610      1.0  0.16426  0.23501  0.89906  1.0000
  Fe  Fe89      1.0  0.00524  0.23450  0.84287  1.0000
  S   S180      1.0  0.06850  0.23473  0.92699  1.0000
  N   N43       1.0  0.99631  0.44184  0.54843  1.0000
  C   C611      1.0  0.99336  0.43152  0.53953  1.0000
  H   H1011     1.0  0.24091  0.47255  0.91405  1.0000
  Fe  Fe90      1.0  0.99785  0.23447  0.81202  1.0000
  S   S181      1.0  0.99922  0.59903  0.35145  1.0000
  Fe  Fe91      1.0  0.99637  0.63892  0.36143  1.0000
  H   H1012     1.0  0.19730  0.71158  0.18169  1.0000
  H   H1013     1.0  0.06692  0.66022  0.30363  1.0000
  H   H1014     1.0  0.22035  0.68214  0.08384  1.0000
  H   H1015     1.0  0.23926  0.57319  0.00499  1.0000
  H   H1016     1.0  0.01424  0.67839  0.31154  1.0000
  C   C612      1.0  0.99963  0.53529  0.39832  1.0000
  Fe  Fe92      1.0  0.01765  0.61333  0.34502  1.0000
  S   S182      1.0  0.04248  0.60382  0.33326  1.0000
  H   H1017     1.0  0.18014  0.72291  0.08532  1.0000
  S   S183      1.0  0.01375  0.61715  0.36934  1.0000
  C   C613      1.0  0.18502  0.66544  0.17845  1.0000
  S   S184      1.0  0.00548  0.69360  0.44453  1.0000
  H   H1018     1.0  0.22922  0.58913  0.98593  1.0000
  H   H1019     1.0  0.19436  0.50377  0.09844  1.0000
  S   S185      1.0  0.03768  0.70621  0.42565  1.0000
  N   N44       1.0  0.04246  0.55396  0.36980  1.0000
  Fe  Fe93      1.0  0.02124  0.69459  0.42055  1.0000
  S   S186      1.0  0.03034  0.67284  0.41043  1.0000
  Fe  Fe94      1.0  0.02041  0.70734  0.44884  1.0000
  H   H1020     1.0  0.04899  0.64164  0.26607  1.0000
  S   S187      1.0  0.00656  0.71698  0.40956  1.0000
  H   H1021     1.0  0.04307  0.54831  0.39456  1.0000
  H   H1022     1.0  0.16307  0.51071  0.08781  1.0000
  H   H1023     1.0  0.17920  0.70044  0.20524  1.0000
  H   H1024     1.0  0.18194  0.72122  0.06582  1.0000
  S   S188      1.0  0.20028  0.54421  0.05646  1.0000
  C   C614      1.0  0.16655  0.52403  0.13498  1.0000
  H   H1025     1.0  0.22027  0.64850  0.03771  1.0000
  H   H1026     1.0  0.05129  0.70985  0.34650  1.0000
  Fe  Fe95      1.0  0.20805  0.56025  0.06645  1.0000
  S   S189      1.0  0.19012  0.57279  0.08454  1.0000
  Fe  Fe96      1.0  0.21550  0.55354  0.03354  1.0000
  H   H1027     1.0  0.04076  0.52413  0.39387  1.0000
  C   C615      1.0  0.06321  0.57155  0.35896  1.0000
  H   H1028     1.0  0.01760  0.66873  0.24737  1.0000
  H   H1029     1.0  0.17088  0.53495  0.13225  1.0000
  H   H1030     1.0  0.03475  0.55313  0.34029  1.0000
  H   H1031     1.0  0.21880  0.52871  0.01406  1.0000
  C   C616      1.0  0.17853  0.71903  0.16913  1.0000
  C   C617      1.0  0.20260  0.55556  0.98519  1.0000
  S   S190      1.0  0.05766  0.71101  0.16149  1.0000
  H   H1032     1.0  0.02677  0.57266  0.40180  1.0000
  H   H1033     1.0  0.05520  0.62479  0.22348  1.0000
  H   H1034     1.0  0.17500  0.66251  0.17584  1.0000
  C   C618      1.0  0.99789  0.54004  0.41226  1.0000
  H   H1035     1.0  0.07752  0.70923  0.45231  1.0000
  H   H1036     1.0  0.08474  0.73387  0.11835  1.0000
  H   H1037     1.0  0.08766  0.71926  0.16150  1.0000
  H   H1038     1.0  0.10756  0.71182  0.34108  1.0000
  H   H1039     1.0  0.20668  0.49021  0.99846  1.0000
  H   H1040     1.0  0.21552  0.67382  0.16719  1.0000
  H   H1041     1.0  0.11840  0.71220  0.17302  1.0000
  S   S191      1.0  0.99382  0.66337  0.36459  1.0000
  C   C619      1.0  0.08916  0.71285  0.36316  1.0000
  C   C620      1.0  0.06253  0.70968  0.33773  1.0000
  C   C621      1.0  0.20659  0.61120  0.08178  1.0000
  H   H1042     1.0  0.07280  0.64687  0.24057  1.0000
  Fe  Fe97      1.0  0.08072  0.66590  0.26413  1.0000
  S   S192      1.0  0.09941  0.67740  0.26516  1.0000
  S   S193      1.0  0.08205  0.63988  0.27165  1.0000
  Fe  Fe98      1.0  0.06331  0.69572  0.24599  1.0000
  S   S194      1.0  0.08012  0.70982  0.24566  1.0000
  S   S195      1.0  0.04250  0.70612  0.23477  1.0000
  Fe  Fe99      1.0  0.09892  0.68885  0.23970  1.0000
  S   S196      1.0  0.11974  0.69254  0.21926  1.0000
  Fe  Fe100     1.0  0.07900  0.69729  0.27094  1.0000
  H   H1043     1.0  0.03853  0.69071  0.33620  1.0000
  S   S197      1.0  0.08197  0.67574  0.23841  1.0000
  S   S198      1.0  0.06041  0.68476  0.27171  1.0000
  H   H1044     1.0  0.04737  0.53478  0.35787  1.0000
  S   S199      1.0  0.10871  0.72402  0.01100  1.0000
  H   H1045     1.0  0.18515  0.65979  0.19088  1.0000
  C   C622      1.0  0.05958  0.55492  0.36489  1.0000
  H   H1046     1.0  0.06878  0.61959  0.25824  1.0000
  C   C623      1.0  0.05622  0.61975  0.25926  1.0000
  H   H1047     1.0  0.22829  0.61914  0.04338  1.0000
  Fe  Fe101     1.0  0.12505  0.72593  0.02474  1.0000
  S   S200      1.0  0.13946  0.70387  0.03680  1.0000
  C   C624      1.0  0.21456  0.53346  0.00328  1.0000
  H   H1048     1.0  0.07307  0.57192  0.36383  1.0000
  Fe  Fe102     1.0  0.15841  0.66091  0.14237  1.0000
  S   S201      1.0  0.16519  0.68395  0.13739  1.0000
  S   S202      1.0  0.13897  0.65568  0.16381  1.0000
  Fe  Fe103     1.0  0.18096  0.65182  0.11220  1.0000
  S   S203      1.0  0.18858  0.67485  0.10519  1.0000
  S   S204      1.0  0.19655  0.63739  0.09439  1.0000
  Fe  Fe104     1.0  0.18977  0.67057  0.13029  1.0000
  Fe  Fe105     1.0  0.16328  0.68584  0.11286  1.0000
  S   S205      1.0  0.15128  0.70919  0.10034  1.0000
  S   S206      1.0  0.18348  0.64704  0.13726  1.0000
  S   S207      1.0  0.15510  0.66345  0.11788  1.0000
  H   H1049     1.0  0.06569  0.54867  0.37470  1.0000
  C   C625      1.0  0.14393  0.70566  0.05379  1.0000
  C   C626      1.0  0.15078  0.69223  0.06368  1.0000
  C   C627      1.0  0.15351  0.69333  0.07781  1.0000
  C   C628      1.0  0.14931  0.70786  0.08208  1.0000
  C   C629      1.0  0.14302  0.72136  0.07193  1.0000
  C   C630      1.0  0.14030  0.72025  0.05781  1.0000
  H   H1050     1.0  0.15378  0.68093  0.06053  1.0000
  H   H1051     1.0  0.15867  0.68288  0.08544  1.0000
  C   C631      1.0  0.99682  0.54672  0.38478  1.0000
  H   H1052     1.0  0.23961  0.68225  0.08501  1.0000
  C   C632      1.0  0.13373  0.66592  0.17923  1.0000
  C   C633      1.0  0.12176  0.66222  0.19236  1.0000
  C   C634      1.0  0.11737  0.67019  0.20476  1.0000
  C   C635      1.0  0.12481  0.68207  0.20407  1.0000
  C   C636      1.0  0.13667  0.68584  0.19088  1.0000
  C   C637      1.0  0.14114  0.67778  0.17858  1.0000
  H   H1053     1.0  0.11598  0.65301  0.19304  1.0000
  H   H1054     1.0  0.10839  0.66696  0.21490  1.0000
  H   H1055     1.0  0.14232  0.69514  0.19014  1.0000
  H   H1056     1.0  0.15027  0.68078  0.16860  1.0000
  H   H1057     1.0  0.05103  0.69600  0.38858  1.0000
  H   H1058     1.0  0.02399  0.55283  0.39077  1.0000
  N   N45       1.0  0.07434  0.71751  0.35684  1.0000
  C   C638      1.0  0.16320  0.54425  0.08455  1.0000
  C   C639      1.0  0.03761  0.56378  0.34158  1.0000
  C   C640      1.0  0.10406  0.71049  0.28904  1.0000
  C   C641      1.0  0.03557  0.55622  0.38642  1.0000
  C   C642      1.0  0.22906  0.64199  0.04495  1.0000
  H   H1059     1.0  0.04042  0.66414  0.31135  1.0000
  H   H1060     1.0  0.10732  0.70068  0.28334  1.0000
  Fe  Fe106     1.0  0.03967  0.72968  0.14977  1.0000
  H   H1061     1.0  0.18375  0.50522  0.12501  1.0000
  C   C643      1.0  0.01822  0.67612  0.32267  1.0000
  C   C644      1.0  0.04132  0.53772  0.36951  1.0000
  H   H1062     1.0  0.05211  0.61301  0.27130  1.0000
  H   H1063     1.0  0.03084  0.57400  0.33436  1.0000
  C   C645      1.0  0.19230  0.70636  0.17488  1.0000
  H   H1064     1.0  0.01285  0.68679  0.32759  1.0000
  H   H1065     1.0  0.00011  0.53135  0.42274  1.0000
  H   H1066     1.0  0.20143  0.66924  0.19712  1.0000
  H   H1067     1.0  0.21683  0.61599  0.07555  1.0000
  C   C646      1.0  0.10631  0.71094  0.17403  1.0000
  H   H1068     1.0  0.07163  0.69343  0.38662  1.0000
  C   C647      1.0  0.05316  0.70827  0.18207  1.0000
  C   C648      1.0  0.03771  0.71273  0.19029  1.0000
  C   C649      1.0  0.03446  0.71154  0.20658  1.0000
  C   C650      1.0  0.04669  0.70611  0.21467  1.0000
  C   C651      1.0  0.06213  0.70133  0.20651  1.0000
  C   C652      1.0  0.06531  0.70218  0.19028  1.0000
  H   H1069     1.0  0.22499  0.63044  0.10575  1.0000
  H   H1070     1.0  0.02249  0.71519  0.21283  1.0000
  H   H1071     1.0  0.07170  0.69735  0.21256  1.0000
  H   H1072     1.0  0.07723  0.69843  0.18405  1.0000
  H   H1073     1.0  0.02881  0.53713  0.37116  1.0000
  H   H1074     1.0  0.16459  0.50373  0.99705  1.0000
  H   H1075     1.0  0.10292  0.73013  0.34745  1.0000
  C   C653      1.0  0.06091  0.71427  0.37062  1.0000
  H   H1076     1.0  0.12796  0.70977  0.28957  1.0000
  H   H1077     1.0  0.16412  0.67392  0.20481  1.0000
  C   C654      1.0  0.07675  0.70807  0.34470  1.0000
  H   H1078     1.0  0.05528  0.61346  0.25084  1.0000
  N   N46       1.0  0.18850  0.69077  0.18434  1.0000
  H   H1079     1.0  0.20154  0.70479  0.16406  1.0000
  C   C655      1.0  0.19221  0.59058  0.08741  1.0000
  C   C656      1.0  0.18042  0.59845  0.09810  1.0000
  C   C657      1.0  0.18163  0.61271  0.10055  1.0000
  C   C658      1.0  0.19468  0.61920  0.09230  1.0000
  S   S208      1.0  0.03577  0.72933  0.12652  1.0000
  C   C659      1.0  0.20536  0.59698  0.07930  1.0000
  H   H1080     1.0  0.17023  0.59356  0.10444  1.0000
  H   H1081     1.0  0.17241  0.61875  0.10868  1.0000
  Fe  Fe107     1.0  0.22243  0.52691  0.06119  1.0000
  H   H1082     1.0  0.23993  0.62196  0.09056  1.0000
  H   H1083     1.0  0.21457  0.59096  0.07115  1.0000
  H   H1084     1.0  0.17249  0.71468  0.16262  1.0000
  C   C660      1.0  0.99203  0.56757  0.39867  1.0000
  C   C661      1.0  0.21185  0.69321  0.13315  1.0000
  H   H1085     1.0  0.17891  0.49359  0.00808  1.0000
  C   C662      1.0  0.06475  0.70972  0.45527  1.0000
  C   C663      1.0  0.19883  0.72076  0.12982  1.0000
  H   H1086     1.0  0.08274  0.65348  0.31352  1.0000
  C   C664      1.0  0.17002  0.67967  0.21016  1.0000
  H   H1087     1.0  0.21732  0.50641  0.04260  1.0000
  H   H1088     1.0  0.15348  0.52718  0.13725  1.0000
  H   H1089     1.0  0.06707  0.66746  0.21623  1.0000
  C   C665      1.0  0.06988  0.65473  0.21650  1.0000
  C   C666      1.0  0.18860  0.72244  0.07390  1.0000
  H   H1090     1.0  0.15728  0.54328  0.10928  1.0000
  H   H1091     1.0  0.06744  0.57412  0.34597  1.0000
  H   H1092     1.0  0.08152  0.69536  0.34903  1.0000
  H   H1093     1.0  0.08279  0.65150  0.21185  1.0000
  C   C667      1.0  0.20318  0.68085  0.18981  1.0000
  H   H1094     1.0  0.04150  0.66517  0.36650  1.0000
  C   C668      1.0  0.20339  0.52510  0.11037  1.0000
  H   H1095     1.0  0.18780  0.70227  0.13080  1.0000
  C   C669      1.0  0.04825  0.52402  0.38187  1.0000
  C   C670      1.0  0.18319  0.68351  0.17412  1.0000
  H   H1096     1.0  0.04001  0.64428  0.33348  1.0000
  C   C671      1.0  0.11574  0.71563  0.29260  1.0000
  Fe  Fe108     1.0  0.99199  0.71702  0.43400  1.0000
  H   H1097     1.0  0.02478  0.68127  0.25439  1.0000
  C   C672      1.0  0.04245  0.62985  0.22646  1.0000
  H   H1098     1.0  0.05701  0.67541  0.35485  1.0000
  C   C673      1.0  0.10053  0.71879  0.15860  1.0000
  C   C674      1.0  0.05261  0.61464  0.31606  1.0000
  C   C675      1.0  0.04596  0.62987  0.30870  1.0000
  C   C676      1.0  0.05498  0.63811  0.29525  1.0000
  C   C677      1.0  0.07046  0.63091  0.28902  1.0000
  C   C678      1.0  0.07680  0.61559  0.29619  1.0000
  C   C679      1.0  0.06801  0.60759  0.30972  1.0000
  H   H1099     1.0  0.03392  0.63525  0.31333  1.0000
  H   H1100     1.0  0.04992  0.64984  0.28954  1.0000
  H   H1101     1.0  0.08866  0.60989  0.29132  1.0000
  H   H1102     1.0  0.07319  0.59581  0.31525  1.0000
  H   H1103     1.0  0.05880  0.64562  0.35595  1.0000
  S   S209      1.0  0.22917  0.54221  0.07291  1.0000
  C   C680      1.0  0.01058  0.68316  0.38965  1.0000
  C   C681      1.0  0.01988  0.67032  0.39793  1.0000
  C   C682      1.0  0.02125  0.65520  0.39588  1.0000
  C   C683      1.0  0.01326  0.65291  0.38571  1.0000
  H   H1104     1.0  0.06354  0.67799  0.32059  1.0000
  C   C684      1.0  0.22902  0.67765  0.09152  1.0000
  H   H1105     1.0  0.02845  0.64522  0.40225  1.0000
  H   H1106     1.0  0.01422  0.64120  0.38440  1.0000
  H   H1107     1.0  0.06440  0.69922  0.33280  1.0000
  H   H1108     1.0  0.11339  0.69342  0.12307  1.0000
  H   H1109     1.0  0.06570  0.54864  0.35516  1.0000
  H   H1110     1.0  0.23994  0.55357  0.98931  1.0000
  H   H1111     1.0  0.18991  0.68621  0.16180  1.0000
  C   C685      1.0  0.03266  0.56554  0.35882  1.0000
  S   S210      1.0  0.99148  0.72627  0.13695  1.0000
  H   H1112     1.0  0.03851  0.68577  0.36388  1.0000
  H   H1113     1.0  0.16476  0.70172  0.19478  1.0000
  H   H1114     1.0  0.04389  0.63463  0.36381  1.0000
  H   H1115     1.0  0.06295  0.70011  0.45100  1.0000
  S   S211      1.0  0.22130  0.57118  0.04303  1.0000
  H   H1116     1.0  0.20630  0.68647  0.19771  1.0000
  H   H1117     1.0  0.06405  0.65248  0.20833  1.0000
  S   S212      1.0  0.21123  0.67348  0.13599  1.0000
  N   N47       1.0  0.04398  0.66684  0.33310  1.0000
  H   H1118     1.0  0.14022  0.73266  0.07498  1.0000
  C   C686      1.0  0.21959  0.72897  0.07641  1.0000
  C   C687      1.0  0.03728  0.67878  0.34331  1.0000
  C   C688      1.0  0.04010  0.65112  0.34190  1.0000
  H   H1119     1.0  0.01351  0.66603  0.33071  1.0000
  S   S213      1.0  0.22237  0.50166  0.07398  1.0000
  C   C689      1.0  0.04422  0.67587  0.35783  1.0000
  H   H1120     1.0  0.13201  0.70170  0.13245  1.0000
  H   H1121     1.0  0.05957  0.72155  0.37918  1.0000
  Fe  Fe109     1.0  0.00208  0.49646  0.41870  1.0000
  H   H1122     1.0  0.03998  0.68376  0.31154  1.0000
  H   H1123     1.0  0.11412  0.71297  0.35748  1.0000
  C   C690      1.0  0.99291  0.56279  0.38499  1.0000
  H   H1124     1.0  0.02443  0.67955  0.34804  1.0000
  H   H1125     1.0  0.02792  0.65276  0.34926  1.0000
  H   H1126     1.0  0.06512  0.72787  0.21391  1.0000
  H   H1127     1.0  0.03841  0.63182  0.21541  1.0000
  H   H1128     1.0  0.22593  0.62747  0.01678  1.0000
  H   H1129     1.0  0.04259  0.72441  0.45204  1.0000
  H   H1130     1.0  0.21132  0.53337  0.10756  1.0000
  H   H1131     1.0  0.10707  0.68770  0.15877  1.0000
  H   H1132     1.0  0.02525  0.58182  0.38221  1.0000
  H   H1133     1.0  0.15137  0.55141  0.08308  1.0000
  C   C691      1.0  0.99410  0.55614  0.41242  1.0000
  C   C692      1.0  0.08822  0.71780  0.29325  1.0000
  C   C693      1.0  0.11168  0.72829  0.30008  1.0000
  H   H1134     1.0  0.06705  0.64323  0.31989  1.0000
  H   H1135     1.0  0.02013  0.56463  0.36308  1.0000
  C   C694      1.0  0.10417  0.72214  0.13015  1.0000
  H   H1136     1.0  0.11172  0.71831  0.11932  1.0000
  C   C695      1.0  0.21672  0.49445  0.04873  1.0000
  H   H1137     1.0  0.06134  0.72021  0.32805  1.0000
  H   H1138     1.0  0.19804  0.71170  0.07519  1.0000
  H   H1139     1.0  0.05345  0.58130  0.36215  1.0000
  H   H1140     1.0  0.04828  0.51274  0.37927  1.0000
  S   S214      1.0  0.20726  0.56263  0.01072  1.0000
  H   H1141     1.0  0.22379  0.68310  0.10189  1.0000
  C   C696      1.0  0.08418  0.73049  0.30065  1.0000
  C   C697      1.0  0.20807  0.54953  0.99917  1.0000
  H   H1142     1.0  0.17957  0.67106  0.21533  1.0000
  H   H1143     1.0  0.04940  0.71790  0.36714  1.0000
  H   H1144     1.0  0.08735  0.71825  0.37337  1.0000
  H   H1145     1.0  0.20035  0.52140  0.12337  1.0000
  H   H1146     1.0  0.22418  0.65575  0.09101  1.0000
  H   H1147     1.0  0.03241  0.57786  0.35851  1.0000
  N   N48       1.0  0.17702  0.52383  0.10539  1.0000
  C   C698      1.0  0.18416  0.51257  0.09449  1.0000
  C   C699      1.0  0.18872  0.53364  0.10348  1.0000
  C   C700      1.0  0.16196  0.53458  0.10159  1.0000
  C   C701      1.0  0.17336  0.51445  0.12198  1.0000
  Fe  Fe110     1.0  0.99388  0.60470  0.37521  1.0000
  H   H1148     1.0  0.12091  0.67722  0.13750  1.0000
  H   H1149     1.0  0.22605  0.65684  0.10955  1.0000
  H   H1150     1.0  0.23090  0.64584  0.01307  1.0000
  H   H1151     1.0  0.18910  0.51875  0.08244  1.0000
  H   H1152     1.0  0.05775  0.72582  0.43483  1.0000
  H   H1153     1.0  0.18313  0.54427  0.10850  1.0000
  H   H1154     1.0  0.19321  0.53846  0.09083  1.0000
  H   H1155     1.0  0.15254  0.52794  0.10421  1.0000
  H   H1156     1.0  0.99564  0.69090  0.37290  1.0000
  H   H1157     1.0  0.16447  0.50758  0.12323  1.0000
  H   H1158     1.0  0.06049  0.70702  0.46825  1.0000
  H   H1159     1.0  0.23450  0.63804  0.98853  1.0000
  C   C702      1.0  0.08680  0.72508  0.12927  1.0000
  C   C703      1.0  0.05115  0.64006  0.35263  1.0000
  C   C704      1.0  0.17318  0.50309  0.09279  1.0000
  C   C705      1.0  0.06979  0.65505  0.31538  1.0000
  H   H1160     1.0  0.16994  0.72388  0.17892  1.0000
  H   H1161     1.0  0.08620  0.73129  0.39873  1.0000
  H   H1162     1.0  0.13548  0.73068  0.05001  1.0000
  H   H1163     1.0  0.22607  0.72774  0.06427  1.0000
  H   H1164     1.0  0.22253  0.64010  0.05742  1.0000
  H   H1165     1.0  0.16897  0.49522  0.10403  1.0000
  C   C706      1.0  0.22568  0.69705  0.13346  1.0000
  H   H1166     1.0  0.04428  0.57608  0.38788  1.0000
  H   H1167     1.0  0.06799  0.66243  0.33634  1.0000
  H   H1168     1.0  0.08613  0.71145  0.33436  1.0000
  H   H1169     1.0  0.22311  0.68830  0.17142  1.0000
  H   H1170     1.0  0.09228  0.69993  0.36767  1.0000
  N   N49       1.0  0.04858  0.64744  0.24133  1.0000
  C   C707      1.0  0.04356  0.66416  0.24356  1.0000
  C   C708      1.0  0.06579  0.64477  0.23329  1.0000
  C   C709      1.0  0.04622  0.63669  0.25745  1.0000
  C   C710      1.0  0.03839  0.64559  0.23161  1.0000
  C   C711      1.0  0.02673  0.66894  0.25328  1.0000
  H   H1171     1.0  0.09045  0.69747  0.15111  1.0000
  H   H1172     1.0  0.00956  0.69487  0.39101  1.0000
  H   H1173     1.0  0.06416  0.68885  0.37213  1.0000
  H   H1174     1.0  0.05168  0.66651  0.24948  1.0000
  H   H1175     1.0  0.04414  0.67273  0.23207  1.0000
  H   H1176     1.0  0.07083  0.63240  0.23232  1.0000
  H   H1177     1.0  0.21709  0.71713  0.08218  1.0000
  C   C712      1.0  0.10411  0.71726  0.35143  1.0000
  H   H1178     1.0  0.03366  0.63581  0.26194  1.0000
  H   H1179     1.0  0.02593  0.64688  0.23821  1.0000
  H   H1180     1.0  0.03779  0.65530  0.22097  1.0000
  H   H1181     1.0  0.02492  0.66171  0.26542  1.0000
  H   H1182     1.0  0.10582  0.69836  0.17801  1.0000
  H   H1183     1.0  0.05852  0.63010  0.34718  1.0000
  C   C713      1.0  0.03638  0.67276  0.31904  1.0000
  H   H1184     1.0  0.14641  0.71738  0.13962  1.0000
  H   H1185     1.0  0.03646  0.62111  0.23559  1.0000
  H   H1186     1.0  0.99332  0.55975  0.42309  1.0000
  S   S215      1.0  0.07312  0.71088  0.29020  1.0000
  H   H1187     1.0  0.23849  0.59588  0.03685  1.0000
  H   H1188     1.0  0.17097  0.55262  0.08185  1.0000
  C   C714      1.0  0.00407  0.66578  0.37735  1.0000
  H   H1189     1.0  0.16093  0.68380  0.22012  1.0000
  N   N50       1.0  0.09275  0.69833  0.07811  1.0000
  C   C715      1.0  0.08543  0.69814  0.06506  1.0000
  C   C716      1.0  0.08118  0.69421  0.09337  1.0000
  C   C717      1.0  0.10777  0.68583  0.07761  1.0000
  C   C718      1.0  0.09613  0.71441  0.07519  1.0000
  C   C719      1.0  0.09614  0.69964  0.04844  1.0000
  C   C720      1.0  0.06538  0.70623  0.09572  1.0000
  C   C721      1.0  0.11634  0.68241  0.09110  1.0000
  C   C722      1.0  0.09882  0.71928  0.08916  1.0000
  H   H1190     1.0  0.08111  0.68714  0.06756  1.0000
  H   H1191     1.0  0.07491  0.70793  0.06406  1.0000
  H   H1192     1.0  0.08601  0.69243  0.10382  1.0000
  H   H1193     1.0  0.07845  0.68265  0.09445  1.0000
  H   H1194     1.0  0.10550  0.67446  0.07730  1.0000
  H   H1195     1.0  0.11663  0.68895  0.06663  1.0000
  H   H1196     1.0  0.10674  0.71560  0.06556  1.0000
  H   H1197     1.0  0.08645  0.72372  0.07070  1.0000
  H   H1198     1.0  0.10534  0.68879  0.04719  1.0000
  H   H1199     1.0  0.08889  0.70152  0.03971  1.0000
  H   H1200     1.0  0.10173  0.70981  0.04521  1.0000
  H   H1201     1.0  0.05832  0.70255  0.10772  1.0000
  H   H1202     1.0  0.06705  0.71812  0.09482  1.0000
  H   H1203     1.0  0.05822  0.70678  0.08736  1.0000
  H   H1204     1.0  0.12729  0.67332  0.08882  1.0000
  H   H1205     1.0  0.10941  0.67748  0.10267  1.0000
  H   H1206     1.0  0.12019  0.69280  0.09157  1.0000
  C   C723      1.0  0.06140  0.66607  0.32686  1.0000
  H   H1207     1.0  0.09756  0.71070  0.10045  1.0000
  H   H1208     1.0  0.18837  0.72990  0.12863  1.0000
  C   C724      1.0  0.21795  0.67775  0.17664  1.0000
  H   H1209     1.0  0.13006  0.69856  0.15286  1.0000
  H   H1210     1.0  0.10126  0.68019  0.13460  1.0000
  H   H1211     1.0  0.18330  0.72906  0.16086  1.0000
  C   C725      1.0  0.19848  0.70511  0.13112  1.0000
  H   H1212     1.0  0.17068  0.68894  0.17361  1.0000
  H   H1213     1.0  0.06053  0.52399  0.38175  1.0000
  S   S216      1.0  0.00183  0.63603  0.33657  1.0000
  S   S217      1.0  0.02792  0.69904  0.47214  1.0000
  H   H1214     1.0  0.05025  0.56370  0.33655  1.0000
  H   H1215     1.0  0.22068  0.51114  0.99655  1.0000
  H   H1216     1.0  0.21017  0.51488  0.10513  1.0000
  C   C726      1.0  0.21561  0.52353  0.99336  1.0000
  S   S218      1.0  0.00711  0.51547  0.39689  1.0000
  H   H1217     1.0  0.19566  0.65974  0.17074  1.0000
  H   H1218     1.0  0.10150  0.73128  0.15565  1.0000
  H   H1219     1.0  0.09857  0.71682  0.18355  1.0000
  C   C727      1.0  0.00279  0.68090  0.37930  1.0000
  C   C728      1.0  0.17559  0.69398  0.19845  1.0000
  C   C729      1.0  0.03299  0.57276  0.38935  1.0000
  C   C730      1.0  0.06225  0.69708  0.37982  1.0000
  H   H1220     1.0  0.16730  0.53677  0.07576  1.0000
  H   H1221     1.0  0.08358  0.71428  0.12887  1.0000
  N   N51       1.0  0.10863  0.71104  0.14483  1.0000
  H   H1222     1.0  0.17025  0.51695  0.14601  1.0000
  C   C731      1.0  0.22617  0.71277  0.13165  1.0000
  C   C732      1.0  0.12625  0.70740  0.14263  1.0000
  C   C733      1.0  0.10349  0.69579  0.14804  1.0000
  C   C734      1.0  0.23761  0.62590  0.04083  1.0000
  C   C735      1.0  0.21271  0.72464  0.12991  1.0000
  C   C736      1.0  0.13367  0.72165  0.13963  1.0000
  C   C737      1.0  0.11023  0.68624  0.13500  1.0000
  C   C738      1.0  0.17701  0.49709  0.99596  1.0000
  C   C739      1.0  0.05510  0.72548  0.44763  1.0000
  H   H1223     1.0  0.07870  0.73010  0.13918  1.0000
  H   H1224     1.0  0.03968  0.73262  0.30265  1.0000
  H   H1225     1.0  0.12842  0.72863  0.14882  1.0000
  H   H1226     1.0  0.99793  0.54313  0.37401  1.0000
  C   C740      1.0  0.23749  0.62448  0.10239  1.0000
  H   H1227     1.0  0.99319  0.49719  0.47875  1.0000
  H   H1228     1.0  0.19420  0.72867  0.09928  1.0000
  C   C741      1.0  0.23154  0.65950  0.09675  1.0000
  Fe  Fe111     1.0  0.02182  0.72868  0.41635  1.0000
  H   H1229     1.0  0.10643  0.73391  0.12898  1.0000
  H   H1230     1.0  0.01317  0.73220  0.47151  1.0000
  H   H1231     1.0  0.05810  0.72949  0.40837  1.0000
  H   H1232     1.0  0.17999  0.49542  0.08440  1.0000
  C   C742      1.0  0.21840  0.48926  0.06431  1.0000
  C   C743      1.0  0.23103  0.73112  0.08519  1.0000
  H   H1233     1.0  0.02821  0.71705  0.18417  1.0000
  H   H1234     1.0  0.21366  0.48808  0.02873  1.0000
  S   S219      1.0  0.00581  0.73084  0.43999  1.0000
  H   H1235     1.0  0.23607  0.68789  0.13504  1.0000
  S   S220      1.0  0.23718  0.53499  0.03741  1.0000
  H   H1236     1.0  0.19732  0.56793  0.98206  1.0000
  H   H1237     1.0  0.13286  0.72932  0.12787  1.0000
  H   H1238     1.0  0.06930  0.72830  0.46973  1.0000
  H   H1239     1.0  0.09008  0.72660  0.43194  1.0000
  H   H1240     1.0  0.11086  0.72147  0.08637  1.0000
  H   H1241     1.0  0.23781  0.60210  0.01617  1.0000
  H   H1242     1.0  0.18475  0.50522  0.98865  1.0000
  H   H1243     1.0  0.09043  0.73050  0.09101  1.0000
  H   H1244     1.0  0.09234  0.72821  0.21213  1.0000
  H   H1245     1.0  0.22714  0.66833  0.18169  1.0000
  H   H1246     1.0  0.22921  0.72412  0.09746  1.0000
  H   H1247     1.0  0.04632  0.73097  0.06762  1.0000
  H   H1248     1.0  0.08941  0.73027  0.45082  1.0000
  H   H1249     1.0  0.23901  0.61287  0.11068  1.0000
  H   H1250     1.0  0.22556  0.48415  0.98663  1.0000
  H   H1251     1.0  0.23733  0.64944  0.04379  1.0000
  H   H1252     1.0  0.23699  0.71564  0.13160  1.0000
  C   C744      1.0  0.23615  0.63323  0.01300  1.0000
  H   H1253     1.0  0.04874  0.73344  0.47559  1.0000
  C   C745      1.0  0.21463  0.48404  0.04090  1.0000
  C   C746      1.0  0.16533  0.73050  0.83654  1.0000
  S   S221      1.0  0.21367  0.55458  0.93053  1.0000
  Fe  Fe112     1.0  0.01807  0.50505  0.57440  1.0000
  S   S222      1.0  0.03026  0.52449  0.57229  1.0000
  H   H1254     1.0  0.21635  0.61179  0.82869  1.0000
  Fe  Fe113     1.0  0.02035  0.58057  0.62560  1.0000
  S   S223      1.0  0.00366  0.59485  0.64284  1.0000
  S   S224      1.0  0.02439  0.55402  0.63031  1.0000
  Fe  Fe114     1.0  0.02668  0.60905  0.60075  1.0000
  S   S225      1.0  0.01052  0.62565  0.61517  1.0000
  S   S226      1.0  0.04008  0.61742  0.57644  1.0000
  Fe  Fe115     1.0  0.02133  0.61028  0.63527  1.0000
  S   S227      1.0  0.02314  0.62676  0.64940  1.0000
  H   H1255     1.0  0.20522  0.62963  0.81866  1.0000
  H   H1256     1.0  0.08954  0.68749  0.65025  1.0000
  S   S228      1.0  0.03905  0.59460  0.62004  1.0000
  S   S229      1.0  0.00919  0.59419  0.60528  1.0000
  H   H1257     1.0  0.23209  0.68310  0.86452  1.0000
  Fe  Fe116     1.0  0.03958  0.70290  0.56619  1.0000
  S   S230      1.0  0.05922  0.68158  0.56790  1.0000
  H   H1258     1.0  0.99387  0.53420  0.60127  1.0000
  S   S231      1.0  0.02726  0.48913  0.55710  1.0000
  H   H1259     1.0  0.04538  0.63918  0.62174  1.0000
  H   H1260     1.0  0.06195  0.71289  0.77221  1.0000
  C   C747      1.0  0.00475  0.54428  0.53050  1.0000
  H   H1261     1.0  0.03682  0.55303  0.57407  1.0000
  H   H1262     1.0  0.99580  0.56482  0.61643  1.0000
  C   C748      1.0  0.19474  0.62399  0.84393  1.0000
  C   C749      1.0  0.08273  0.69474  0.64124  1.0000
  S   S232      1.0  0.99946  0.72563  0.79122  1.0000
  C   C750      1.0  0.17611  0.57932  0.88901  1.0000
  H   H1263     1.0  0.01837  0.52569  0.51026  1.0000
  H   H1264     1.0  0.05959  0.71599  0.71611  1.0000
  H   H1265     1.0  0.15498  0.50445  0.89301  1.0000
  H   H1266     1.0  0.10283  0.69692  0.93695  1.0000
  Fe  Fe117     1.0  0.02233  0.72322  0.82299  1.0000
  C   C751      1.0  0.01612  0.48438  0.51234  1.0000
  H   H1267     1.0  0.09148  0.69733  0.63021  1.0000
  C   C752      1.0  0.21039  0.52967  0.97920  1.0000
  H   H1268     1.0  0.12663  0.59976  0.71605  1.0000
  Fe  Fe118     1.0  0.15531  0.62320  0.83125  1.0000
  S   S233      1.0  0.15323  0.64109  0.84495  1.0000
  S   S234      1.0  0.22428  0.50217  0.89544  1.0000
  Fe  Fe119     1.0  0.14270  0.64766  0.80399  1.0000
  S   S235      1.0  0.14028  0.66745  0.81548  1.0000
  S   S236      1.0  0.13628  0.65649  0.77996  1.0000
  Fe  Fe120     1.0  0.16352  0.65522  0.82179  1.0000
  Fe  Fe121     1.0  0.13016  0.65175  0.83757  1.0000
  S   S237      1.0  0.10848  0.66341  0.85277  1.0000
  S   S238      1.0  0.16712  0.63671  0.80829  1.0000
  S   S239      1.0  0.13103  0.63258  0.82588  1.0000
  S   S240      1.0  0.00581  0.70735  0.82689  1.0000
  Fe  Fe122     1.0  0.01673  0.70529  0.80190  1.0000
  S   S241      1.0  0.02787  0.68209  0.79506  1.0000
  Fe  Fe123     1.0  0.06069  0.66825  0.71468  1.0000
  S   S242      1.0  0.08354  0.67004  0.71832  1.0000
  S   S243      1.0  0.03908  0.68609  0.72224  1.0000
  Fe  Fe124     1.0  0.07518  0.63989  0.69974  1.0000
  S   S244      1.0  0.09938  0.63931  0.70241  1.0000
  S   S245      1.0  0.07341  0.62053  0.68920  1.0000
  Fe  Fe125     1.0  0.08771  0.64393  0.72660  1.0000
  S   S246      1.0  0.09575  0.63066  0.74931  1.0000
  Fe  Fe126     1.0  0.09304  0.66547  0.69399  1.0000
  S   S247      1.0  0.10924  0.67925  0.67530  1.0000
  S   S248      1.0  0.06394  0.64232  0.72466  1.0000
  S   S249      1.0  0.06978  0.66581  0.68956  1.0000
  H   H1269     1.0  0.05871  0.70421  0.73502  1.0000
  C   C753      1.0  0.08778  0.70487  0.68403  1.0000
  C   C754      1.0  0.10207  0.69944  0.67428  1.0000
  C   C755      1.0  0.11052  0.71022  0.66358  1.0000
  C   C756      1.0  0.23014  0.58435  0.97567  1.0000
  H   H1270     1.0  0.08093  0.69668  0.69196  1.0000
  H   H1271     1.0  0.12148  0.70604  0.65587  1.0000
  C   C757      1.0  0.03058  0.68304  0.77493  1.0000
  C   C758      1.0  0.02028  0.69398  0.76610  1.0000
  C   C759      1.0  0.02264  0.69457  0.74999  1.0000
  C   C760      1.0  0.03555  0.68452  0.74260  1.0000
  C   C761      1.0  0.04585  0.67361  0.75144  1.0000
  C   C762      1.0  0.04326  0.67276  0.76760  1.0000
  H   H1272     1.0  0.01031  0.70175  0.77176  1.0000
  H   H1273     1.0  0.01454  0.70288  0.74323  1.0000
  H   H1274     1.0  0.05578  0.66573  0.74588  1.0000
  H   H1275     1.0  0.05119  0.66419  0.77441  1.0000
  C   C763      1.0  0.12481  0.64909  0.77189  1.0000
  C   C764      1.0  0.11854  0.63587  0.77992  1.0000
  C   C765      1.0  0.10955  0.63043  0.77293  1.0000
  C   C766      1.0  0.10665  0.63820  0.75792  1.0000
  C   C767      1.0  0.11272  0.65155  0.75002  1.0000
  C   C768      1.0  0.12179  0.65692  0.75696  1.0000
  H   H1276     1.0  0.12078  0.62974  0.79142  1.0000
  H   H1277     1.0  0.10489  0.62009  0.77912  1.0000
  H   H1278     1.0  0.11064  0.65760  0.73845  1.0000
  H   H1279     1.0  0.12659  0.66716  0.75067  1.0000
  H   H1280     1.0  0.20971  0.64992  0.89084  1.0000
  H   H1281     1.0  0.08620  0.72052  0.71545  1.0000
  H   H1282     1.0  0.23410  0.56026  0.96326  1.0000
  H   H1283     1.0  0.05843  0.51820  0.51864  1.0000
  H   H1284     1.0  0.21696  0.67188  0.87296  1.0000
  C   C769      1.0  0.99411  0.66902  0.61315  1.0000
  C   C770      1.0  0.02917  0.71422  0.50973  1.0000
  C   C771      1.0  0.17095  0.59123  0.85819  1.0000
  H   H1285     1.0  0.04893  0.54900  0.48336  1.0000
  H   H1286     1.0  0.10563  0.57269  0.75729  1.0000
  H   H1287     1.0  0.04232  0.72395  0.62195  1.0000
  C   C772      1.0  0.11895  0.70944  0.85356  1.0000
  C   C773      1.0  0.13115  0.69686  0.84985  1.0000
  C   C774      1.0  0.12782  0.68277  0.84974  1.0000
  C   C775      1.0  0.11224  0.68115  0.85333  1.0000
  C   C776      1.0  0.09993  0.69371  0.85716  1.0000
  C   C777      1.0  0.10330  0.70793  0.85720  1.0000
  H   H1288     1.0  0.14324  0.69793  0.84726  1.0000
  H   H1289     1.0  0.13736  0.67312  0.84696  1.0000
  H   H1290     1.0  0.08784  0.69253  0.85985  1.0000
  H   H1291     1.0  0.16265  0.70599  0.82495  1.0000
  C   C778      1.0  0.99384  0.50029  0.50137  1.0000
  S   S250      1.0  0.99461  0.50493  0.52967  1.0000
  C   C779      1.0  0.16110  0.59809  0.87051  1.0000
  C   C780      1.0  0.16362  0.59207  0.88588  1.0000
  H   H1292     1.0  0.15132  0.60778  0.86825  1.0000
  H   H1293     1.0  0.15580  0.59726  0.89542  1.0000
  H   H1294     1.0  0.03378  0.70912  0.52027  1.0000
  H   H1295     1.0  0.16730  0.68555  0.86751  1.0000
  Fe  Fe127     1.0  0.19968  0.55277  0.91424  1.0000
  C   C781      1.0  0.05560  0.66272  0.62329  1.0000
  H   H1296     1.0  0.06041  0.70568  0.65357  1.0000
  H   H1297     1.0  0.04534  0.71160  0.76616  1.0000
  N   N52       1.0  0.06891  0.72444  0.63541  1.0000
  C   C782      1.0  0.00206  0.49571  0.51353  1.0000
  C   C783      1.0  0.14376  0.71962  0.67639  1.0000
  H   H1298     1.0  0.05819  0.60184  0.74925  1.0000
  H   H1299     1.0  0.11480  0.56761  0.72945  1.0000
  S   S251      1.0  0.22359  0.71325  0.87542  1.0000
  H   H1300     1.0  0.09288  0.63779  0.83802  1.0000
  H   H1301     1.0  0.21006  0.66473  0.90060  1.0000
  H   H1302     1.0  0.17093  0.62649  0.87038  1.0000
  Fe  Fe128     1.0  0.23463  0.54541  0.91296  1.0000
  H   H1303     1.0  0.07113  0.72519  0.69085  1.0000
  H   H1304     1.0  0.01975  0.52576  0.54368  1.0000
  S   S252      1.0  0.22081  0.54556  0.89583  1.0000
  S   S253      1.0  0.17873  0.57203  0.90850  1.0000
  C   C784      1.0  0.03709  0.62452  0.66066  1.0000
  C   C785      1.0  0.04871  0.61081  0.66306  1.0000
  C   C786      1.0  0.05973  0.60976  0.67187  1.0000
  C   C787      1.0  0.05922  0.62235  0.67835  1.0000
  C   C788      1.0  0.04761  0.63605  0.67592  1.0000
  C   C789      1.0  0.03662  0.63712  0.66710  1.0000
  H   H1305     1.0  0.04919  0.60103  0.65816  1.0000
  H   H1306     1.0  0.06868  0.59911  0.67369  1.0000
  H   H1307     1.0  0.04706  0.64580  0.68090  1.0000
  H   H1308     1.0  0.02764  0.64775  0.66533  1.0000
  C   C790      1.0  0.04493  0.63552  0.57388  1.0000
  C   C791      1.0  0.03340  0.64863  0.57770  1.0000
  C   C792      1.0  0.03759  0.66307  0.57528  1.0000
  C   C793      1.0  0.05338  0.66419  0.56962  1.0000
  C   C794      1.0  0.06486  0.65103  0.56603  1.0000
  C   C795      1.0  0.06061  0.63682  0.56786  1.0000
  H   H1309     1.0  0.02124  0.64770  0.58217  1.0000
  H   H1310     1.0  0.02869  0.67326  0.57801  1.0000
  H   H1311     1.0  0.07706  0.65188  0.56161  1.0000
  H   H1312     1.0  0.06951  0.62674  0.56483  1.0000
  H   H1313     1.0  0.15384  0.71605  0.80817  1.0000
  S   S254      1.0  0.16777  0.59793  0.83889  1.0000
  C   C796      1.0  0.02951  0.53198  0.58864  1.0000
  C   C797      1.0  0.02508  0.52379  0.60411  1.0000
  C   C798      1.0  0.02418  0.53038  0.61680  1.0000
  C   C799      1.0  0.02719  0.54540  0.61414  1.0000
  C   C800      1.0  0.03178  0.55349  0.59866  1.0000
  C   C801      1.0  0.03319  0.54669  0.58598  1.0000
  H   H1314     1.0  0.02242  0.51237  0.60631  1.0000
  H   H1315     1.0  0.02073  0.52400  0.62874  1.0000
  H   H1316     1.0  0.03437  0.56495  0.59645  1.0000
  H   H1317     1.0  0.10034  0.59792  0.74597  1.0000
  C   C802      1.0  0.06381  0.62514  0.60755  1.0000
  H   H1318     1.0  0.20029  0.63377  0.87570  1.0000
  H   H1319     1.0  0.13520  0.73191  0.91048  1.0000
  H   H1320     1.0  0.06457  0.62989  0.63794  1.0000
  H   H1321     1.0  0.04234  0.52330  0.48955  1.0000
  C   C803      1.0  0.16494  0.71221  0.81248  1.0000
  C   C804      1.0  0.07881  0.65311  0.60297  1.0000
  S   S255      1.0  0.02435  0.71037  0.58806  1.0000
  N   N53       1.0  0.07965  0.67211  0.81144  1.0000
  C   C805      1.0  0.08790  0.66660  0.79635  1.0000
  C   C806      1.0  0.08800  0.66151  0.82409  1.0000
  C   C807      1.0  0.08117  0.68885  0.80906  1.0000
  C   C808      1.0  0.06259  0.67127  0.81480  1.0000
  C   C809      1.0  0.08245  0.67692  0.78133  1.0000
  C   C810      1.0  0.08001  0.69471  0.82388  1.0000
  C   C811      1.0  0.05214  0.67456  0.83065  1.0000
  H   H1322     1.0  0.10084  0.66564  0.79414  1.0000
  H   H1323     1.0  0.08638  0.65463  0.79710  1.0000
  H   H1324     1.0  0.08329  0.66521  0.83548  1.0000
  H   H1325     1.0  0.10061  0.66233  0.82094  1.0000
  H   H1326     1.0  0.09283  0.69056  0.80140  1.0000
  H   H1327     1.0  0.07216  0.69723  0.80279  1.0000
  H   H1328     1.0  0.05665  0.68000  0.80578  1.0000
  H   H1329     1.0  0.06125  0.65989  0.81348  1.0000
  H   H1330     1.0  0.08937  0.67155  0.77119  1.0000
  H   H1331     1.0  0.06991  0.67748  0.78194  1.0000
  H   H1332     1.0  0.08462  0.68891  0.77865  1.0000
  H   H1333     1.0  0.09081  0.68940  0.82865  1.0000
  H   H1334     1.0  0.06961  0.69244  0.83327  1.0000
  H   H1335     1.0  0.07902  0.70763  0.82071  1.0000
  H   H1336     1.0  0.04717  0.68734  0.82972  1.0000
  H   H1337     1.0  0.05812  0.66987  0.84060  1.0000
  H   H1338     1.0  0.04219  0.66853  0.83391  1.0000
  H   H1339     1.0  0.04073  0.68580  0.61684  1.0000
  S   S256      1.0  0.99432  0.51349  0.56833  1.0000
  H   H1340     1.0  0.04799  0.53931  0.54275  1.0000
  H   H1341     1.0  0.00138  0.55795  0.59300  1.0000
  H   H1342     1.0  0.09876  0.72391  0.61255  1.0000
  H   H1343     1.0  0.05932  0.54455  0.52302  1.0000
  C   C812      1.0  0.99958  0.49355  0.48808  1.0000
  C   C813      1.0  0.21724  0.59306  0.85769  1.0000
  H   H1344     1.0  0.08694  0.64245  0.59933  1.0000
  S   S257      1.0  0.01953  0.70557  0.55493  1.0000
  Fe  Fe129     1.0  0.00285  0.49625  0.55261  1.0000
  H   H1345     1.0  0.21263  0.65316  0.84818  1.0000
  H   H1346     1.0  0.17067  0.63849  0.88311  1.0000
  S   S258      1.0  0.22900  0.71626  0.83721  1.0000
  C   C814      1.0  0.99590  0.55919  0.57126  1.0000
  H   H1347     1.0  0.23012  0.64653  0.83469  1.0000
  S   S259      1.0  0.21183  0.51717  0.96679  1.0000
  H   H1348     1.0  0.05279  0.50761  0.50296  1.0000
  H   H1349     1.0  0.06005  0.53456  0.49628  1.0000
  H   H1350     1.0  0.17462  0.73149  0.79701  1.0000
  H   H1351     1.0  0.06497  0.70177  0.75785  1.0000
  N   N54       1.0  0.11210  0.68895  0.90615  1.0000
  C   C815      1.0  0.09442  0.69177  0.91213  1.0000
  C   C816      1.0  0.11943  0.68283  0.92033  1.0000
  C   C817      1.0  0.11683  0.67681  0.89618  1.0000
  C   C818      1.0  0.11606  0.70436  0.89655  1.0000
  C   C819      1.0  0.08453  0.69439  0.89982  1.0000
  H   H1352     1.0  0.22516  0.62592  0.85940  1.0000
  C   C820      1.0  0.13413  0.66768  0.89350  1.0000
  C   C821      1.0  0.13365  0.70488  0.89051  1.0000
  H   H1353     1.0  0.09105  0.68171  0.92164  1.0000
  H   H1354     1.0  0.08995  0.70224  0.91755  1.0000
  H   H1355     1.0  0.13244  0.67946  0.91702  1.0000
  H   H1356     1.0  0.11577  0.67175  0.92742  1.0000
  H   H1357     1.0  0.10978  0.66757  0.90150  1.0000
  H   H1358     1.0  0.11412  0.68227  0.88436  1.0000
  H   H1359     1.0  0.11098  0.70823  0.88595  1.0000
  H   H1360     1.0  0.11019  0.71409  0.90286  1.0000
  H   H1361     1.0  0.08741  0.70373  0.88943  1.0000
  H   H1362     1.0  0.08584  0.68346  0.89587  1.0000
  H   H1363     1.0  0.07186  0.69811  0.90522  1.0000
  S   S260      1.0  0.04484  0.72667  0.55398  1.0000
  H   H1364     1.0  0.99133  0.67183  0.64388  1.0000
  H   H1365     1.0  0.19590  0.56299  0.87883  1.0000
  H   H1366     1.0  0.13597  0.66050  0.88472  1.0000
  H   H1367     1.0  0.13683  0.65936  0.90444  1.0000
  H   H1368     1.0  0.14268  0.67534  0.88869  1.0000
  H   H1369     1.0  0.13830  0.70159  0.87890  1.0000
  H   H1370     1.0  0.14118  0.69761  0.89873  1.0000
  H   H1371     1.0  0.13499  0.71704  0.88899  1.0000
  C   C822      1.0  0.16749  0.50037  0.89385  1.0000
  H   H1372     1.0  0.06676  0.52757  0.53660  1.0000
  H   H1373     1.0  0.11956  0.70529  0.92543  1.0000
  H   H1374     1.0  0.23335  0.64145  0.91171  1.0000
  H   H1375     1.0  0.06949  0.64916  0.64898  1.0000
  C   C823      1.0  0.02955  0.52041  0.51437  1.0000
  C   C824      1.0  0.01041  0.66442  0.61735  1.0000
  C   C825      1.0  0.08941  0.66302  0.60459  1.0000
  C   C826      1.0  0.20443  0.61908  0.82839  1.0000
  C   C827      1.0  0.11556  0.69420  0.93146  1.0000
  C   C828      1.0  0.08224  0.72098  0.68346  1.0000
  H   H1376     1.0  0.09290  0.67085  0.59300  1.0000
  H   H1377     1.0  0.12183  0.68859  0.94123  1.0000
  C   C829      1.0  0.01766  0.72717  0.48212  1.0000
  H   H1378     1.0  0.00747  0.56236  0.56544  1.0000
  H   H1379     1.0  0.23455  0.66260  0.91919  1.0000
  C   C830      1.0  0.10484  0.72640  0.66290  1.0000
  H   H1380     1.0  0.99319  0.69630  0.62130  1.0000
  H   H1381     1.0  0.17288  0.70345  0.80570  1.0000
  H   H1382     1.0  0.22798  0.67786  0.89246  1.0000
  C   C831      1.0  0.04886  0.67651  0.61088  1.0000
  H   H1383     1.0  0.22066  0.57767  0.97966  1.0000
  S   S261      1.0  0.04097  0.71866  0.83674  1.0000
  H   H1384     1.0  0.08561  0.70789  0.73494  1.0000
  H   H1385     1.0  0.99672  0.54781  0.54126  1.0000
  H   H1386     1.0  0.07403  0.62591  0.59748  1.0000
  S   S262      1.0  0.18906  0.70443  0.86524  1.0000
  Fe  Fe130     1.0  0.20864  0.71777  0.85792  1.0000
  H   H1387     1.0  0.05827  0.68193  0.60222  1.0000
  C   C832      1.0  0.06296  0.71478  0.72734  1.0000
  H   H1388     1.0  0.17731  0.72332  0.83731  1.0000
  N   N55       1.0  0.17554  0.52714  0.88034  1.0000
  C   C833      1.0  0.18684  0.53397  0.86603  1.0000
  C   C834      1.0  0.15916  0.53514  0.87783  1.0000
  C   C835      1.0  0.17842  0.50983  0.88082  1.0000
  C   C836      1.0  0.17876  0.52976  0.89480  1.0000
  C   C837      1.0  0.20456  0.52764  0.86579  1.0000
  C   C838      1.0  0.15443  0.55300  0.87718  1.0000
  H   H1389     1.0  0.17102  0.48795  0.89257  1.0000
  C   C839      1.0  0.16572  0.52847  0.91005  1.0000
  H   H1390     1.0  0.18475  0.53234  0.85507  1.0000
  H   H1391     1.0  0.18492  0.54683  0.86467  1.0000
  H   H1392     1.0  0.14996  0.52991  0.88691  1.0000
  H   H1393     1.0  0.15769  0.53337  0.86666  1.0000
  H   H1394     1.0  0.17770  0.50801  0.86939  1.0000
  H   H1395     1.0  0.19048  0.50377  0.88248  1.0000
  H   H1396     1.0  0.18969  0.52141  0.89770  1.0000
  H   H1397     1.0  0.18142  0.54158  0.89241  1.0000
  H   H1398     1.0  0.21140  0.53405  0.85495  1.0000
  H   H1399     1.0  0.20782  0.52980  0.87581  1.0000
  H   H1400     1.0  0.20851  0.51502  0.86543  1.0000
  H   H1401     1.0  0.15700  0.55615  0.88705  1.0000
  H   H1402     1.0  0.16014  0.55974  0.86584  1.0000
  H   H1403     1.0  0.14154  0.55708  0.87792  1.0000
  H   H1404     1.0  0.08569  0.70048  0.71868  1.0000
  H   H1405     1.0  0.03624  0.50535  0.49769  1.0000
  C   C840      1.0  0.21265  0.48805  0.90165  1.0000
  H   H1406     1.0  0.17047  0.51934  0.91960  1.0000
  H   H1407     1.0  0.15505  0.52538  0.90929  1.0000
  H   H1408     1.0  0.16204  0.53974  0.91407  1.0000
  H   H1409     1.0  0.12762  0.58375  0.73334  1.0000
  C   C841      1.0  0.22896  0.67178  0.86566  1.0000
  H   H1410     1.0  0.09380  0.71771  0.85989  1.0000
  C   C842      1.0  0.09450  0.58312  0.70197  1.0000
  C   C843      1.0  0.07119  0.60017  0.74702  1.0000
  C   C844      1.0  0.10387  0.59900  0.73304  1.0000
  H   H1411     1.0  0.21852  0.58174  0.86649  1.0000
  C   C845      1.0  0.19905  0.69260  0.83835  1.0000
  H   H1412     1.0  0.07445  0.60360  0.72235  1.0000
  H   H1413     1.0  0.15532  0.71631  0.67976  1.0000
  H   H1414     1.0  0.21209  0.59124  0.84874  1.0000
  H   H1415     1.0  0.08333  0.62789  0.62499  1.0000
  C   C846      1.0  0.12199  0.59609  0.72886  1.0000
  C   C847      1.0  0.09963  0.56658  0.75244  1.0000
  C   C848      1.0  0.03040  0.73273  0.72324  1.0000
  H   H1416     1.0  0.99938  0.53613  0.52761  1.0000
  Fe  Fe131     1.0  0.00465  0.71539  0.57573  1.0000
  S   S263      1.0  0.01086  0.48611  0.59517  1.0000
  H   H1417     1.0  0.99432  0.66075  0.60598  1.0000
  H   H1418     1.0  0.08915  0.72126  0.95905  1.0000
  C   C849      1.0  0.18533  0.67644  0.83182  1.0000
  H   H1419     1.0  0.03048  0.72112  0.72134  1.0000
  H   H1420     1.0  0.18504  0.72043  0.81195  1.0000
  C   C850      1.0  0.07179  0.70923  0.64738  1.0000
  C   C851      1.0  0.03612  0.54670  0.50798  1.0000
  H   H1421     1.0  0.19799  0.61217  0.82497  1.0000
  H   H1422     1.0  0.07373  0.65931  0.59245  1.0000
  C   C852      1.0  0.21905  0.62751  0.84976  1.0000
  C   C853      1.0  0.18812  0.69314  0.85260  1.0000
  C   C854      1.0  0.17797  0.62865  0.87748  1.0000
  Fe  Fe132     1.0  0.21943  0.52094  0.90922  1.0000
  H   H1423     1.0  0.16883  0.50002  0.90572  1.0000
  H   H1424     1.0  0.06162  0.66786  0.62909  1.0000
  H   H1425     1.0  0.08355  0.67101  0.61274  1.0000
  C   C855      1.0  0.05591  0.53467  0.53256  1.0000
  H   H1426     1.0  0.16497  0.67067  0.84923  1.0000
  C   C856      1.0  0.05162  0.54600  0.49523  1.0000
  H   H1427     1.0  0.08699  0.56815  0.75819  1.0000
  H   H1428     1.0  0.20607  0.68411  0.81691  1.0000
  H   H1429     1.0  0.04626  0.51420  0.53727  1.0000
  S   S264      1.0  0.18390  0.66669  0.81812  1.0000
  C   C857      1.0  0.20387  0.54571  0.97518  1.0000
  H   H1430     1.0  0.06726  0.61582  0.61762  1.0000
  H   H1431     1.0  0.03415  0.72013  0.74595  1.0000
  H   H1432     1.0  0.03501  0.55660  0.51355  1.0000
  C   C858      1.0  0.10442  0.73365  0.96302  1.0000
  C   C859      1.0  0.22532  0.59845  0.96254  1.0000
  H   H1433     1.0  0.05258  0.70458  0.63055  1.0000
  H   H1434     1.0  0.10027  0.65535  0.60824  1.0000
  H   H1435     1.0  0.02724  0.51007  0.52403  1.0000
  H   H1436     1.0  0.08543  0.63260  0.64890  1.0000
  H   H1437     1.0  0.18010  0.61821  0.88713  1.0000
  S   S265      1.0  0.03420  0.71959  0.79878  1.0000
  H   H1438     1.0  0.18850  0.63641  0.84042  1.0000
  H   H1439     1.0  0.21437  0.60622  0.96763  1.0000
  Fe  Fe133     1.0  0.21326  0.52917  0.94112  1.0000
  N   N56       1.0  0.06620  0.64866  0.61715  1.0000
  C   C860      1.0  0.05593  0.64110  0.61220  1.0000
  H   H1440     1.0  0.04204  0.67309  0.60446  1.0000
  H   H1441     1.0  0.05527  0.71145  0.60959  1.0000
  H   H1442     1.0  0.21102  0.60541  0.87640  1.0000
  C   C861      1.0  0.05358  0.71504  0.62084  1.0000
  H   H1443     1.0  0.20693  0.64638  0.91194  1.0000
  H   H1444     1.0  0.05515  0.62128  0.60367  1.0000
  C   C862      1.0  0.06750  0.72212  0.62004  1.0000
  H   H1445     1.0  0.07826  0.71470  0.61431  1.0000
  Fe  Fe134     1.0  0.02346  0.73003  0.54423  1.0000
  H   H1446     1.0  0.04553  0.65911  0.63271  1.0000
  C   C863      1.0  0.07333  0.63671  0.63003  1.0000
  C   C864      1.0  0.07936  0.64283  0.64107  1.0000
  H   H1447     1.0  0.05127  0.64886  0.60194  1.0000
  H   H1448     1.0  0.07542  0.64215  0.83069  1.0000
  H   H1449     1.0  0.10346  0.71496  0.63193  1.0000
  H   H1450     1.0  0.07505  0.59231  0.75758  1.0000
  H   H1451     1.0  0.09938  0.61158  0.72794  1.0000
  H   H1452     1.0  0.22738  0.62008  0.84186  1.0000
  H   H1453     1.0  0.08145  0.58606  0.70488  1.0000
  H   H1454     1.0  0.99133  0.68940  0.56830  1.0000
  H   H1455     1.0  0.10485  0.55383  0.75566  1.0000
  H   H1456     1.0  0.08793  0.65027  0.63476  1.0000
  C   C865      1.0  0.20625  0.60594  0.86611  1.0000
  C   C866      1.0  0.17452  0.67669  0.84621  1.0000
  C   C867      1.0  0.10205  0.57162  0.73443  1.0000
  C   C868      1.0  0.04879  0.52402  0.52704  1.0000
  H   H1457     1.0  0.21152  0.64738  0.83098  1.0000
  S   S266      1.0  0.12386  0.72659  0.85409  1.0000
  H   H1458     1.0  0.03635  0.69251  0.50174  1.0000
  H   H1459     1.0  0.02408  0.54457  0.53940  1.0000
  H   H1460     1.0  0.02628  0.55051  0.50167  1.0000
  H   H1461     1.0  0.12562  0.60353  0.73456  1.0000
  H   H1462     1.0  0.05780  0.55497  0.49536  1.0000
  C   C869      1.0  0.23132  0.64517  0.89954  1.0000
  H   H1463     1.0  0.07570  0.68704  0.64002  1.0000
  N   N57       1.0  0.03425  0.53198  0.52044  1.0000
  H   H1464     1.0  0.19014  0.64538  0.86071  1.0000
  C   C870      1.0  0.10179  0.59148  0.71002  1.0000
  H   H1465     1.0  0.07663  0.71088  0.65669  1.0000
  H   H1466     1.0  0.06764  0.72344  0.84409  1.0000
  C   C871      1.0  0.19354  0.63313  0.86739  1.0000
  H   H1467     1.0  0.99437  0.73068  0.53743  1.0000
  H   H1468     1.0  0.19927  0.49556  0.92296  1.0000
  H   H1469     1.0  0.19949  0.55049  0.96450  1.0000
  S   S267      1.0  0.19722  0.52807  0.92658  1.0000
  H   H1470     1.0  0.09812  0.58713  0.68901  1.0000
  C   C872      1.0  0.21805  0.64465  0.84043  1.0000
  H   H1471     1.0  0.23360  0.63383  0.89599  1.0000
  C   C873      1.0  0.21359  0.65209  0.90051  1.0000
  H   H1472     1.0  0.23053  0.60377  0.92122  1.0000
  C   C874      1.0  0.17590  0.68507  0.85656  1.0000
  H   H1473     1.0  0.99687  0.70460  0.53398  1.0000
  C   C875      1.0  0.20122  0.48728  0.91568  1.0000
  H   H1474     1.0  0.11474  0.58745  0.70630  1.0000
  C   C876      1.0  0.03065  0.70482  0.49919  1.0000
  H   H1475     1.0  0.01212  0.65320  0.62604  1.0000
  C   C877      1.0  0.05981  0.72769  0.74923  1.0000
  H   H1476     1.0  0.09592  0.56445  0.73097  1.0000
  C   C878      1.0  0.19766  0.68429  0.82802  1.0000
  N   N58       1.0  0.20354  0.62250  0.85640  1.0000
  H   H1477     1.0  0.18530  0.61722  0.84876  1.0000
  N   N59       1.0  0.09659  0.58885  0.72771  1.0000
  H   H1478     1.0  0.07321  0.58411  0.73249  1.0000
  H   H1479     1.0  0.01960  0.66283  0.60659  1.0000
  H   H1480     1.0  0.19124  0.57334  0.85175  1.0000
  H   H1481     1.0  0.13794  0.70956  0.68224  1.0000
  H   H1482     1.0  0.18946  0.72188  0.90042  1.0000
  H   H1483     1.0  0.20845  0.69879  0.83511  1.0000
  C   C879      1.0  0.08759  0.64399  0.82765  1.0000
  H   H1484     1.0  0.09480  0.63833  0.81781  1.0000
  H   H1485     1.0  0.09915  0.60428  0.70459  1.0000
  C   C880      1.0  0.07878  0.59386  0.73181  1.0000
  C   C881      1.0  0.17299  0.72596  0.80981  1.0000
  H   H1486     1.0  0.15769  0.72180  0.84136  1.0000
  H   H1487     1.0  0.23143  0.57936  0.91335  1.0000
  C   C882      1.0  0.08113  0.71090  0.72404  1.0000
  C   C883      1.0  0.18350  0.57857  0.86129  1.0000
  H   H1488     1.0  0.07360  0.61186  0.74572  1.0000
  H   H1489     1.0  0.09883  0.57020  0.70473  1.0000
  H   H1490     1.0  0.19497  0.60200  0.87108  1.0000
  C   C884      1.0  0.02119  0.53634  0.53409  1.0000
  C   C885      1.0  0.18615  0.57269  0.87662  1.0000
  H   H1491     1.0  0.22259  0.59471  0.95311  1.0000
  C   C886      1.0  0.04287  0.73310  0.84518  1.0000
  H   H1492     1.0  0.99333  0.68066  0.60489  1.0000
  C   C887      1.0  0.02214  0.73019  0.50642  1.0000
  C   C888      1.0  0.05782  0.71256  0.76188  1.0000
  H   H1493     1.0  0.00487  0.55508  0.52109  1.0000
  N   N60       1.0  0.05505  0.72914  0.73410  1.0000
  C   C889      1.0  0.03751  0.73072  0.73753  1.0000
  H   H1494     1.0  0.22929  0.59514  0.85256  1.0000
  H   H1495     1.0  0.15595  0.72507  0.90636  1.0000
  S   S268      1.0  0.23532  0.52008  0.92460  1.0000
  C   C890      1.0  0.02499  0.71125  0.48532  1.0000
  C   C891      1.0  0.04115  0.51400  0.50041  1.0000
  S   S269      1.0  0.08754  0.73252  0.92647  1.0000
  C   C892      1.0  0.09832  0.72586  0.62422  1.0000
  H   H1496     1.0  0.22859  0.67132  0.85365  1.0000
  C   C893      1.0  0.09671  0.72956  0.95371  1.0000
  H   H1497     1.0  0.01263  0.67369  0.62174  1.0000
  H   H1498     1.0  0.14544  0.72075  0.66362  1.0000
  Fe  Fe135     1.0  0.99404  0.60941  0.62189  1.0000
  H   H1499     1.0  0.07229  0.72857  0.74695  1.0000
  H   H1500     1.0  0.99272  0.71767  0.51641  1.0000
  H   H1501     1.0  0.99311  0.54484  0.62293  1.0000
  H   H1502     1.0  0.99754  0.54655  0.57161  1.0000
  H   H1503     1.0  0.23984  0.64706  0.86937  1.0000
  C   C894      1.0  0.09083  0.73172  0.67310  1.0000
  H   H1504     1.0  0.23435  0.60562  0.95737  1.0000
  H   H1505     1.0  0.04364  0.72875  0.64484  1.0000
  H   H1506     1.0  0.23871  0.68178  0.91199  1.0000
  H   H1507     1.0  0.05627  0.72967  0.66657  1.0000
  H   H1508     1.0  0.17511  0.72836  0.91646  1.0000
  H   H1509     1.0  0.13269  0.73175  0.69504  1.0000
  C   C895      1.0  0.18377  0.73224  0.90582  1.0000
  H   H1510     1.0  0.10286  0.72848  0.97548  1.0000
  C   C896      1.0  0.23987  0.67057  0.89325  1.0000
  H   H1511     1.0  0.18154  0.48821  0.97540  1.0000
  C   C897      1.0  0.05767  0.73256  0.84756  1.0000
  C   C898      1.0  0.08168  0.73333  0.63233  1.0000
  H   H1512     1.0  0.06629  0.73353  0.61144  1.0000
  Fe  Fe136     1.0  0.17826  0.82884  0.03098  1.0000
  S   S270      1.0  0.16691  0.92215  0.14655  1.0000
  Fe  Fe137     1.0  0.13930  0.90479  0.23400  1.0000
  S   S271      1.0  0.13142  0.91944  0.25208  1.0000
  S   S272      1.0  0.16390  0.90121  0.21943  1.0000
  Fe  Fe138     1.0  0.10940  0.89167  0.24462  1.0000
  S   S273      1.0  0.09890  0.90526  0.26380  1.0000
  S   S274      1.0  0.10351  0.87037  0.24141  1.0000
  Fe  Fe139     1.0  0.10806  0.92521  0.24554  1.0000
  S   S275      1.0  0.09645  0.95087  0.23977  1.0000
  Fe  Fe140     1.0  0.12326  0.89839  0.26848  1.0000
  S   S276      1.0  0.13044  0.88679  0.29140  1.0000
  S   S277      1.0  0.11660  0.91204  0.22593  1.0000
  S   S278      1.0  0.13300  0.88340  0.25089  1.0000
  H   H1513     1.0  0.21223  0.80624  0.08752  1.0000
  H   H1514     1.0  0.15477  0.81145  0.35865  1.0000
  S   S279      1.0  0.17916  0.82912  0.34777  1.0000
  H   H1515     1.0  0.20248  0.90653  0.31947  1.0000
  Fe  Fe141     1.0  0.05028  0.81819  0.19958  1.0000
  S   S280      1.0  0.05030  0.79818  0.22042  1.0000
  S   S281      1.0  0.05433  0.81297  0.17566  1.0000
  Fe  Fe142     1.0  0.04457  0.84188  0.21964  1.0000
  S   S282      1.0  0.04302  0.82368  0.24224  1.0000
  S   S283      1.0  0.04396  0.86687  0.21985  1.0000
  Fe  Fe143     1.0  0.06428  0.80981  0.22871  1.0000
  S   S284      1.0  0.08471  0.79499  0.23931  1.0000
  Fe  Fe144     1.0  0.02901  0.81370  0.23201  1.0000
  S   S285      1.0  0.06666  0.82838  0.20656  1.0000
  S   S286      1.0  0.02818  0.83339  0.21061  1.0000
  C   C899      1.0  0.18949  0.90941  0.32379  1.0000
  S   S287      1.0  0.07929  0.80373  0.30762  1.0000
  C   C900      1.0  0.18150  0.91077  0.31031  1.0000
  H   H1516     1.0  0.16001  0.95067  0.32163  1.0000
  S   S288      1.0  0.16259  0.82362  0.05498  1.0000
  C   C901      1.0  0.16548  0.92545  0.28430  1.0000
  Fe  Fe145     1.0  0.17618  0.79889  0.05546  1.0000
  S   S289      1.0  0.16515  0.77791  0.06310  1.0000
  Fe  Fe146     1.0  0.18205  0.82668  0.06401  1.0000
  S   S290      1.0  0.17795  0.83673  0.08536  1.0000
  N   N61       1.0  0.16373  0.91393  0.31444  1.0000
  C   C902      1.0  0.10773  0.78557  0.09681  1.0000
  C   C903      1.0  0.13152  0.78237  0.03215  1.0000
  C   C904      1.0  0.13853  0.76753  0.03980  1.0000
  C   C905      1.0  0.14895  0.76613  0.04930  1.0000
  C   C906      1.0  0.15266  0.77958  0.05076  1.0000
  C   C907      1.0  0.14608  0.79437  0.04263  1.0000
  C   C908      1.0  0.13536  0.79577  0.03349  1.0000
  H   H1517     1.0  0.22620  0.80589  0.17994  1.0000
  H   H1518     1.0  0.15013  0.77870  0.00113  1.0000
  H   H1519     1.0  0.14898  0.80479  0.04358  1.0000
  H   H1520     1.0  0.13004  0.80728  0.02748  1.0000
  C   C909      1.0  0.08378  0.79793  0.25795  1.0000
  C   C910      1.0  0.07459  0.81162  0.26281  1.0000
  C   C911      1.0  0.07312  0.81332  0.27812  1.0000
  C   C912      1.0  0.08100  0.80140  0.28857  1.0000
  C   C913      1.0  0.09028  0.78774  0.28368  1.0000
  C   C914      1.0  0.09180  0.78608  0.26836  1.0000
  H   H1521     1.0  0.06884  0.82107  0.25471  1.0000
  H   H1522     1.0  0.06605  0.82397  0.28176  1.0000
  H   H1523     1.0  0.09604  0.77826  0.29179  1.0000
  H   H1524     1.0  0.09889  0.77543  0.26471  1.0000
  C   C915      1.0  0.04059  0.80369  0.17352  1.0000
  C   C916      1.0  0.04255  0.79931  0.15930  1.0000
  H   H1525     1.0  0.05910  0.97363  0.27627  1.0000
  C   C917      1.0  0.07083  0.74612  0.43845  1.0000
  H   H1526     1.0  0.14455  0.92196  0.30205  1.0000
  C   C918      1.0  0.02819  0.79991  0.18604  1.0000
  S   S291      1.0  0.19425  0.80121  0.06679  1.0000
  H   H1527     1.0  0.18601  0.92001  0.30061  1.0000
  H   H1528     1.0  0.13732  0.89899  0.31961  1.0000
  H   H1529     1.0  0.02677  0.80301  0.19714  1.0000
  C   C919      1.0  0.17043  0.82085  0.33761  1.0000
  C   C920      1.0  0.17545  0.82194  0.32137  1.0000
  C   C921      1.0  0.16942  0.81400  0.31384  1.0000
  H   H1530     1.0  0.18412  0.82871  0.31462  1.0000
  H   H1531     1.0  0.17372  0.81457  0.30135  1.0000
  C   C922      1.0  0.10157  0.96265  0.24922  1.0000
  H   H1532     1.0  0.21022  0.83399  0.27937  1.0000
  N   N62       1.0  0.18285  0.97048  0.14774  1.0000
  H   H1533     1.0  0.22970  0.86339  0.09264  1.0000
  C   C923      1.0  0.11100  0.96571  0.27058  1.0000
  C   C924      1.0  0.10690  0.95615  0.26320  1.0000
  H   H1534     1.0  0.05889  0.78566  0.28089  1.0000
  H   H1535     1.0  0.24039  0.85491  0.43207  1.0000
  H   H1536     1.0  0.11485  0.96067  0.28155  1.0000
  H   H1537     1.0  0.10751  0.94383  0.26854  1.0000
  C   C925      1.0  0.08601  0.86988  0.23685  1.0000
  C   C926      1.0  0.08409  0.85538  0.23593  1.0000
  C   C927      1.0  0.07106  0.85445  0.23102  1.0000
  C   C928      1.0  0.05984  0.86802  0.22688  1.0000
  C   C929      1.0  0.06162  0.88257  0.22799  1.0000
  C   C930      1.0  0.07467  0.88350  0.23304  1.0000
  H   H1538     1.0  0.09279  0.84479  0.23886  1.0000
  H   H1539     1.0  0.06978  0.84319  0.23034  1.0000
  H   H1540     1.0  0.05292  0.89309  0.22487  1.0000
  H   H1541     1.0  0.07607  0.89474  0.23372  1.0000
  C   C931      1.0  0.15105  0.88230  0.28802  1.0000
  C   C932      1.0  0.15862  0.87255  0.29988  1.0000
  C   C933      1.0  0.17494  0.87041  0.29786  1.0000
  C   C934      1.0  0.18362  0.87841  0.28419  1.0000
  C   C935      1.0  0.17618  0.88756  0.27204  1.0000
  C   C936      1.0  0.15997  0.88929  0.27387  1.0000
  H   H1542     1.0  0.15185  0.86684  0.31075  1.0000
  H   H1543     1.0  0.18069  0.86276  0.30703  1.0000
  H   H1544     1.0  0.18289  0.89354  0.26133  1.0000
  H   H1545     1.0  0.15436  0.89648  0.26449  1.0000
  H   H1546     1.0  0.03376  0.76129  0.19869  1.0000
  C   C937      1.0  0.15810  0.80514  0.32236  1.0000
  C   C938      1.0  0.18381  0.85861  0.09716  1.0000
  C   C939      1.0  0.07725  0.74001  0.39336  1.0000
  H   H1547     1.0  0.08047  0.78998  0.11823  1.0000
  H   H1548     1.0  0.17902  0.85195  0.10854  1.0000
  C   C940      1.0  0.16573  0.91538  0.16680  1.0000
  C   C941      1.0  0.15229  0.92132  0.17731  1.0000
  C   C942      1.0  0.15159  0.91681  0.19353  1.0000
  C   C943      1.0  0.16436  0.90644  0.19925  1.0000
  C   C944      1.0  0.17775  0.90038  0.18878  1.0000
  C   C945      1.0  0.17835  0.90471  0.17257  1.0000
  H   H1549     1.0  0.14253  0.92962  0.17286  1.0000
  H   H1550     1.0  0.14133  0.92171  0.20152  1.0000
  H   H1551     1.0  0.18763  0.89228  0.19318  1.0000
  H   H1552     1.0  0.18857  0.89977  0.16457  1.0000
  C   C946      1.0  0.20813  0.77149  0.33821  1.0000
  N   N63       1.0  0.11303  0.88152  0.19045  1.0000
  C   C947      1.0  0.09864  0.87521  0.19232  1.0000
  C   C948      1.0  0.10755  0.89595  0.19736  1.0000
  C   C949      1.0  0.12417  0.86907  0.19954  1.0000
  C   C950      1.0  0.12049  0.88509  0.17314  1.0000
  C   C951      1.0  0.10168  0.85876  0.18884  1.0000
  C   C952      1.0  0.09559  0.90949  0.18967  1.0000
  C   C953      1.0  0.13623  0.87456  0.20480  1.0000
  C   C954      1.0  0.13447  0.89332  0.16803  1.0000
  H   H1553     1.0  0.09142  0.87457  0.20449  1.0000
  H   H1554     1.0  0.09076  0.88322  0.18457  1.0000
  H   H1555     1.0  0.11745  0.90105  0.19703  1.0000
  H   H1556     1.0  0.10209  0.89276  0.21011  1.0000
  H   H1557     1.0  0.11742  0.86277  0.21062  1.0000
  H   H1558     1.0  0.13091  0.85990  0.19272  1.0000
  H   H1559     1.0  0.12506  0.87406  0.16868  1.0000
  H   H1560     1.0  0.11164  0.89200  0.16598  1.0000
  H   H1561     1.0  0.10791  0.84946  0.19726  1.0000
  H   H1562     1.0  0.09014  0.85582  0.19036  1.0000
  H   H1563     1.0  0.10814  0.85831  0.17660  1.0000
  H   H1564     1.0  0.10015  0.91347  0.17689  1.0000
  H   H1565     1.0  0.08408  0.90631  0.19181  1.0000
  H   H1566     1.0  0.09330  0.91969  0.19514  1.0000
  H   H1567     1.0  0.14460  0.86409  0.20976  1.0000
  H   H1568     1.0  0.13036  0.88099  0.21439  1.0000
  H   H1569     1.0  0.14327  0.88189  0.19513  1.0000
  H   H1570     1.0  0.14579  0.88465  0.16860  1.0000
  H   H1571     1.0  0.13328  0.90219  0.17474  1.0000
  H   H1572     1.0  0.13510  0.90007  0.15569  1.0000
  N   N64       1.0  0.09731  0.78499  0.08659  1.0000
  C   C955      1.0  0.08071  0.79325  0.09297  1.0000
  C   C956      1.0  0.10238  0.79397  0.07001  1.0000
  H   H1573     1.0  0.23188  0.75325  0.05502  1.0000
  C   C957      1.0  0.09698  0.76828  0.08730  1.0000
  C   C958      1.0  0.07396  0.78762  0.11071  1.0000
  C   C959      1.0  0.09323  0.79381  0.05806  1.0000
  H   H1574     1.0  0.23981  0.86922  0.44286  1.0000
  C   C960      1.0  0.11209  0.75804  0.07941  1.0000
  H   H1575     1.0  0.07983  0.80613  0.09089  1.0000
  H   H1576     1.0  0.07223  0.79195  0.08680  1.0000
  H   H1577     1.0  0.11493  0.78965  0.06484  1.0000
  H   H1578     1.0  0.10154  0.80648  0.06996  1.0000
  H   H1579     1.0  0.13070  0.79980  0.99082  1.0000
  H   H1580     1.0  0.02350  0.77536  0.29710  1.0000
  H   H1581     1.0  0.09410  0.76180  0.09970  1.0000
  H   H1582     1.0  0.08718  0.76781  0.08241  1.0000
  H   H1583     1.0  0.07348  0.77504  0.11385  1.0000
  S   S292      1.0  0.23373  0.86223  0.31060  1.0000
  H   H1584     1.0  0.06160  0.79424  0.11367  1.0000
  H   H1585     1.0  0.09786  0.80104  0.04649  1.0000
  H   H1586     1.0  0.09502  0.78178  0.05624  1.0000
  H   H1587     1.0  0.08051  0.79906  0.06126  1.0000
  H   H1588     1.0  0.22083  0.83769  0.23536  1.0000
  H   H1589     1.0  0.06662  0.98182  0.25642  1.0000
  H   H1590     1.0  0.20058  0.79534  0.31291  1.0000
  H   H1591     1.0  0.05872  0.73910  0.17936  1.0000
  H   H1592     1.0  0.11943  0.76471  0.06949  1.0000
  C   C961      1.0  0.06137  0.73901  0.39890  1.0000
  H   H1593     1.0  0.18490  0.74737  0.06465  1.0000
  C   C962      1.0  0.16774  0.96186  0.13229  1.0000
  S   S293      1.0  0.10722  0.74226  0.03882  1.0000
  H   H1594     1.0  0.12858  0.79334  0.08030  1.0000
  H   H1595     1.0  0.04740  0.74490  0.36031  1.0000
  H   H1596     1.0  0.22006  0.84836  0.26575  1.0000
  H   H1597     1.0  0.13074  0.77223  0.08545  1.0000
  C   C963      1.0  0.23596  0.84610  0.05511  1.0000
  H   H1598     1.0  0.00859  0.78843  0.19418  1.0000
  C   C964      1.0  0.20854  0.84247  0.23370  1.0000
  H   H1599     1.0  0.06278  0.75765  0.00047  1.0000
  C   C965      1.0  0.08166  0.75195  0.38055  1.0000
  H   H1600     1.0  0.08957  0.74879  0.20403  1.0000
  H   H1601     1.0  0.21647  0.82645  0.17451  1.0000
  S   S294      1.0  0.22171  0.88258  0.34611  1.0000
  H   H1602     1.0  0.17763  0.84269  0.23610  1.0000
  S   S295      1.0  0.01064  0.79954  0.24534  1.0000
  H   H1603     1.0  0.18149  0.91986  0.22758  1.0000
  H   H1604     1.0  0.20941  0.87705  0.21515  1.0000
  H   H1605     1.0  0.07415  0.73543  0.19467  1.0000
  H   H1606     1.0  0.05511  0.75608  0.34169  1.0000
  H   H1607     1.0  0.05760  0.75410  0.98439  1.0000
  Fe  Fe147     1.0  0.21948  0.88672  0.13184  1.0000
  Fe  Fe148     1.0  0.21907  0.86443  0.33463  1.0000
  H   H1608     1.0  0.21116  0.82110  0.09728  1.0000
  S   S296      1.0  0.05280  0.76555  0.09775  1.0000
  C   C966      1.0  0.23976  0.83848  0.04083  1.0000
  C   C967      1.0  0.18341  0.96042  0.13673  1.0000
  S   S297      1.0  0.04337  0.75428  0.14226  1.0000
  H   H1609     1.0  0.13987  0.88780  0.33854  1.0000
  C   C968      1.0  0.15259  0.80451  0.33850  1.0000
  H   H1610     1.0  0.16644  0.93709  0.28500  1.0000
  H   H1611     1.0  0.17312  0.94240  0.30627  1.0000
  C   C969      1.0  0.19028  0.77830  0.34269  1.0000
  C   C970      1.0  0.15652  0.92771  0.32224  1.0000
  H   H1612     1.0  0.15843  0.92740  0.27538  1.0000
  H   H1613     1.0  0.20354  0.82847  0.15504  1.0000
  S   S298      1.0  0.19602  0.86764  0.32798  1.0000
  C   C971      1.0  0.14152  0.89898  0.33002  1.0000
  C   C972      1.0  0.16085  0.94354  0.31311  1.0000
  H   H1614     1.0  0.15265  0.95021  0.30522  1.0000
  S   S299      1.0  0.20366  0.87731  0.28225  1.0000
  H   H1615     1.0  0.16601  0.96687  0.20105  1.0000
  H   H1616     1.0  0.14387  0.79770  0.34519  1.0000
  H   H1617     1.0  0.13394  0.90864  0.33572  1.0000
  H   H1618     1.0  0.21110  0.76228  0.07716  1.0000
  H   H1619     1.0  0.18669  0.89986  0.33405  1.0000
  H   H1620     1.0  0.18968  0.87482  0.10682  1.0000
  C   C973      1.0  0.16273  0.84011  0.98337  1.0000
  H   H1621     1.0  0.08346  0.77247  0.18210  1.0000
  H   H1622     1.0  0.07100  0.75828  0.43868  1.0000
  H   H1623     1.0  0.06735  0.77089  0.20599  1.0000
  C   C974      1.0  0.23672  0.85698  0.08324  1.0000
  N   N65       1.0  0.11640  0.83769  0.29099  1.0000
  C   C975      1.0  0.13397  0.83310  0.28491  1.0000
  C   C976      1.0  0.10902  0.82665  0.28704  1.0000
  C   C977      1.0  0.11343  0.83567  0.30862  1.0000
  C   C978      1.0  0.11088  0.85460  0.28320  1.0000
  C   C979      1.0  0.14416  0.84167  0.28935  1.0000
  C   C980      1.0  0.11113  0.82744  0.26937  1.0000
  C   C981      1.0  0.09690  0.83362  0.31827  1.0000
  C   C982      1.0  0.09298  0.86142  0.28602  1.0000
  H   H1624     1.0  0.13835  0.82025  0.28912  1.0000
  H   H1625     1.0  0.13699  0.83530  0.27185  1.0000
  H   H1626     1.0  0.09618  0.82855  0.29193  1.0000
  H   H1627     1.0  0.11372  0.81429  0.29268  1.0000
  H   H1628     1.0  0.12172  0.82504  0.31368  1.0000
  H   H1629     1.0  0.11578  0.84580  0.31162  1.0000
  H   H1630     1.0  0.11581  0.86245  0.28713  1.0000
  H   H1631     1.0  0.11570  0.85678  0.27027  1.0000
  H   H1632     1.0  0.14272  0.83977  0.30225  1.0000
  H   H1633     1.0  0.15675  0.83688  0.28463  1.0000
  H   H1634     1.0  0.14180  0.85441  0.28405  1.0000
  H   H1635     1.0  0.12358  0.82357  0.26357  1.0000
  H   H1636     1.0  0.10469  0.81926  0.26805  1.0000
  H   H1637     1.0  0.10605  0.83930  0.26311  1.0000
  H   H1638     1.0  0.09493  0.82203  0.31845  1.0000
  H   H1639     1.0  0.08730  0.84297  0.31408  1.0000
  H   H1640     1.0  0.09601  0.83384  0.33068  1.0000
  H   H1641     1.0  0.08884  0.86658  0.29661  1.0000
  H   H1642     1.0  0.08588  0.85297  0.28689  1.0000
  H   H1643     1.0  0.09034  0.87088  0.27571  1.0000
  C   C983      1.0  0.21010  0.84754  0.21574  1.0000
  H   H1644     1.0  0.09678  0.98371  0.23153  1.0000
  H   H1645     1.0  0.04381  0.76440  0.44948  1.0000
  H   H1646     1.0  0.20325  0.83192  0.23803  1.0000
  H   H1647     1.0  0.04069  0.74913  0.27603  1.0000
  H   H1648     1.0  0.21604  0.84971  0.08391  1.0000
  H   H1649     1.0  0.13569  0.75717  0.03860  1.0000
  H   H1650     1.0  0.22986  0.74344  0.08569  1.0000
  N   N66       1.0  0.23500  0.83485  0.07091  1.0000
  C   C984      1.0  0.05900  0.73773  0.46715  1.0000
  H   H1651     1.0  0.15868  0.97143  0.16105  1.0000
  H   H1652     1.0  0.06730  0.77716  0.17283  1.0000
  C   C985      1.0  0.12562  0.78318  0.08981  1.0000
  H   H1653     1.0  0.23255  0.90285  0.35826  1.0000
  C   C986      1.0  0.06936  0.73846  0.20631  1.0000
  C   C987      1.0  0.08353  0.73953  0.21200  1.0000
  C   C988      1.0  0.18860  0.82875  0.98904  1.0000
  H   H1654     1.0  0.13704  0.77407  0.98305  1.0000
  C   C989      1.0  0.04888  0.74919  0.18147  1.0000
  C   C990      1.0  0.19900  0.96818  0.15087  1.0000
  H   H1655     1.0  0.15868  0.98094  0.21251  1.0000
  H   H1656     1.0  0.20838  0.78834  0.35907  1.0000
  Fe  Fe149     1.0  0.11642  0.74498  0.99376  1.0000
  H   H1657     1.0  0.22400  0.80452  0.32599  1.0000
  H   H1658     1.0  0.07608  0.77785  0.98448  1.0000
  H   H1659     1.0  0.21768  0.88725  0.22395  1.0000
  H   H1660     1.0  0.19058  0.85498  0.26795  1.0000
  Fe  Fe150     1.0  0.20755  0.80849  0.04223  1.0000
  S   S300      1.0  0.22085  0.83847  0.34410  1.0000
  H   H1661     1.0  0.15414  0.75466  0.05547  1.0000
  H   H1662     1.0  0.21100  0.83717  0.21103  1.0000
  H   H1663     1.0  0.17376  0.75030  0.10810  1.0000
  H   H1664     1.0  0.18655  0.92064  0.32768  1.0000
  H   H1665     1.0  0.16570  0.88869  0.32146  1.0000
  C   C991      1.0  0.15878  0.81231  0.34609  1.0000
  S   S301      1.0  0.10839  0.79025  0.33709  1.0000
  S   S302      1.0  0.15201  0.79441  0.31239  1.0000
  H   H1666     1.0  0.18640  0.89980  0.30571  1.0000
  H   H1667     1.0  0.16238  0.89786  0.33739  1.0000
  Fe  Fe151     1.0  0.13192  0.78142  0.32220  1.0000
  C   C992      1.0  0.15916  0.89947  0.32598  1.0000
  H   H1668     1.0  0.15896  0.92508  0.33420  1.0000
  S   S303      1.0  0.11772  0.78443  0.02113  1.0000
  H   H1669     1.0  0.04574  0.76107  0.42272  1.0000
  H   H1670     1.0  0.17817  0.87162  0.24775  1.0000
  H   H1671     1.0  0.14345  0.93005  0.32457  1.0000
  H   H1672     1.0  0.17731  0.91852  0.27980  1.0000
  C   C993      1.0  0.15731  0.91622  0.30003  1.0000
  H   H1673     1.0  0.15803  0.90467  0.29765  1.0000
  Fe  Fe152     1.0  0.09848  0.78656  0.31852  1.0000
  N   N67       1.0  0.15595  0.95735  0.22527  1.0000
  S   S304      1.0  0.09736  0.76244  0.00553  1.0000
  C   C994      1.0  0.17625  0.93096  0.23182  1.0000
  H   H1674     1.0  0.10428  0.79722  0.10013  1.0000
  C   C995      1.0  0.18989  0.87158  0.09621  1.0000
  C   C996      1.0  0.18414  0.85405  0.08348  1.0000
  Fe  Fe153     1.0  0.11499  0.76140  0.01902  1.0000
  H   H1675     1.0  0.17004  0.78975  0.00687  1.0000
  H   H1676     1.0  0.07054  0.75722  0.46420  1.0000
  Fe  Fe154     1.0  0.19056  0.91303  0.13214  1.0000
  S   S305      1.0  0.13456  0.74519  0.00630  1.0000
  C   C997      1.0  0.16291  0.94061  0.22328  1.0000
  H   H1677     1.0  0.18076  0.94853  0.18102  1.0000
  C   C998      1.0  0.23654  0.86403  0.16101  1.0000
  C   C999      1.0  0.20616  0.83520  0.12973  1.0000
  H   H1678     1.0  0.22647  0.78468  0.06779  1.0000
  C   C1000     1.0  0.16396  0.79590  0.99703  1.0000
  C   C1001     1.0  0.01788  0.79172  0.18435  1.0000
  H   H1679     1.0  0.04063  0.74166  0.09160  1.0000
  S   S306      1.0  0.12186  0.77936  0.30297  1.0000
  H   H1680     1.0  0.02921  0.76615  0.23864  1.0000
  H   H1681     1.0  0.21704  0.75450  0.04443  1.0000
  H   H1682     1.0  0.15851  0.95859  0.14276  1.0000
  S   S307      1.0  0.19617  0.88934  0.12643  1.0000
  S   S308      1.0  0.19950  0.92569  0.10750  1.0000
  C   C1002     1.0  0.16507  0.96847  0.21301  1.0000
  H   H1683     1.0  0.18440  0.86988  0.22808  1.0000
  C   C1003     1.0  0.01983  0.78739  0.17012  1.0000
  Fe  Fe155     1.0  0.10831  0.76463  0.34767  1.0000
  H   H1684     1.0  0.20364  0.80486  0.33274  1.0000
  C   C1004     1.0  0.19018  0.86283  0.06878  1.0000
  H   H1685     1.0  0.05639  0.78267  0.30691  1.0000
  H   H1686     1.0  0.21499  0.95698  0.09923  1.0000
  H   H1687     1.0  0.05917  0.76175  0.31092  1.0000
  H   H1688     1.0  0.22933  0.78744  0.35189  1.0000
  H   H1689     1.0  0.16941  0.77388  0.99030  1.0000
  H   H1690     1.0  0.11929  0.75099  0.08814  1.0000
  Fe  Fe156     1.0  0.01737  0.76149  0.15109  1.0000
  S   S309      1.0  0.21300  0.90933  0.13990  1.0000
  C   C1005     1.0  0.19626  0.88018  0.08157  1.0000
  C   C1006     1.0  0.17296  0.95051  0.17281  1.0000
  S   S310      1.0  0.02978  0.74937  0.39841  1.0000
  H   H1691     1.0  0.18452  0.76914  0.35137  1.0000
  C   C1007     1.0  0.23283  0.95474  0.11172  1.0000
  Fe  Fe157     1.0  0.21090  0.86345  0.30469  1.0000
  C   C1008     1.0  0.19815  0.84670  0.26043  1.0000
  Fe  Fe158     1.0  0.19928  0.84141  0.33481  1.0000
  H   H1692     1.0  0.21207  0.83294  0.06944  1.0000
  C   C1009     1.0  0.21451  0.97913  0.10412  1.0000
  H   H1693     1.0  0.19682  0.88918  0.22855  1.0000
  H   H1694     1.0  0.16349  0.97367  0.12534  1.0000
  Fe  Fe159     1.0  0.20688  0.90142  0.10227  1.0000
  C   C1010     1.0  0.23971  0.96269  0.11838  1.0000
  H   H1695     1.0  0.02082  0.77613  0.27841  1.0000
  C   C1011     1.0  0.17262  0.85198  0.24299  1.0000
  H   H1696     1.0  0.04105  0.77410  0.25641  1.0000
  H   H1697     1.0  0.06858  0.76591  0.28428  1.0000
  C   C1012     1.0  0.05965  0.76342  0.98886  1.0000
  H   H1698     1.0  0.16742  0.94024  0.21060  1.0000
  C   C1013     1.0  0.22856  0.84397  0.08379  1.0000
  H   H1699     1.0  0.21252  0.76630  0.34926  1.0000
  C   C1014     1.0  0.15494  0.95874  0.24179  1.0000
  H   H1700     1.0  0.15066  0.84622  0.98684  1.0000
  H   H1701     1.0  0.10893  0.74994  0.07415  1.0000
  H   H1702     1.0  0.22762  0.81758  0.06364  1.0000
  H   H1703     1.0  0.05212  0.80220  0.14960  1.0000
  C   C1015     1.0  0.17303  0.83667  0.99352  1.0000
  N   N68       1.0  0.21780  0.78277  0.32704  1.0000
  S   S311      1.0  0.16656  0.84354  0.01107  1.0000
  C   C1016     1.0  0.04248  0.75286  0.44861  1.0000
  C   C1017     1.0  0.20751  0.75746  0.06896  1.0000
  H   H1704     1.0  0.20933  0.78551  0.14869  1.0000
  H   H1705     1.0  0.04863  0.77240  0.99105  1.0000
  S   S312      1.0  0.00651  0.77754  0.16813  1.0000
  C   C1018     1.0  0.03222  0.79114  0.15761  1.0000
  H   H1706     1.0  0.17998  0.76437  0.09099  1.0000
  H   H1707     1.0  0.05130  0.77775  0.19687  1.0000
  C   C1019     1.0  0.03225  0.76486  0.22625  1.0000
  H   H1708     1.0  0.03382  0.80068  0.28627  1.0000
  S   S313      1.0  0.23084  0.89695  0.10731  1.0000
  H   H1709     1.0  0.19650  0.76591  0.06655  1.0000
  C   C1020     1.0  0.23371  0.97875  0.11830  1.0000
  C   C1021     1.0  0.07298  0.76842  0.18200  1.0000
  H   H1710     1.0  0.06472  0.75205  0.25562  1.0000
  H   H1711     1.0  0.19323  0.83954  0.13326  1.0000
  C   C1022     1.0  0.05267  0.77292  0.30469  1.0000
  C   C1023     1.0  0.22158  0.80134  0.15209  1.0000
  C   C1024     1.0  0.21149  0.79749  0.14306  1.0000
  H   H1712     1.0  0.20368  0.94275  0.16225  1.0000
  H   H1713     1.0  0.01398  0.80215  0.28532  1.0000
  H   H1714     1.0  0.13177  0.78249  0.09911  1.0000
  S   S314      1.0  0.20524  0.89568  0.08004  1.0000
  H   H1715     1.0  0.04621  0.74144  0.23010  1.0000
  H   H1716     1.0  0.05198  0.78670  0.25830  1.0000
  S   S315      1.0  0.01405  0.73682  0.16032  1.0000
  S   S316      1.0  0.21275  0.83755  0.31101  1.0000
  C   C1025     1.0  0.22022  0.96299  0.10458  1.0000
  H   H1717     1.0  0.99481  0.83243  0.23954  1.0000
  C   C1026     1.0  0.20932  0.95139  0.15281  1.0000
  H   H1718     1.0  0.10613  0.77670  0.10807  1.0000
  H   H1719     1.0  0.02589  0.76473  0.43340  1.0000
  C   C1027     1.0  0.09587  0.73587  0.30386  1.0000
  C   C1028     1.0  0.23495  0.77469  0.32501  1.0000
  H   H1720     1.0  0.17747  0.94146  0.16571  1.0000
  H   H1721     1.0  0.21753  0.80108  0.28745  1.0000
  C   C1029     1.0  0.13927  0.96167  0.22292  1.0000
  H   H1722     1.0  0.03369  0.78799  0.14654  1.0000
  H   H1723     1.0  0.15360  0.80450  0.00176  1.0000
  C   C1030     1.0  0.19620  0.87588  0.06785  1.0000
  C   C1031     1.0  0.21266  0.78781  0.31159  1.0000
  H   H1724     1.0  0.17156  0.92751  0.24467  1.0000
  C   C1032     1.0  0.04979  0.75023  0.39194  1.0000
  C   C1033     1.0  0.21342  0.83942  0.26667  1.0000
  C   C1034     1.0  0.04582  0.75238  0.28425  1.0000
  S   S317      1.0  0.09597  0.76209  0.33054  1.0000
  H   H1725     1.0  0.19663  0.82611  0.99679  1.0000
  H   H1726     1.0  0.21423  0.80110  0.16417  1.0000
  H   H1727     1.0  0.17112  0.97478  0.17087  1.0000
  H   H1728     1.0  0.18753  0.78844  0.34829  1.0000
  H   H1729     1.0  0.07564  0.76394  0.04267  1.0000
  H   H1730     1.0  0.09264  0.74586  0.30923  1.0000
  H   H1731     1.0  0.19031  0.85952  0.05816  1.0000
  H   H1732     1.0  0.16894  0.84670  0.25564  1.0000
  S   S318      1.0  0.19062  0.80379  0.03098  1.0000
  H   H1733     1.0  0.14241  0.96820  0.19703  1.0000
  C   C1035     1.0  0.05674  0.77372  0.28681  1.0000
  C   C1036     1.0  0.21001  0.86682  0.24025  1.0000
  C   C1037     1.0  0.17919  0.75186  0.09534  1.0000
  S   S319      1.0  0.19659  0.83426  0.03997  1.0000
  H   H1734     1.0  0.20232  0.73644  0.05492  1.0000
  H   H1735     1.0  0.06083  0.80044  0.98281  1.0000
  C   C1038     1.0  0.06149  0.76780  0.19829  1.0000
  H   H1736     1.0  0.20785  0.82572  0.12361  1.0000
  H   H1737     1.0  0.04002  0.77444  0.31021  1.0000
  S   S320      1.0  0.13270  0.75595  0.33414  1.0000
  H   H1738     1.0  0.20619  0.97539  0.14107  1.0000
  H   H1739     1.0  0.02887  0.80169  0.26788  1.0000
  H   H1740     1.0  0.22502  0.88529  0.18945  1.0000
  H   H1741     1.0  0.05610  0.75624  0.22891  1.0000
  Fe  Fe160     1.0  0.22259  0.91999  0.11485  1.0000
  S   S321      1.0  0.01120  0.76409  0.12797  1.0000
  H   H1742     1.0  0.05142  0.76020  0.17329  1.0000
  S   S322      1.0  0.23246  0.86350  0.14343  1.0000
  H   H1743     1.0  0.04525  0.77113  0.37399  1.0000
  Fe  Fe161     1.0  0.03720  0.75469  0.11980  1.0000
  H   H1744     1.0  0.20098  0.88255  0.05647  1.0000
  C   C1039     1.0  0.22787  0.81781  0.17343  1.0000
  H   H1745     1.0  0.21666  0.84108  0.14508  1.0000
  H   H1746     1.0  0.19043  0.95805  0.20778  1.0000
  H   H1747     1.0  0.23494  0.79009  0.29411  1.0000
  H   H1748     1.0  0.07593  0.76385  0.25941  1.0000
  H   H1749     1.0  0.06883  0.76944  0.24178  1.0000
  H   H1750     1.0  0.22918  0.83537  0.03966  1.0000
  N   N69       1.0  0.22708  0.81656  0.14534  1.0000
  Fe  Fe162     1.0  0.12016  0.75491  0.31633  1.0000
  C   C1040     1.0  0.23869  0.78538  0.06445  1.0000
  H   H1751     1.0  0.03227  0.77672  0.21866  1.0000
  C   C1041     1.0  0.19558  0.74079  0.09309  1.0000
  H   H1752     1.0  0.16175  0.85910  0.23899  1.0000
  Fe  Fe163     1.0  0.01016  0.73858  0.13646  1.0000
  S   S323      1.0  0.10169  0.75235  0.37317  1.0000
  H   H1753     1.0  0.22089  0.85218  0.21006  1.0000
  H   H1754     1.0  0.21578  0.80571  0.35340  1.0000
  C   C1042     1.0  0.05153  0.74044  0.06740  1.0000
  C   C1043     1.0  0.06472  0.76508  0.06677  1.0000
  C   C1044     1.0  0.03710  0.74562  0.30091  1.0000
  H   H1755     1.0  0.17878  0.87451  0.98460  1.0000
  C   C1045     1.0  0.20825  0.88077  0.22609  1.0000
  H   H1756     1.0  0.15372  0.93353  0.22746  1.0000
  C   C1046     1.0  0.15909  0.78377  0.99131  1.0000
  C   C1047     1.0  0.21325  0.83043  0.14454  1.0000
  H   H1757     1.0  0.17109  0.74927  0.08965  1.0000
  H   H1758     1.0  0.07728  0.75717  0.17815  1.0000
  C   C1048     1.0  0.22765  0.87550  0.16948  1.0000
  C   C1049     1.0  0.06816  0.75890  0.05335  1.0000
  C   C1050     1.0  0.02867  0.77884  0.28442  1.0000
  S   S324      1.0  0.06731  0.73781  0.03728  1.0000
  H   H1759     1.0  0.05822  0.74556  0.28288  1.0000
  H   H1760     1.0  0.21173  0.77753  0.30771  1.0000
  H   H1761     1.0  0.07338  0.77245  0.36376  1.0000
  H   H1762     1.0  0.22279  0.86115  0.23873  1.0000
  H   H1763     1.0  0.16967  0.95350  0.12464  1.0000
  H   H1764     1.0  0.21758  0.88371  0.16567  1.0000
  H   H1765     1.0  0.20715  0.87229  0.25059  1.0000
  C   C1051     1.0  0.22305  0.79723  0.29781  1.0000
  H   H1766     1.0  0.22861  0.83602  0.09556  1.0000
  H   H1767     1.0  0.22031  0.95159  0.15589  1.0000
  N   N70       1.0  0.05597  0.75272  0.20616  1.0000
  H   H1768     1.0  0.07918  0.73693  0.33731  1.0000
  C   C1052     1.0  0.17094  0.96745  0.16293  1.0000
  H   H1769     1.0  0.23186  0.79129  0.15322  1.0000
  N   N71       1.0  0.20021  0.85481  0.24325  1.0000
  H   H1770     1.0  0.13188  0.95438  0.23245  1.0000
  N   N72       1.0  0.04532  0.76979  0.27988  1.0000
  C   C1053     1.0  0.06584  0.76419  0.25455  1.0000
  C   C1054     1.0  0.07008  0.76315  0.37359  1.0000
  H   H1771     1.0  0.18770  0.94775  0.14138  1.0000
  H   H1772     1.0  0.17216  0.80226  0.98765  1.0000
  H   H1773     1.0  0.20238  0.74406  0.09976  1.0000
  H   H1774     1.0  0.02264  0.76036  0.22476  1.0000
  C   C1055     1.0  0.05418  0.76237  0.37939  1.0000
  C   C1056     1.0  0.21548  0.79719  0.33335  1.0000
  C   C1057     1.0  0.18399  0.86284  0.24025  1.0000
  C   C1058     1.0  0.05036  0.77437  0.26215  1.0000
  C   C1059     1.0  0.05520  0.75860  0.08074  1.0000
  C   C1060     1.0  0.21743  0.79422  0.35039  1.0000
  C   C1061     1.0  0.06176  0.74643  0.05369  1.0000
  H   H1775     1.0  0.02415  0.74966  0.30237  1.0000
  S   S325      1.0  0.23379  0.80041  0.03457  1.0000
  C   C1062     1.0  0.99497  0.83294  0.19237  1.0000
  H   H1776     1.0  0.18550  0.97845  0.20885  1.0000
  H   H1777     1.0  0.23252  0.81418  0.12097  1.0000
  H   H1778     1.0  0.18591  0.93706  0.22958  1.0000
  C   C1063     1.0  0.03726  0.75598  0.43296  1.0000
  H   H1779     1.0  0.19208  0.96326  0.12557  1.0000
  H   H1780     1.0  0.13364  0.97407  0.22362  1.0000
  H   H1781     1.0  0.14266  0.81357  0.98057  1.0000
  H   H1782     1.0  0.23759  0.84118  0.12154  1.0000
  H   H1783     1.0  0.20927  0.76132  0.33306  1.0000
  C   C1064     1.0  0.04828  0.75323  0.22319  1.0000
  H   H1784     1.0  0.19985  0.85620  0.21199  1.0000
  H   H1785     1.0  0.04911  0.73865  0.34249  1.0000
  S   S326      1.0  0.24009  0.93448  0.11261  1.0000
  H   H1786     1.0  0.18476  0.78169  0.33240  1.0000
  H   H1787     1.0  0.06939  0.77495  0.06627  1.0000
  H   H1788     1.0  0.06933  0.74739  0.42635  1.0000
  H   H1789     1.0  0.09622  0.74328  0.43353  1.0000
  H   H1790     1.0  0.07576  0.74116  0.35607  1.0000
  H   H1791     1.0  0.03877  0.74703  0.17830  1.0000
  S   S327      1.0  0.21320  0.74435  0.12739  1.0000
  C   C1065     1.0  0.23177  0.87628  0.18304  1.0000
  N   N73       1.0  0.20446  0.74120  0.07633  1.0000
  H   H1792     1.0  0.23716  0.76335  0.30543  1.0000
  C   C1066     1.0  0.23962  0.88046  0.35158  1.0000
  C   C1067     1.0  0.21979  0.75906  0.05329  1.0000
  H   H1793     1.0  0.19977  0.80563  0.14382  1.0000
  H   H1794     1.0  0.22117  0.82995  0.26079  1.0000
  N   N74       1.0  0.05724  0.74035  0.45048  1.0000
  H   H1795     1.0  0.19194  0.83695  0.26309  1.0000
  H   H1796     1.0  0.19813  0.97253  0.16151  1.0000
  H   H1797     1.0  0.21298  0.94727  0.14163  1.0000
  H   H1798     1.0  0.16127  0.94838  0.17971  1.0000
  H   H1799     1.0  0.21737  0.79728  0.13065  1.0000
  H   H1800     1.0  0.03518  0.74533  0.43085  1.0000
  H   H1801     1.0  0.23468  0.75049  0.32478  1.0000
  C   C1068     1.0  0.13716  0.95982  0.20724  1.0000
  Fe  Fe164     1.0  0.23401  0.83654  0.31953  1.0000
  H   H1802     1.0  0.16627  0.95362  0.24553  1.0000
  H   H1803     1.0  0.22417  0.80794  0.30059  1.0000
  C   C1069     1.0  0.10993  0.98177  0.26396  1.0000
  C   C1070     1.0  0.04377  0.75091  0.19870  1.0000
  H   H1804     1.0  0.23840  0.77029  0.33657  1.0000
  C   C1071     1.0  0.04833  0.74646  0.08098  1.0000
  C   C1072     1.0  0.02647  0.79684  0.28070  1.0000
  C   C1073     1.0  0.06057  0.75212  0.47204  1.0000
  C   C1074     1.0  0.18212  0.96694  0.21417  1.0000
  H   H1805     1.0  0.03236  0.74991  0.45827  1.0000
  H   H1806     1.0  0.00618  0.82720  0.19624  1.0000
  H   H1807     1.0  0.14652  0.95185  0.25042  1.0000
  H   H1808     1.0  0.21050  0.84539  0.12133  1.0000
  C   C1075     1.0  0.10069  0.97868  0.24247  1.0000
  H   H1809     1.0  0.99771  0.83440  0.17941  1.0000
  C   C1076     1.0  0.22327  0.82521  0.07233  1.0000
  C   C1077     1.0  0.21900  0.81429  0.08854  1.0000
  H   H1810     1.0  0.03868  0.74062  0.20577  1.0000
  H   H1811     1.0  0.08017  0.74156  0.22411  1.0000
  H   H1812     1.0  0.14183  0.94764  0.20548  1.0000
  Fe  Fe165     1.0  0.09136  0.74157  0.02410  1.0000
  H   H1813     1.0  0.04103  0.74812  0.31028  1.0000
  H   H1814     1.0  0.23553  0.92017  0.16394  1.0000
  H   H1815     1.0  0.18367  0.96416  0.22639  1.0000
  H   H1816     1.0  0.04949  0.76125  0.47271  1.0000
  H   H1817     1.0  0.12434  0.96255  0.20751  1.0000
  H   H1818     1.0  0.16509  0.75637  0.98068  1.0000
  H   H1819     1.0  0.22462  0.85489  0.05475  1.0000
  H   H1820     1.0  0.21973  0.77172  0.04826  1.0000
  H   H1821     1.0  0.22955  0.80689  0.09291  1.0000
  C   C1078     1.0  0.05482  0.74388  0.34847  1.0000
  C   C1079     1.0  0.23648  0.81802  0.15613  1.0000
  H   H1822     1.0  0.23533  0.82110  0.17938  1.0000
  H   H1823     1.0  0.23706  0.86599  0.07210  1.0000
  C   C1080     1.0  0.23825  0.81565  0.12963  1.0000
  H   H1824     1.0  0.23902  0.87964  0.41585  1.0000
  C   C1081     1.0  0.19510  0.73755  0.06684  1.0000
  H   H1825     1.0  0.07201  0.73626  0.30386  1.0000
  C   C1082     1.0  0.15011  0.97561  0.24464  1.0000
  Fe  Fe166     1.0  0.23744  0.74621  0.12713  1.0000
  H   H1826     1.0  0.24057  0.82923  0.15189  1.0000
  C   C1083     1.0  0.08743  0.73577  0.43884  1.0000
  C   C1084     1.0  0.23996  0.76043  0.31720  1.0000
  C   C1085     1.0  0.07181  0.73486  0.34944  1.0000
  H   H1827     1.0  0.14846  0.97504  0.25739  1.0000
  H   H1828     1.0  0.15939  0.98234  0.23833  1.0000
  H   H1829     1.0  0.13886  0.98231  0.24136  1.0000
  S   S328      1.0  0.12656  0.73398  0.30500  1.0000
  Fe  Fe167     1.0  0.01613  0.74014  0.79042  1.0000
  Fe  Fe168     1.0  0.23324  0.85966  0.77405  1.0000
  N   N75       1.0  0.23938  0.82741  0.84030  1.0000
  H   H1830     1.0  0.18062  0.85937  0.93931  1.0000
  C   C1086     1.0  0.14789  0.74364  0.81753  1.0000
  H   H1831     1.0  0.20885  0.85662  0.94033  1.0000
  C   C1087     1.0  0.16476  0.79608  0.96235  1.0000
  S   S329      1.0  0.11374  0.79303  0.86970  1.0000
  H   H1832     1.0  0.22602  0.88683  0.67307  1.0000
  Fe  Fe169     1.0  0.14822  0.82293  0.91940  1.0000
  C   C1088     1.0  0.14346  0.97603  0.79066  1.0000
  S   S330      1.0  0.13222  0.80589  0.92662  1.0000
  H   H1833     1.0  0.16292  0.89540  0.93166  1.0000
  C   C1089     1.0  0.16809  0.83600  0.96863  1.0000
  H   H1834     1.0  0.09189  0.93167  0.85626  1.0000
  C   C1090     1.0  0.22923  0.82771  0.81623  1.0000
  H   H1835     1.0  0.08679  0.80105  0.96721  1.0000
  C   C1091     1.0  0.01640  0.73666  0.49256  1.0000
  C   C1092     1.0  0.14448  0.89571  0.86626  1.0000
  S   S331      1.0  0.14881  0.83853  0.93454  1.0000
  Fe  Fe170     1.0  0.18550  0.96377  0.83029  1.0000
  S   S332      1.0  0.16278  0.95936  0.84650  1.0000
  H   H1836     1.0  0.06607  0.89631  0.71724  1.0000
  C   C1093     1.0  0.20499  0.78060  0.86831  1.0000
  S   S333      1.0  0.17802  0.92179  0.84982  1.0000
  Fe  Fe171     1.0  0.16530  0.94101  0.83334  1.0000
  S   S334      1.0  0.14299  0.94131  0.82696  1.0000
  Fe  Fe172     1.0  0.17760  0.94072  0.86147  1.0000
  S   S335      1.0  0.17024  0.93790  0.88769  1.0000
  S   S336      1.0  0.18710  0.94654  0.81607  1.0000
  C   C1094     1.0  0.11288  0.91006  0.88423  1.0000
  S   S337      1.0  0.10067  0.90789  0.78496  1.0000
  Fe  Fe173     1.0  0.11466  0.92527  0.74071  1.0000
  S   S338      1.0  0.12178  0.89972  0.75113  1.0000
  S   S339      1.0  0.12241  0.93658  0.71535  1.0000
  Fe  Fe174     1.0  0.09648  0.90218  0.76401  1.0000
  S   S340      1.0  0.08700  0.88121  0.76513  1.0000
  Fe  Fe175     1.0  0.12529  0.90763  0.77099  1.0000
  S   S341      1.0  0.14640  0.89789  0.78188  1.0000
  S   S342      1.0  0.08899  0.92752  0.75219  1.0000
  S   S343      1.0  0.12070  0.93304  0.75928  1.0000
  Fe  Fe176     1.0  0.15971  0.87532  0.66753  1.0000
  S   S344      1.0  0.15272  0.85608  0.68740  1.0000
  S   S345      1.0  0.14121  0.89717  0.66280  1.0000
  Fe  Fe177     1.0  0.16660  0.83985  0.67129  1.0000
  S   S346      1.0  0.15321  0.82065  0.67563  1.0000
  S   S347      1.0  0.18119  0.87525  0.67522  1.0000
  S   S348      1.0  0.17221  0.85952  0.65057  1.0000
  Fe  Fe178     1.0  0.00567  0.84275  0.74976  1.0000
  S   S349      1.0  0.00760  0.83564  0.72741  1.0000
  C   C1095     1.0  0.15529  0.74822  0.67319  1.0000
  Fe  Fe179     1.0  0.02121  0.87043  0.73285  1.0000
  S   S350      1.0  0.02409  0.86571  0.70899  1.0000
  S   S351      1.0  0.02891  0.89159  0.73446  1.0000
  H   H1837     1.0  0.20625  0.85343  0.92277  1.0000
  Fe  Fe180     1.0  0.03172  0.84055  0.72082  1.0000
  S   S352      1.0  0.05194  0.82273  0.71106  1.0000
  C   C1096     1.0  0.16051  0.76008  0.91484  1.0000
  S   S353      1.0  0.03063  0.84541  0.74406  1.0000
  H   H1838     1.0  0.12373  0.75930  0.93467  1.0000
  H   H1839     1.0  0.13780  0.73997  0.64294  1.0000
  S   S354      1.0  0.02471  0.75727  0.76876  1.0000
  H   H1840     1.0  0.16717  0.76163  0.81889  1.0000
  H   H1841     1.0  0.11441  0.89757  0.88380  1.0000
  H   H1842     1.0  0.19195  0.74234  0.82653  1.0000
  C   C1097     1.0  0.10307  0.92892  0.84773  1.0000
  H   H1843     1.0  0.14791  0.74911  0.88776  1.0000
  Fe  Fe181     1.0  0.09114  0.77710  0.61576  1.0000
  S   S355      1.0  0.07113  0.77985  0.63664  1.0000
  S   S356      1.0  0.09108  0.76635  0.59595  1.0000
  Fe  Fe182     1.0  0.11305  0.78809  0.62919  1.0000
  S   S357      1.0  0.09488  0.79123  0.65104  1.0000
  S   S358      1.0  0.13665  0.79429  0.62540  1.0000
  Fe  Fe183     1.0  0.08970  0.76863  0.65073  1.0000
  S   S359      1.0  0.08392  0.75163  0.67362  1.0000
  Fe  Fe184     1.0  0.07806  0.80226  0.63500  1.0000
  S   S360      1.0  0.06116  0.82486  0.63920  1.0000
  S   S361      1.0  0.10940  0.76425  0.63010  1.0000
  S   S362      1.0  0.09661  0.80068  0.61284  1.0000
  Fe  Fe185     1.0  0.22124  0.73940  0.86945  1.0000
  H   H1844     1.0  0.11234  0.90486  0.85824  1.0000
  S   S363      1.0  0.99587  0.86824  0.74074  1.0000
  H   H1845     1.0  0.09017  0.90692  0.89889  1.0000
  C   C1098     1.0  0.05275  0.82338  0.69139  1.0000
  C   C1099     1.0  0.04880  0.83771  0.68099  1.0000
  C   C1100     1.0  0.05100  0.83816  0.66494  1.0000
  C   C1101     1.0  0.05680  0.82424  0.65940  1.0000
  C   C1102     1.0  0.05979  0.80988  0.66999  1.0000
  C   C1103     1.0  0.05814  0.80948  0.68590  1.0000
  H   H1846     1.0  0.04468  0.84848  0.68521  1.0000
  H   H1847     1.0  0.04861  0.84930  0.65680  1.0000
  H   H1848     1.0  0.06343  0.79903  0.66595  1.0000
  H   H1849     1.0  0.06097  0.79836  0.69396  1.0000
  C   C1104     1.0  0.00280  0.80830  0.77149  1.0000
  C   C1105     1.0  0.01617  0.80445  0.75992  1.0000
  C   C1106     1.0  0.02261  0.78876  0.75895  1.0000
  C   C1107     1.0  0.01577  0.77684  0.76963  1.0000
  H   H1850     1.0  0.04986  0.76074  0.73756  1.0000
  H   H1851     1.0  0.21993  0.84404  0.83139  1.0000
  H   H1852     1.0  0.02175  0.81352  0.75180  1.0000
  H   H1853     1.0  0.03303  0.78589  0.75002  1.0000
  H   H1854     1.0  0.02400  0.82695  0.64896  1.0000
  H   H1855     1.0  0.12115  0.75558  0.65956  1.0000
  C   C1108     1.0  0.14854  0.81419  0.66113  1.0000
  C   C1109     1.0  0.13595  0.80655  0.66558  1.0000
  C   C1110     1.0  0.13185  0.80097  0.65458  1.0000
  C   C1111     1.0  0.14070  0.80239  0.63914  1.0000
  C   C1112     1.0  0.15332  0.81001  0.63467  1.0000
  C   C1113     1.0  0.15709  0.81612  0.64556  1.0000
  H   H1856     1.0  0.12925  0.80507  0.67759  1.0000
  H   H1857     1.0  0.12201  0.79533  0.65817  1.0000
  H   H1858     1.0  0.16025  0.81117  0.62274  1.0000
  H   H1859     1.0  0.16687  0.82192  0.64202  1.0000
  C   C1114     1.0  0.07025  0.88422  0.75748  1.0000
  C   C1115     1.0  0.06079  0.89919  0.75380  1.0000
  C   C1116     1.0  0.04786  0.90127  0.74713  1.0000
  C   C1117     1.0  0.04437  0.88841  0.74404  1.0000
  C   C1118     1.0  0.05385  0.87346  0.74774  1.0000
  C   C1119     1.0  0.06667  0.87137  0.75453  1.0000
  H   H1860     1.0  0.06337  0.90915  0.75618  1.0000
  H   H1861     1.0  0.04055  0.91287  0.74433  1.0000
  H   H1862     1.0  0.05142  0.86353  0.74523  1.0000
  H   H1863     1.0  0.07388  0.85974  0.75739  1.0000
  C   C1120     1.0  0.12806  0.92517  0.70110  1.0000
  C   C1121     1.0  0.12675  0.93270  0.68566  1.0000
  C   C1122     1.0  0.13087  0.92403  0.67397  1.0000
  C   C1123     1.0  0.13675  0.90782  0.67754  1.0000
  C   C1124     1.0  0.13848  0.90026  0.69290  1.0000
  C   C1125     1.0  0.13393  0.90892  0.70473  1.0000
  H   H1864     1.0  0.12237  0.94529  0.68276  1.0000
  H   H1865     1.0  0.12962  0.92991  0.66210  1.0000
  H   H1866     1.0  0.14309  0.88774  0.69571  1.0000
  H   H1867     1.0  0.13493  0.90301  0.71661  1.0000
  H   H1868     1.0  0.10413  0.94150  0.87009  1.0000
  C   C1126     1.0  0.14572  0.91013  0.79413  1.0000
  C   C1127     1.0  0.13203  0.92131  0.79806  1.0000
  C   C1128     1.0  0.13140  0.93088  0.80807  1.0000
  C   C1129     1.0  0.14448  0.92936  0.81415  1.0000
  C   C1130     1.0  0.15824  0.91821  0.81025  1.0000
  C   C1131     1.0  0.15881  0.90858  0.80023  1.0000
  H   H1869     1.0  0.12182  0.92258  0.79348  1.0000
  H   H1870     1.0  0.12074  0.93952  0.81099  1.0000
  H   H1871     1.0  0.16837  0.91698  0.81496  1.0000
  H   H1872     1.0  0.16929  0.89989  0.79712  1.0000
  H   H1873     1.0  0.11741  0.95389  0.88069  1.0000
  C   C1132     1.0  0.12910  0.76134  0.68469  1.0000
  C   C1133     1.0  0.09337  0.90876  0.67216  1.0000
  H   H1874     1.0  0.14235  0.91475  0.87672  1.0000
  H   H1875     1.0  0.14451  0.92020  0.85605  1.0000
  H   H1876     1.0  0.20616  0.81897  0.97071  1.0000
  H   H1877     1.0  0.14085  0.89260  0.85701  1.0000
  H   H1878     1.0  0.08322  0.88706  0.70533  1.0000
  C   C1134     1.0  0.11598  0.91629  0.85508  1.0000
  H   H1879     1.0  0.14074  0.88795  0.87778  1.0000
  C   C1135     1.0  0.11699  0.93649  0.86851  1.0000
  C   C1136     1.0  0.09518  0.91644  0.88993  1.0000
  C   C1137     1.0  0.13772  0.75810  0.82405  1.0000
  C   C1138     1.0  0.16227  0.92120  0.89586  1.0000
  C   C1139     1.0  0.14801  0.92220  0.90692  1.0000
  C   C1140     1.0  0.14062  0.90946  0.91229  1.0000
  H   H1880     1.0  0.15755  0.89314  0.86360  1.0000
  C   C1141     1.0  0.13824  0.91323  0.86690  1.0000
  H   H1881     1.0  0.14235  0.93305  0.91083  1.0000
  S   S364      1.0  0.02046  0.74227  0.51935  1.0000
  H   H1882     1.0  0.11571  0.82449  0.75434  1.0000
  C   C1142     1.0  0.09830  0.73665  0.93766  1.0000
  H   H1883     1.0  0.11866  0.90977  0.89370  1.0000
  H   H1884     1.0  0.13317  0.76904  0.65450  1.0000
  C   C1143     1.0  0.11832  0.79684  0.88565  1.0000
  C   C1144     1.0  0.11279  0.78920  0.90108  1.0000
  C   C1145     1.0  0.11701  0.79216  0.91362  1.0000
  C   C1146     1.0  0.12684  0.80260  0.91077  1.0000
  C   C1147     1.0  0.13248  0.81004  0.89530  1.0000
  C   C1148     1.0  0.12809  0.80731  0.88278  1.0000
  H   H1885     1.0  0.10522  0.78111  0.90334  1.0000
  H   H1886     1.0  0.11272  0.78633  0.92553  1.0000
  H   H1887     1.0  0.14048  0.81762  0.89286  1.0000
  H   H1888     1.0  0.13253  0.81308  0.87083  1.0000
  H   H1889     1.0  0.06290  0.74835  0.48410  1.0000
  C   C1149     1.0  0.04639  0.75522  0.59098  1.0000
  C   C1150     1.0  0.04546  0.76412  0.60180  1.0000
  C   C1151     1.0  0.05901  0.76786  0.60322  1.0000
  C   C1152     1.0  0.07364  0.76277  0.59376  1.0000
  C   C1153     1.0  0.99594  0.79637  0.78223  1.0000
  C   C1154     1.0  0.22677  0.88390  0.81673  1.0000
  H   H1890     1.0  0.03418  0.76810  0.60916  1.0000
  H   H1891     1.0  0.05812  0.77469  0.61160  1.0000
  H   H1892     1.0  0.23855  0.83341  0.80788  1.0000
  H   H1893     1.0  0.19612  0.86850  0.96043  1.0000
  H   H1894     1.0  0.12618  0.91526  0.84489  1.0000
  H   H1895     1.0  0.19179  0.85540  0.81769  1.0000
  H   H1896     1.0  0.12247  0.94298  0.85684  1.0000
  H   H1897     1.0  0.17192  0.83016  0.82844  1.0000
  H   H1898     1.0  0.05549  0.76891  0.71702  1.0000
  C   C1155     1.0  0.01992  0.83976  0.64449  1.0000
  H   H1899     1.0  0.99690  0.77146  0.78935  1.0000
  H   H1900     1.0  0.03956  0.74906  0.80832  1.0000
  H   H1901     1.0  0.99375  0.87596  0.66616  1.0000
  C   C1156     1.0  0.02047  0.84174  0.62686  1.0000
  H   H1902     1.0  0.22659  0.84947  0.86891  1.0000
  S   S365      1.0  0.02908  0.75021  0.59033  1.0000
  H   H1903     1.0  0.04063  0.74579  0.66163  1.0000
  H   H1904     1.0  0.02918  0.84539  0.64503  1.0000
  C   C1157     1.0  0.09928  0.97270  0.76255  1.0000
  H   H1905     1.0  0.15962  0.75392  0.84332  1.0000
  H   H1906     1.0  0.05623  0.76569  0.95930  1.0000
  S   S366      1.0  0.11338  0.74934  0.88603  1.0000
  H   H1907     1.0  0.04691  0.91966  0.71272  1.0000
  H   H1908     1.0  0.14036  0.88576  0.95007  1.0000
  H   H1909     1.0  0.04525  0.78910  0.96759  1.0000
  Fe  Fe186     1.0  0.07274  0.76249  0.87484  1.0000
  H   H1910     1.0  0.00614  0.79995  0.82057  1.0000
  H   H1911     1.0  0.06000  0.74315  0.71022  1.0000
  C   C1158     1.0  0.16177  0.76320  0.66487  1.0000
  H   H1912     1.0  0.11854  0.93468  0.89300  1.0000
  H   H1913     1.0  0.99730  0.82414  0.65804  1.0000
  H   H1914     1.0  0.16967  0.97277  0.78462  1.0000
  H   H1915     1.0  0.19236  0.82731  0.81979  1.0000
  C   C1159     1.0  0.19879  0.79690  0.86472  1.0000
  H   H1916     1.0  0.02201  0.76491  0.86066  1.0000
  C   C1160     1.0  0.18211  0.78694  0.96104  1.0000
  H   H1917     1.0  0.10039  0.92459  0.83863  1.0000
  C   C1161     1.0  0.09425  0.79195  0.96077  1.0000
  H   H1918     1.0  0.20592  0.97926  0.83929  1.0000
  H   H1919     1.0  0.21610  0.82517  0.84034  1.0000
  N   N76       1.0  0.00429  0.84623  0.65441  1.0000
  H   H1920     1.0  0.08583  0.75013  0.57536  1.0000
  Fe  Fe187     1.0  0.08989  0.74653  0.90147  1.0000
  S   S367      1.0  0.22773  0.75888  0.81116  1.0000
  C   C1162     1.0  0.17319  0.76800  0.91577  1.0000
  C   C1163     1.0  0.05012  0.75945  0.72568  1.0000
  C   C1164     1.0  0.06099  0.75024  0.58140  1.0000
  C   C1165     1.0  0.07334  0.77073  0.97786  1.0000
  H   H1921     1.0  0.01101  0.74903  0.48990  1.0000
  H   H1922     1.0  0.01707  0.85418  0.62084  1.0000
  H   H1923     1.0  0.05519  0.80038  0.95094  1.0000
  S   S368      1.0  0.00557  0.74528  0.81438  1.0000
  H   H1924     1.0  0.22586  0.86674  0.68032  1.0000
  H   H1925     1.0  0.23138  0.86387  0.80644  1.0000
  S   S369      1.0  0.04941  0.76954  0.86764  1.0000
  N   N77       1.0  0.07063  0.78009  0.96190  1.0000
  C   C1166     1.0  0.12250  0.94123  0.88089  1.0000
  H   H1926     1.0  0.10695  0.75291  0.69573  1.0000
  S   S370      1.0  0.22088  0.90969  0.82906  1.0000
  H   H1927     1.0  0.21183  0.84863  0.85942  1.0000
  H   H1928     1.0  0.14209  0.78165  0.96248  1.0000
  C   C1167     1.0  0.07456  0.75407  0.58275  1.0000
  C   C1168     1.0  0.03000  0.74484  0.84980  1.0000
  H   H1929     1.0  0.17886  0.84084  0.80873  1.0000
  H   H1930     1.0  0.17587  0.74093  0.88391  1.0000
  H   H1931     1.0  0.16937  0.76358  0.86551  1.0000
  N   N78       1.0  0.03663  0.78255  0.80710  1.0000
  C   C1169     1.0  0.02142  0.77733  0.81541  1.0000
  C   C1170     1.0  0.04554  0.77205  0.79570  1.0000
  C   C1171     1.0  0.03253  0.79948  0.79837  1.0000
  C   C1172     1.0  0.04560  0.78103  0.81939  1.0000
  C   C1173     1.0  0.01175  0.82756  0.67988  1.0000
  C   C1174     1.0  0.05001  0.75430  0.80289  1.0000
  C   C1175     1.0  0.04404  0.80493  0.78291  1.0000
  C   C1176     1.0  0.06215  0.78455  0.81336  1.0000
  H   H1932     1.0  0.01509  0.77684  0.80670  1.0000
  H   H1933     1.0  0.02367  0.76526  0.82272  1.0000
  H   H1934     1.0  0.05672  0.77547  0.78880  1.0000
  H   H1935     1.0  0.03855  0.77338  0.78686  1.0000
  H   H1936     1.0  0.13159  0.77320  0.67921  1.0000
  H   H1937     1.0  0.03078  0.80769  0.80616  1.0000
  H   H1938     1.0  0.03904  0.78897  0.82757  1.0000
  H   H1939     1.0  0.04691  0.76899  0.82689  1.0000
  N   N79       1.0  0.13800  0.74986  0.67426  1.0000
  H   H1940     1.0  0.08160  0.97743  0.79974  1.0000
  H   H1941     1.0  0.23791  0.90355  0.67495  1.0000
  H   H1942     1.0  0.13653  0.96758  0.79900  1.0000
  H   H1943     1.0  0.02317  0.82110  0.67407  1.0000
  H   H1944     1.0  0.14124  0.97455  0.82071  1.0000
  H   H1945     1.0  0.04026  0.81783  0.77878  1.0000
  H   H1946     1.0  0.04367  0.79950  0.77346  1.0000
  H   H1947     1.0  0.05633  0.80245  0.78418  1.0000
  H   H1948     1.0  0.07007  0.77672  0.80561  1.0000
  H   H1949     1.0  0.06750  0.78238  0.82364  1.0000
  H   H1950     1.0  0.06166  0.79704  0.80742  1.0000
  N   N80       1.0  0.16181  0.75694  0.89895  1.0000
  C   C1177     1.0  0.16090  0.77261  0.88741  1.0000
  H   H1951     1.0  0.06185  0.81502  0.96451  1.0000
  C   C1178     1.0  0.08817  0.97997  0.78773  1.0000
  H   H1952     1.0  0.12575  0.76040  0.82177  1.0000
  C   C1179     1.0  0.23946  0.90189  0.63710  1.0000
  H   H1953     1.0  0.23265  0.84020  0.69912  1.0000
  H   H1954     1.0  0.10362  0.79725  0.95188  1.0000
  S   S371      1.0  0.23699  0.83531  0.77080  1.0000
  H   H1955     1.0  0.15307  0.75352  0.96972  1.0000
  H   H1956     1.0  0.17131  0.77754  0.88600  1.0000
  C   C1180     1.0  0.19400  0.82480  0.97424  1.0000
  H   H1957     1.0  0.14886  0.76783  0.91860  1.0000
  H   H1958     1.0  0.10592  0.77270  0.69615  1.0000
  H   H1959     1.0  0.08247  0.79552  0.94199  1.0000
  S   S372      1.0  0.21872  0.85837  0.64659  1.0000
  H   H1960     1.0  0.07237  0.74337  0.72202  1.0000
  H   H1961     1.0  0.15947  0.76804  0.65286  1.0000
  C   C1181     1.0  0.00967  0.78752  0.82659  1.0000
  H   H1962     1.0  0.22564  0.92811  0.78820  1.0000
  H   H1963     1.0  0.13666  0.75928  0.90285  1.0000
  H   H1964     1.0  0.14473  0.75772  0.63368  1.0000
  H   H1965     1.0  0.10595  0.76836  0.67818  1.0000
  H   H1966     1.0  0.05749  0.75169  0.81152  1.0000
  H   H1967     1.0  0.22506  0.94823  0.78680  1.0000
  H   H1968     1.0  0.16279  0.73887  0.66705  1.0000
  H   H1969     1.0  0.08476  0.91825  0.66642  1.0000
  C   C1182     1.0  0.14356  0.74849  0.64469  1.0000
  N   N81       1.0  0.18122  0.88138  0.94390  1.0000
  H   H1970     1.0  0.10110  0.96479  0.75489  1.0000
  N   N82       1.0  0.12067  0.91915  0.86877  1.0000
  H   H1971     1.0  0.11056  0.86947  0.64122  1.0000
  C   C1183     1.0  0.10356  0.83213  0.62885  1.0000
  C   C1184     1.0  0.14781  0.75069  0.89953  1.0000
  C   C1185     1.0  0.22426  0.87542  0.80719  1.0000
  C   C1186     1.0  0.17302  0.75160  0.81316  1.0000
  H   H1972     1.0  0.10724  0.93991  0.84154  1.0000
  H   H1973     1.0  0.01611  0.85089  0.66986  1.0000
  N   N83       1.0  0.07951  0.91239  0.70055  1.0000
  C   C1187     1.0  0.22311  0.90341  0.64005  1.0000
  H   H1974     1.0  0.18524  0.76222  0.91053  1.0000
  Fe  Fe188     1.0  0.10081  0.77354  0.87638  1.0000
  S   S373      1.0  0.20033  0.94678  0.84663  1.0000
  H   H1975     1.0  0.18848  0.88625  0.83921  1.0000
  H   H1976     1.0  0.10504  0.90889  0.66394  1.0000
  Fe  Fe189     1.0  0.19350  0.85782  0.66003  1.0000
  Fe  Fe190     1.0  0.99959  0.86123  0.71785  1.0000
  Fe  Fe191     1.0  0.09567  0.93313  0.77190  1.0000
  H   H1977     1.0  0.07290  0.91683  0.72415  1.0000
  C   C1188     1.0  0.06776  0.76905  0.95369  1.0000
  H   H1978     1.0  0.19807  0.91661  0.81009  1.0000
  Fe  Fe192     1.0  0.17529  0.85439  0.69375  1.0000
  H   H1979     1.0  0.05024  0.89822  0.70102  1.0000
  H   H1980     1.0  0.20535  0.77344  0.86042  1.0000
  S   S374      1.0  0.19128  0.82426  0.94511  1.0000
  C   C1189     1.0  0.18383  0.82858  0.96392  1.0000
  C   C1190     1.0  0.13322  0.73437  0.68215  1.0000
  H   H1981     1.0  0.15711  0.77247  0.67181  1.0000
  H   H1982     1.0  0.05873  0.78597  0.93358  1.0000
  H   H1983     1.0  0.09490  0.83965  0.62178  1.0000
  H   H1984     1.0  0.14984  0.93264  0.73276  1.0000
  H   H1985     1.0  0.15616  0.94573  0.71489  1.0000
  H   H1986     1.0  0.11140  0.73466  0.65470  1.0000
  C   C1191     1.0  0.21727  0.89877  0.81782  1.0000
  C   C1192     1.0  0.16963  0.90712  0.89086  1.0000
  C   C1193     1.0  0.16043  0.93618  0.72445  1.0000
  H   H1987     1.0  0.16551  0.92064  0.70903  1.0000
  H   H1988     1.0  0.18670  0.90253  0.94552  1.0000
  H   H1989     1.0  0.18082  0.90624  0.88253  1.0000
  H   H1990     1.0  0.16136  0.83046  0.85490  1.0000
  H   H1991     1.0  0.04311  0.93907  0.70094  1.0000
  H   H1992     1.0  0.15522  0.90748  0.74711  1.0000
  H   H1993     1.0  0.15368  0.90366  0.72948  1.0000
  H   H1994     1.0  0.16645  0.94134  0.73027  1.0000
  H   H1995     1.0  0.01849  0.74511  0.84827  1.0000
  N   N84       1.0  0.16466  0.73815  0.81963  1.0000
  C   C1194     1.0  0.16003  0.77274  0.87059  1.0000
  H   H1996     1.0  0.18646  0.75276  0.88768  1.0000
  C   C1195     1.0  0.14698  0.77733  0.97329  1.0000
  C   C1196     1.0  0.08517  0.85882  0.64334  1.0000
  Fe  Fe193     1.0  0.17500  0.83052  0.92845  1.0000
  H   H1997     1.0  0.19426  0.80218  0.85415  1.0000
  H   H1998     1.0  0.13428  0.87144  0.83630  1.0000
  H   H1999     1.0  0.14273  0.88842  0.82608  1.0000
  H   H2000     1.0  0.06798  0.86138  0.66554  1.0000
  H   H2001     1.0  0.10130  0.86614  0.66124  1.0000
  C   C1197     1.0  0.17168  0.92252  0.71722  1.0000
  H   H2002     1.0  0.18226  0.92691  0.70964  1.0000
  H   H2003     1.0  0.19150  0.88251  0.70200  1.0000
  S   S375      1.0  0.07770  0.77157  0.89337  1.0000
  H   H2004     1.0  0.07957  0.77709  0.92888  1.0000
  H   H2005     1.0  0.14769  0.74648  0.80479  1.0000
  C   C1198     1.0  0.16247  0.89417  0.89664  1.0000
  H   H2006     1.0  0.16371  0.87121  0.80876  1.0000
  C   C1199     1.0  0.14777  0.89551  0.90705  1.0000
  Fe  Fe194     1.0  0.19980  0.92901  0.83387  1.0000
  Fe  Fe195     1.0  0.22642  0.74211  0.83482  1.0000
  H   H2007     1.0  0.06411  0.90351  0.68288  1.0000
  H   H2008     1.0  0.07789  0.87773  0.65670  1.0000
  H   H2009     1.0  0.08824  0.86695  0.63178  1.0000
  C   C1200     1.0  0.16183  0.90118  0.73750  1.0000
  H   H2010     1.0  0.18274  0.90270  0.69583  1.0000
  C   C1201     1.0  0.08358  0.91470  0.71474  1.0000
  H   H2011     1.0  0.15448  0.87010  0.94259  1.0000
  N   N85       1.0  0.16841  0.86156  0.83214  1.0000
  C   C1202     1.0  0.19876  0.84952  0.73450  1.0000
  H   H2012     1.0  0.07283  0.93752  0.69204  1.0000
  H   H2013     1.0  0.99635  0.85009  0.67836  1.0000
  S   S376      1.0  0.17570  0.85277  0.71885  1.0000
  H   H2014     1.0  0.20397  0.89150  0.64545  1.0000
  C   C1203     1.0  0.07309  0.86880  0.65441  1.0000
  H   H2015     1.0  0.13362  0.84854  0.64616  1.0000
  C   C1204     1.0  0.14162  0.87686  0.82523  1.0000
  N   N86       1.0  0.17641  0.90737  0.72871  1.0000
  C   C1205     1.0  0.18297  0.89272  0.70619  1.0000
  H   H2016     1.0  0.16169  0.87721  0.73695  1.0000
  H   H2017     1.0  0.09787  0.84616  0.76766  1.0000
  C   C1206     1.0  0.22552  0.83132  0.83270  1.0000
  H   H2018     1.0  0.03280  0.83728  0.62093  1.0000
  H   H2019     1.0  0.06309  0.87535  0.64867  1.0000
  H   H2020     1.0  0.17850  0.88160  0.81890  1.0000
  C   C1207     1.0  0.15769  0.86576  0.82076  1.0000
  H   H2021     1.0  0.19005  0.89656  0.91298  1.0000
  C   C1208     1.0  0.19078  0.90339  0.92103  1.0000
  H   H2022     1.0  0.17126  0.88965  0.71033  1.0000
  S   S377      1.0  0.09482  0.76673  0.85714  1.0000
  C   C1209     1.0  0.09499  0.90084  0.72282  1.0000
  H   H2023     1.0  0.16332  0.88550  0.83541  1.0000
  H   H2024     1.0  0.17476  0.76024  0.66357  1.0000
  C   C1210     1.0  0.21248  0.88191  0.79859  1.0000
  S   S378      1.0  0.17408  0.81297  0.91569  1.0000
  H   H2025     1.0  0.07857  0.85111  0.64132  1.0000
  H   H2026     1.0  0.15486  0.85526  0.81914  1.0000
  H   H2027     1.0  0.16797  0.88344  0.89249  1.0000
  C   C1211     1.0  0.18844  0.89630  0.71928  1.0000
  C   C1212     1.0  0.22468  0.84705  0.85829  1.0000
  H   H2028     1.0  0.14824  0.77162  0.87020  1.0000
  C   C1213     1.0  0.12886  0.80976  0.96686  1.0000
  H   H2029     1.0  0.13596  0.75607  0.83695  1.0000
  H   H2030     1.0  0.05693  0.74810  0.79332  1.0000
  H   H2031     1.0  0.12363  0.84150  0.66612  1.0000
  H   H2032     1.0  0.09650  0.90383  0.73329  1.0000
  H   H2033     1.0  0.13504  0.87922  0.81582  1.0000
  C   C1214     1.0  0.21051  0.77366  0.88219  1.0000
  H   H2034     1.0  0.11340  0.84535  0.77702  1.0000
  H   H2035     1.0  0.19436  0.90205  0.79257  1.0000
  H   H2036     1.0  0.19924  0.90107  0.71358  1.0000
  C   C1215     1.0  0.13349  0.75625  0.65850  1.0000
  H   H2037     1.0  0.07674  0.75788  0.95479  1.0000
  C   C1216     1.0  0.22641  0.87522  0.64341  1.0000
  H   H2038     1.0  0.17273  0.76740  0.92829  1.0000
  S   S379      1.0  0.14962  0.84162  0.89722  1.0000
  H   H2039     1.0  0.06471  0.92673  0.68418  1.0000
  H   H2040     1.0  0.14134  0.85988  0.76632  1.0000
  C   C1217     1.0  0.10866  0.83868  0.77149  1.0000
  Fe  Fe196     1.0  0.10540  0.74229  0.86826  1.0000
  H   H2041     1.0  0.08640  0.85276  0.67956  1.0000
  H   H2042     1.0  0.09800  0.82336  0.63824  1.0000
  C   C1218     1.0  0.16416  0.88337  0.74471  1.0000
  H   H2043     1.0  0.14268  0.84221  0.86258  1.0000
  H   H2044     1.0  0.14744  0.84145  0.84261  1.0000
  H   H2045     1.0  0.00247  0.82087  0.68230  1.0000
  H   H2046     1.0  0.15537  0.85125  0.75077  1.0000
  Fe  Fe197     1.0  0.15245  0.85637  0.91194  1.0000
  H   H2047     1.0  0.16786  0.76421  0.95945  1.0000
  H   H2048     1.0  0.08175  0.83396  0.68668  1.0000
  H   H2049     1.0  0.13112  0.82434  0.76263  1.0000
  C   C1219     1.0  0.15244  0.87850  0.95018  1.0000
  C   C1220     1.0  0.17348  0.87636  0.83131  1.0000
  H   H2050     1.0  0.16013  0.83896  0.96083  1.0000
  H   H2051     1.0  0.10510  0.82864  0.78080  1.0000
  N   N87       1.0  0.09993  0.84921  0.64882  1.0000
  H   H2052     1.0  0.19267  0.88480  0.72674  1.0000
  C   C1221     1.0  0.18117  0.83630  0.82077  1.0000
  S   S380      1.0  0.18895  0.83659  0.67932  1.0000
  C   C1222     1.0  0.06786  0.77515  0.93596  1.0000
  H   H2053     1.0  0.17533  0.91938  0.74677  1.0000
  C   C1223     1.0  0.12100  0.83238  0.75783  1.0000
  C   C1224     1.0  0.09114  0.84023  0.67933  1.0000
  H   H2054     1.0  0.08686  0.83107  0.66159  1.0000
  C   C1225     1.0  0.03199  0.75598  0.85685  1.0000
  C   C1226     1.0  0.14342  0.85167  0.75848  1.0000
  C   C1227     1.0  0.22323  0.84301  0.70895  1.0000
  H   H2055     1.0  0.22893  0.85617  0.84831  1.0000
  H   H2056     1.0  0.21540  0.91493  0.63971  1.0000
  C   C1228     1.0  0.19824  0.80624  0.87495  1.0000
  H   H2057     1.0  0.14326  0.84002  0.76642  1.0000
  C   C1229     1.0  0.09618  0.83619  0.66287  1.0000
  H   H2058     1.0  0.19380  0.91693  0.73311  1.0000
  H   H2059     1.0  0.18223  0.87446  0.92238  1.0000
  H   H2060     1.0  0.15051  0.78130  0.89193  1.0000
  H   H2061     1.0  0.05313  0.93537  0.71638  1.0000
  H   H2062     1.0  0.12016  0.86471  0.75492  1.0000
  H   H2063     1.0  0.13650  0.81344  0.73615  1.0000
  H   H2064     1.0  0.10102  0.83559  0.68555  1.0000
  H   H2065     1.0  0.22293  0.87859  0.69415  1.0000
  H   H2066     1.0  0.18064  0.89238  0.76122  1.0000
  H   H2067     1.0  0.16073  0.74930  0.92425  1.0000
  C   C1230     1.0  0.10841  0.85992  0.65183  1.0000
  C   C1231     1.0  0.19042  0.74760  0.81432  1.0000
  C   C1232     1.0  0.15267  0.84164  0.85220  1.0000
  C   C1233     1.0  0.19094  0.89373  0.93799  1.0000
  H   H2068     1.0  0.06183  0.74343  0.57298  1.0000
  H   H2069     1.0  0.20505  0.84594  0.69676  1.0000
  H   H2070     1.0  0.23407  0.78299  0.78355  1.0000
  C   C1234     1.0  0.18392  0.91103  0.73985  1.0000
  H   H2071     1.0  0.21858  0.83240  0.81117  1.0000
  S   S381      1.0  0.00694  0.74015  0.56436  1.0000
  C   C1235     1.0  0.18590  0.87455  0.84083  1.0000
  H   H2072     1.0  0.10337  0.85997  0.74249  1.0000
  C   C1236     1.0  0.13065  0.85731  0.74860  1.0000
  N   N88       1.0  0.12631  0.84470  0.74378  1.0000
  H   H2073     1.0  0.10710  0.84331  0.73446  1.0000
  H   H2074     1.0  0.16027  0.89892  0.95049  1.0000
  H   H2075     1.0  0.17571  0.87760  0.74766  1.0000
  S   S382      1.0  0.12340  0.75061  0.96727  1.0000
  H   H2076     1.0  0.06570  0.88369  0.69351  1.0000
  C   C1237     1.0  0.13829  0.82397  0.72670  1.0000
  H   H2077     1.0  0.02108  0.80202  0.79482  1.0000
  C   C1238     1.0  0.14062  0.83703  0.73318  1.0000
  C   C1239     1.0  0.11285  0.85226  0.73549  1.0000
  C   C1240     1.0  0.18309  0.84958  0.82721  1.0000
  H   H2078     1.0  0.15106  0.86550  0.85358  1.0000
  H   H2079     1.0  0.14526  0.84591  0.72302  1.0000
  C   C1241     1.0  0.22956  0.87659  0.68235  1.0000
  H   H2080     1.0  0.14915  0.82027  0.71797  1.0000
  H   H2081     1.0  0.09097  0.89707  0.67349  1.0000
  H   H2082     1.0  0.19643  0.90137  0.75887  1.0000
  H   H2083     1.0  0.12844  0.82794  0.72052  1.0000
  S   S383      1.0  0.13748  0.88046  0.91273  1.0000
  C   C1242     1.0  0.09443  0.91123  0.68793  1.0000
  C   C1243     1.0  0.19033  0.89711  0.75230  1.0000
  H   H2084     1.0  0.18934  0.85166  0.74451  1.0000
  H   H2085     1.0  0.12405  0.85505  0.71031  1.0000
  H   H2086     1.0  0.15049  0.83165  0.73940  1.0000
  H   H2087     1.0  0.12927  0.91047  0.92040  1.0000
  C   C1244     1.0  0.11700  0.86239  0.71883  1.0000
  H   H2088     1.0  0.19721  0.86676  0.83657  1.0000
  H   H2089     1.0  0.10665  0.82630  0.66340  1.0000
  H   H2090     1.0  0.16170  0.78430  0.86289  1.0000
  C   C1245     1.0  0.16017  0.85588  0.84887  1.0000
  H   H2091     1.0  0.12327  0.87143  0.71843  1.0000
  H   H2092     1.0  0.13524  0.86587  0.73806  1.0000
  H   H2093     1.0  0.00966  0.86886  0.64163  1.0000
  H   H2094     1.0  0.21461  0.77784  0.90284  1.0000
  H   H2095     1.0  0.10685  0.89849  0.71526  1.0000
  C   C1246     1.0  0.16427  0.88937  0.94384  1.0000
  H   H2096     1.0  0.13622  0.81198  0.95486  1.0000
  H   H2097     1.0  0.09316  0.92598  0.89621  1.0000
  H   H2098     1.0  0.10599  0.86851  0.71468  1.0000
  H   H2099     1.0  0.15531  0.88146  0.75588  1.0000
  H   H2100     1.0  0.23130  0.91629  0.76693  1.0000
  H   H2101     1.0  0.12143  0.83394  0.63903  1.0000
  Fe  Fe198     1.0  0.02796  0.73451  0.57518  1.0000
  H   H2102     1.0  0.18168  0.87038  0.85363  1.0000
  H   H2103     1.0  0.19913  0.88762  0.74719  1.0000
  C   C1247     1.0  0.19530  0.84915  0.72048  1.0000
  H   H2104     1.0  0.09028  0.89002  0.72716  1.0000
  H   H2105     1.0  0.20337  0.88877  0.93914  1.0000
  C   C1248     1.0  0.06768  0.92693  0.69515  1.0000
  H   H2106     1.0  0.07123  0.74344  0.85583  1.0000
  H   H2107     1.0  0.19488  0.75861  0.81048  1.0000
  H   H2108     1.0  0.18083  0.91382  0.92092  1.0000
  H   H2109     1.0  0.11310  0.82559  0.62081  1.0000
  C   C1249     1.0  0.11410  0.74446  0.95614  1.0000
  C   C1250     1.0  0.05638  0.79344  0.96292  1.0000
  H   H2110     1.0  0.18910  0.84385  0.83720  1.0000
  C   C1251     1.0  0.08521  0.78598  0.95226  1.0000
  H   H2111     1.0  0.10033  0.78210  0.96891  1.0000
  H   H2112     1.0  0.17092  0.78067  0.90999  1.0000
  H   H2113     1.0  0.10380  0.90126  0.69190  1.0000
  H   H2114     1.0  0.21711  0.84745  0.74637  1.0000
  S   S384      1.0  0.18980  0.82646  0.87110  1.0000
  C   C1252     1.0  0.11617  0.75101  0.93999  1.0000
  C   C1253     1.0  0.20531  0.90510  0.80944  1.0000
  C   C1254     1.0  0.22672  0.84361  0.72283  1.0000
  S   S385      1.0  0.08299  0.95235  0.78529  1.0000
  Fe  Fe199     1.0  0.17571  0.83248  0.89426  1.0000
  H   H2115     1.0  0.16849  0.85236  0.85684  1.0000
  H   H2116     1.0  0.17861  0.86208  0.96408  1.0000
  S   S386      1.0  0.17884  0.84939  0.90662  1.0000
  C   C1255     1.0  0.20306  0.89677  0.79967  1.0000
  C   C1256     1.0  0.06284  0.89604  0.69484  1.0000
  C   C1257     1.0  0.00693  0.84451  0.67061  1.0000
  H   H2117     1.0  0.21084  0.87153  0.92216  1.0000
  C   C1258     1.0  0.21448  0.84701  0.73559  1.0000
  C   C1259     1.0  0.23335  0.83008  0.85680  1.0000
  C   C1260     1.0  0.99922  0.86341  0.64693  1.0000
  C   C1261     1.0  0.18632  0.86954  0.93361  1.0000
  H   H2118     1.0  0.08850  0.92001  0.88057  1.0000
  C   C1262     1.0  0.04685  0.75543  0.85916  1.0000
  C   C1263     1.0  0.12442  0.85193  0.65636  1.0000
  C   C1264     1.0  0.11066  0.84193  0.63542  1.0000
  H   H2119     1.0  0.20449  0.80654  0.89611  1.0000
  C   C1265     1.0  0.20756  0.84610  0.70767  1.0000
  H   H2120     1.0  0.16245  0.95564  0.79599  1.0000
  H   H2121     1.0  0.11495  0.85111  0.62532  1.0000
  C   C1266     1.0  0.20414  0.86256  0.92960  1.0000
  H   H2122     1.0  0.13301  0.75773  0.69606  1.0000
  H   H2123     1.0  0.12858  0.86033  0.66032  1.0000
  C   C1267     1.0  0.20428  0.79934  0.88848  1.0000
  C   C1268     1.0  0.21021  0.78310  0.89218  1.0000
  C   C1269     1.0  0.05969  0.74378  0.85437  1.0000
  H   H2124     1.0  0.13816  0.97957  0.78012  1.0000
  C   C1270     1.0  0.07332  0.89755  0.70505  1.0000
  H   H2125     1.0  0.09918  0.92199  0.68530  1.0000
  H   H2126     1.0  0.08870  0.92532  0.71167  1.0000
  C   C1271     1.0  0.18340  0.87282  0.96024  1.0000
  C   C1272     1.0  0.09081  0.96937  0.77806  1.0000
  S   S387      1.0  0.20975  0.87174  0.78615  1.0000
  H   H2127     1.0  0.16131  0.79686  0.95123  1.0000
  H   H2128     1.0  0.20201  0.90743  0.91585  1.0000
  C   C1273     1.0  0.24044  0.90647  0.77157  1.0000
  C   C1274     1.0  0.05190  0.93024  0.70710  1.0000
  H   H2129     1.0  0.99877  0.78283  0.83125  1.0000
  H   H2130     1.0  0.23259  0.81491  0.81670  1.0000
  H   H2131     1.0  0.22476  0.82267  0.86364  1.0000
  C   C1275     1.0  0.21659  0.89014  0.64334  1.0000
  C   C1276     1.0  0.05290  0.73981  0.65711  1.0000
  H   H2132     1.0  0.14221  0.76893  0.81813  1.0000
  S   S388      1.0  0.20440  0.74407  0.85384  1.0000
  H   H2133     1.0  0.18881  0.79268  0.96553  1.0000
  H   H2134     1.0  0.18785  0.78770  0.94839  1.0000
  H   H2135     1.0  0.03790  0.76157  0.72418  1.0000
  H   H2136     1.0  0.06524  0.76605  0.93159  1.0000
  H   H2137     1.0  0.23134  0.89291  0.59315  1.0000
  C   C1277     1.0  0.11099  0.76377  0.68880  1.0000
  H   H2138     1.0  0.16207  0.96242  0.77542  1.0000
  C   C1278     1.0  0.16040  0.96626  0.78651  1.0000
  H   H2139     1.0  0.06029  0.74846  0.65486  1.0000
  H   H2140     1.0  0.13548  0.93988  0.87806  1.0000
  C   C1279     1.0  0.23790  0.79804  0.84885  1.0000
  H   H2141     1.0  0.01323  0.83464  0.62499  1.0000
  C   C1280     1.0  0.05996  0.74336  0.72246  1.0000
  C   C1281     1.0  0.17704  0.74602  0.89330  1.0000
  H   H2142     1.0  0.09405  0.77640  0.94725  1.0000
  H   H2143     1.0  0.99359  0.86470  0.63702  1.0000
  C   C1282     1.0  0.10803  0.74739  0.93083  1.0000
  H   H2144     1.0  0.17260  0.75656  0.80054  1.0000
  C   C1283     1.0  0.16091  0.74125  0.84845  1.0000
  H   H2145     1.0  0.07842  0.74532  0.62503  1.0000
  C   C1284     1.0  0.23907  0.77321  0.80663  1.0000
  H   H2146     1.0  0.19337  0.73505  0.90926  1.0000
  H   H2147     1.0  0.05057  0.74568  0.63300  1.0000
  C   C1285     1.0  0.00234  0.78063  0.78120  1.0000
  S   S389      1.0  0.21748  0.75325  0.88769  1.0000
  H   H2148     1.0  0.15575  0.74261  0.64567  1.0000
  N   N89       1.0  0.15284  0.78997  0.97644  1.0000
  C   C1286     1.0  0.15919  0.76213  0.97072  1.0000
  H   H2149     1.0  0.15991  0.97830  0.81077  1.0000
  H   H2150     1.0  0.10917  0.75302  0.91853  1.0000
  H   H2151     1.0  0.01427  0.78689  0.83693  1.0000
  H   H2152     1.0  0.15788  0.74432  0.68518  1.0000
  H   H2153     1.0  0.15258  0.87201  0.96246  1.0000
  S   S390      1.0  0.99449  0.82803  0.77221  1.0000
  H   H2154     1.0  0.12113  0.73494  0.68102  1.0000
  H   H2155     1.0  0.03099  0.74029  0.74388  1.0000
  H   H2156     1.0  0.12134  0.80164  0.96766  1.0000
  H   H2157     1.0  0.01333  0.82803  0.69147  1.0000
  H   H2158     1.0  0.08396  0.76099  0.97651  1.0000
  S   S391      1.0  0.08294  0.73726  0.88448  1.0000
  H   H2159     1.0  0.18706  0.98207  0.86903  1.0000
  H   H2160     1.0  0.18092  0.89270  0.97114  1.0000
  H   H2161     1.0  0.16302  0.88552  0.97535  1.0000
  C   C1287     1.0  0.05358  0.73475  0.64195  1.0000
  H   H2162     1.0  0.23606  0.87905  0.82317  1.0000
  H   H2163     1.0  0.16489  0.80830  0.96232  1.0000
  H   H2164     1.0  0.17603  0.96773  0.87188  1.0000
  H   H2165     1.0  0.23293  0.93375  0.80203  1.0000
  H   H2166     1.0  0.19800  0.73975  0.80642  1.0000
  H   H2167     1.0  0.12082  0.82108  0.96885  1.0000
  H   H2168     1.0  0.11228  0.97874  0.80890  1.0000
  H   H2169     1.0  0.23622  0.90215  0.78425  1.0000
  H   H2170     1.0  0.14971  0.73946  0.85691  1.0000
  C   C1288     1.0  0.23220  0.93610  0.78953  1.0000
  H   H2171     1.0  0.16499  0.98114  0.89324  1.0000
  H   H2172     1.0  0.22849  0.79933  0.84268  1.0000
  C   C1289     1.0  0.24028  0.78363  0.79192  1.0000
  H   H2173     1.0  0.03657  0.73936  0.71218  1.0000
  H   H2174     1.0  0.10610  0.73416  0.62198  1.0000
  H   H2175     1.0  0.17013  0.73797  0.85541  1.0000
  H   H2176     1.0  0.08305  0.73515  0.64345  1.0000
  C   C1290     1.0  0.05587  0.80555  0.97219  1.0000
  H   H2177     1.0  0.18389  0.77436  0.96675  1.0000
  H   H2178     1.0  0.23285  0.79799  0.86148  1.0000
  C   C1291     1.0  0.99267  0.83703  0.65460  1.0000
  C   C1292     1.0  0.17532  0.98054  0.86912  1.0000
  H   H2179     1.0  0.23569  0.89282  0.70284  1.0000
  C   C1293     1.0  0.17603  0.88217  0.97335  1.0000
  C   C1294     1.0  0.14641  0.73462  0.91058  1.0000
  H   H2180     1.0  0.04338  0.81095  0.97674  1.0000
  H   H2181     1.0  0.05289  0.73765  0.75487  1.0000
  H   H2182     1.0  0.01807  0.73959  0.72537  1.0000
  C   C1295     1.0  0.13886  0.80332  0.97945  1.0000
  H   H2183     1.0  0.14595  0.73443  0.92297  1.0000
  H   H2184     1.0  0.14133  0.73409  0.82314  1.0000
  H   H2185     1.0  0.25397  0.08492  0.25729  1.0000
  H   H2186     1.0  0.30108  0.98544  0.46922  1.0000
  S   S392      1.0  0.25271  0.16639  0.06833  1.0000
  C   C1296     1.0  0.26489  0.05770  0.44211  1.0000
  S   S393      1.0  0.35853  0.00179  0.31231  1.0000
  S   S394      1.0  0.35971  0.04521  0.46210  1.0000
  C   C1297     1.0  0.38572  0.01264  0.44300  1.0000
  H   H2187     1.0  0.31487  0.04310  0.30680  1.0000
  H   H2188     1.0  0.39480  0.00512  0.43562  1.0000
  H   H2189     1.0  0.33221  0.14398  0.18933  1.0000
  H   H2190     1.0  0.28762  0.12603  0.10311  1.0000
  C   C1298     1.0  0.34296  0.99057  0.46044  1.0000
  Fe  Fe200     1.0  0.30193  0.03344  0.41813  1.0000
  S   S395      1.0  0.28085  0.02707  0.41495  1.0000
  S   S396      1.0  0.30166  0.03401  0.44311  1.0000
  Fe  Fe201     1.0  0.31793  0.03486  0.38371  1.0000
  H   H2191     1.0  0.35784  0.00510  0.44364  1.0000
  S   S397      1.0  0.33887  0.04090  0.36513  1.0000
  Fe  Fe202     1.0  0.28256  0.04513  0.39227  1.0000
  S   S398      1.0  0.26191  0.06356  0.38454  1.0000
  H   H2192     1.0  0.32688  0.03819  0.32072  1.0000
  S   S399      1.0  0.30203  0.05316  0.39670  1.0000
  C   C1299     1.0  0.48312  0.08126  0.26913  1.0000
  Fe  Fe203     1.0  0.39129  0.03184  0.26326  1.0000
  S   S400      1.0  0.37762  0.03643  0.24444  1.0000
  S   S401      1.0  0.41524  0.03831  0.25474  1.0000
  H   H2193     1.0  0.31661  0.23355  0.12460  1.0000
  C   C1300     1.0  0.26486  0.07714  0.26084  1.0000
  H   H2194     1.0  0.27222  0.17984  0.07886  1.0000
  C   C1301     1.0  0.25771  0.04663  0.36543  1.0000
  Fe  Fe204     1.0  0.35614  0.04347  0.26267  1.0000
  S   S402      1.0  0.33360  0.06152  0.25925  1.0000
  S   S403      1.0  0.38949  0.00655  0.27208  1.0000
  S   S404      1.0  0.36992  0.04097  0.28087  1.0000
  C   C1302     1.0  0.26337  0.20494  0.07341  1.0000
  H   H2195     1.0  0.48733  0.07906  0.29254  1.0000
  H   H2196     1.0  0.41225  0.03383  0.28856  1.0000
  C   C1303     1.0  0.31176  0.04525  0.21367  1.0000
  H   H2197     1.0  0.35288  0.99001  0.26749  1.0000
  H   H2198     1.0  0.44147  0.11673  0.27162  1.0000
  S   S405      1.0  0.35185  0.01916  0.27150  1.0000
  Fe  Fe205     1.0  0.27283  0.12222  0.17650  1.0000
  H   H2199     1.0  0.32121  0.99556  0.22734  1.0000
  S   S406      1.0  0.26380  0.14861  0.17300  1.0000
  Fe  Fe206     1.0  0.29884  0.09419  0.18481  1.0000
  S   S407      1.0  0.28584  0.07665  0.18433  1.0000
  S   S408      1.0  0.32343  0.08682  0.18935  1.0000
  Fe  Fe207     1.0  0.27914  0.09343  0.16275  1.0000
  S   S409      1.0  0.27616  0.08678  0.14172  1.0000
  Fe  Fe208     1.0  0.26494  0.09141  0.19740  1.0000
  S   S410      1.0  0.25728  0.10710  0.17580  1.0000
  S   S411      1.0  0.29426  0.10979  0.16168  1.0000
  S   S412      1.0  0.27841  0.10774  0.19969  1.0000
  S   S413      1.0  0.29716  0.19730  0.11814  1.0000
  H   H2200     1.0  0.28922  0.17216  0.19680  1.0000
  C   C1304     1.0  0.27237  0.16185  0.15672  1.0000
  C   C1305     1.0  0.28600  0.15669  0.14599  1.0000
  C   C1306     1.0  0.29341  0.16767  0.13411  1.0000
  C   C1307     1.0  0.28696  0.18385  0.13251  1.0000
  C   C1308     1.0  0.27296  0.18898  0.14283  1.0000
  C   C1309     1.0  0.26579  0.17802  0.15498  1.0000
  H   H2201     1.0  0.29107  0.14428  0.14707  1.0000
  H   H2202     1.0  0.30419  0.16362  0.12611  1.0000
  H   H2203     1.0  0.26793  0.20143  0.14175  1.0000
  C   C1310     1.0  0.25114  0.04156  0.29217  1.0000
  H   H2204     1.0  0.30684  0.99789  0.45005  1.0000
  C   C1311     1.0  0.43572  0.03183  0.29149  1.0000
  H   H2205     1.0  0.32147  0.07076  0.29796  1.0000
  H   H2206     1.0  0.32075  0.13567  0.15236  1.0000
  H   H2207     1.0  0.26205  0.18683  0.10759  1.0000
  H   H2208     1.0  0.48789  0.05927  0.45392  1.0000
  H   H2209     1.0  0.33671  0.05421  0.29400  1.0000
  H   H2210     1.0  0.47411  0.00107  0.27706  1.0000
  N   N90       1.0  0.26084  0.06704  0.27711  1.0000
  S   S414      1.0  0.28899  0.23053  0.08280  1.0000
  C   C1312     1.0  0.27894  0.05534  0.15638  1.0000
  C   C1313     1.0  0.27256  0.06785  0.14529  1.0000
  H   H2211     1.0  0.48707  0.06997  0.24370  1.0000
  H   H2212     1.0  0.37411  0.01198  0.46718  1.0000
  H   H2213     1.0  0.47226  0.05578  0.26910  1.0000
  H   H2214     1.0  0.28664  0.05706  0.16268  1.0000
  H   H2215     1.0  0.32950  0.01358  0.36329  1.0000
  H   H2216     1.0  0.25047  0.20720  0.98275  1.0000
  C   C1314     1.0  0.27590  0.07058  0.32685  1.0000
  C   C1315     1.0  0.29888  0.06909  0.34936  1.0000
  C   C1316     1.0  0.33087  0.06881  0.23980  1.0000
  C   C1317     1.0  0.31567  0.07583  0.23712  1.0000
  C   C1318     1.0  0.31319  0.08130  0.22169  1.0000
  C   C1319     1.0  0.32597  0.08012  0.20887  1.0000
  C   C1320     1.0  0.34118  0.07347  0.21156  1.0000
  C   C1321     1.0  0.34361  0.06766  0.22696  1.0000
  H   H2217     1.0  0.30580  0.07697  0.24699  1.0000
  H   H2218     1.0  0.30145  0.08651  0.21971  1.0000
  H   H2219     1.0  0.35113  0.07265  0.20169  1.0000
  H   H2220     1.0  0.35538  0.06251  0.22888  1.0000
  C   C1322     1.0  0.42903  0.03504  0.26643  1.0000
  C   C1323     1.0  0.42448  0.03344  0.28275  1.0000
  H   H2221     1.0  0.27411  0.06803  0.33976  1.0000
  C   C1324     1.0  0.45161  0.03146  0.28405  1.0000
  C   C1325     1.0  0.45622  0.03268  0.26779  1.0000
  C   C1326     1.0  0.44493  0.03467  0.25900  1.0000
  H   H2222     1.0  0.27078  0.08331  0.32324  1.0000
  C   C1327     1.0  0.26400  0.18933  0.07323  1.0000
  H   H2223     1.0  0.46843  0.03223  0.26192  1.0000
  H   H2224     1.0  0.44852  0.03588  0.24638  1.0000
  H   H2225     1.0  0.24270  0.17460  0.10071  1.0000
  C   C1328     1.0  0.32385  0.22168  0.12346  1.0000
  C   C1329     1.0  0.32869  0.05977  0.30361  1.0000
  C   C1330     1.0  0.34469  0.02964  0.35076  1.0000
  C   C1331     1.0  0.35574  0.03382  0.33698  1.0000
  C   C1332     1.0  0.36002  0.02531  0.32510  1.0000
  H   H2226     1.0  0.28439  0.03924  0.32088  1.0000
  H   H2227     1.0  0.39128  0.02186  0.44368  1.0000
  C   C1333     1.0  0.27337  0.06871  0.24717  1.0000
  H   H2228     1.0  0.36101  0.04363  0.33552  1.0000
  H   H2229     1.0  0.36877  0.02841  0.31463  1.0000
  H   H2230     1.0  0.34474  0.20557  0.07355  1.0000
  H   H2231     1.0  0.32088  0.02563  0.20231  1.0000
  C   C1334     1.0  0.33285  0.21336  0.07485  1.0000
  H   H2232     1.0  0.32341  0.10999  0.22003  1.0000
  C   C1335     1.0  0.34333  0.04222  0.45716  1.0000
  C   C1336     1.0  0.33030  0.03816  0.46863  1.0000
  C   C1337     1.0  0.31766  0.03557  0.46416  1.0000
  C   C1338     1.0  0.31798  0.03693  0.44824  1.0000
  C   C1339     1.0  0.33109  0.04077  0.43681  1.0000
  C   C1340     1.0  0.34367  0.04348  0.44127  1.0000
  H   H2233     1.0  0.31705  0.21315  0.13185  1.0000
  H   H2234     1.0  0.25535  0.11852  0.05456  1.0000
  H   H2235     1.0  0.33146  0.04188  0.42452  1.0000
  H   H2236     1.0  0.35371  0.04660  0.43233  1.0000
  H   H2237     1.0  0.33375  0.99720  0.45370  1.0000
  H   H2238     1.0  0.31705  0.15522  0.20136  1.0000
  C   C1341     1.0  0.25302  0.06063  0.37076  1.0000
  H   H2239     1.0  0.46081  0.08130  0.29658  1.0000
  C   C1342     1.0  0.26564  0.03807  0.15091  1.0000
  C   C1343     1.0  0.26596  0.09532  0.09590  1.0000
  H   H2240     1.0  0.32424  0.20709  0.08383  1.0000
  H   H2241     1.0  0.34663  0.03104  0.19389  1.0000
  H   H2242     1.0  0.30533  0.07257  0.35620  1.0000
  C   C1344     1.0  0.47324  0.98964  0.25945  1.0000
  C   C1345     1.0  0.29814  0.99089  0.45754  1.0000
  H   H2243     1.0  0.24992  0.08795  0.08615  1.0000
  H   H2244     1.0  0.33325  0.99307  0.24138  1.0000
  C   C1346     1.0  0.26677  0.08037  0.41950  1.0000
  H   H2245     1.0  0.28337  0.16601  0.18215  1.0000
  C   C1347     1.0  0.25239  0.11890  0.07907  1.0000
  H   H2246     1.0  0.29921  0.04705  0.21331  1.0000
  H   H2247     1.0  0.25099  0.10944  0.11856  1.0000
  S   S415      1.0  0.25739  0.22733  0.11090  1.0000
  C   C1348     1.0  0.32641  0.21914  0.10671  1.0000
  H   H2248     1.0  0.26285  0.07998  0.45765  1.0000
  H   H2249     1.0  0.46228  0.11578  0.26810  1.0000
  H   H2250     1.0  0.43205  0.03093  0.30407  1.0000
  C   C1349     1.0  0.35323  0.01264  0.32697  1.0000
  C   C1350     1.0  0.34206  0.00857  0.34069  1.0000
  H   H2251     1.0  0.44642  0.00250  0.28031  1.0000
  H   H2252     1.0  0.27156  0.16524  0.20142  1.0000
  H   H2253     1.0  0.35026  0.01045  0.46199  1.0000
  H   H2254     1.0  0.44466  0.09342  0.26450  1.0000
  H   H2255     1.0  0.25897  0.17372  0.12666  1.0000
  S   S416      1.0  0.46520  0.02976  0.29550  1.0000
  S   S417      1.0  0.31948  0.01578  0.40543  1.0000
  H   H2256     1.0  0.47977  0.09909  0.28306  1.0000
  H   H2257     1.0  0.32641  0.16219  0.16507  1.0000
  H   H2258     1.0  0.24700  0.03202  0.29008  1.0000
  H   H2259     1.0  0.24384  0.06331  0.19186  1.0000
  H   H2260     1.0  0.29262  0.99820  0.37422  1.0000
  H   H2261     1.0  0.37450  0.21872  0.10121  1.0000
  C   C1351     1.0  0.29325  0.06695  0.31778  1.0000
  S   S418      1.0  0.29852  0.02823  0.37774  1.0000
  N   N91       1.0  0.46628  0.07979  0.27192  1.0000
  H   H2262     1.0  0.25942  0.07292  0.09999  1.0000
  H   H2263     1.0  0.28444  0.06033  0.24916  1.0000
  S   S419      1.0  0.37699  0.99538  0.23914  1.0000
  H   H2264     1.0  0.29045  0.06950  0.42437  1.0000
  Fe  Fe209     1.0  0.36717  0.01587  0.28821  1.0000
  N   N92       1.0  0.25986  0.11285  0.09316  1.0000
  H   H2265     1.0  0.45177  0.10529  0.28618  1.0000
  C   C1352     1.0  0.25109  0.04493  0.35383  1.0000
  S   S420      1.0  0.29654  0.98577  0.40669  1.0000
  H   H2266     1.0  0.46166  0.09949  0.25271  1.0000
  C   C1353     1.0  0.25518  0.04789  0.45618  1.0000
  C   C1354     1.0  0.45297  0.10886  0.27330  1.0000
  H   H2267     1.0  0.24224  0.19018  0.98827  1.0000
  C   C1355     1.0  0.28225  0.11620  0.10370  1.0000
  H   H2268     1.0  0.30691  0.03252  0.34334  1.0000
  C   C1356     1.0  0.25475  0.05339  0.27643  1.0000
  C   C1357     1.0  0.33790  0.01698  0.35262  1.0000
  H   H2269     1.0  0.29301  0.14611  0.21289  1.0000
  C   C1358     1.0  0.26262  0.11440  0.06357  1.0000
  C   C1359     1.0  0.45618  0.09507  0.26520  1.0000
  Fe  Fe210     1.0  0.29849  0.01083  0.40069  1.0000
  C   C1360     1.0  0.36647  0.98461  0.47921  1.0000
  H   H2270     1.0  0.30427  0.12198  0.22452  1.0000
  H   H2271     1.0  0.28800  0.04463  0.34644  1.0000
  H   H2272     1.0  0.28671  0.99943  0.45950  1.0000
  H   H2273     1.0  0.44074  0.06346  0.28847  1.0000
  C   C1361     1.0  0.31095  0.06185  0.33615  1.0000
  H   H2274     1.0  0.33632  0.06244  0.30981  1.0000
  H   H2275     1.0  0.24814  0.04196  0.45236  1.0000
  C   C1362     1.0  0.33332  0.99360  0.22900  1.0000
  H   H2276     1.0  0.48679  0.08870  0.25730  1.0000
  C   C1363     1.0  0.29799  0.04102  0.33702  1.0000
  H   H2277     1.0  0.26860  0.06446  0.32360  1.0000
  C   C1364     1.0  0.26277  0.06540  0.13707  1.0000
  H   H2278     1.0  0.29088  0.07995  0.34454  1.0000
  H   H2279     1.0  0.28536  0.02352  0.33782  1.0000
  H   H2280     1.0  0.29297  0.06323  0.30715  1.0000
  H   H2281     1.0  0.43448  0.08364  0.29081  1.0000
  C   C1365     1.0  0.29112  0.98622  0.37798  1.0000
  H   H2282     1.0  0.29723  0.07825  0.31335  1.0000
  C   C1366     1.0  0.25036  0.09276  0.28761  1.0000
  H   H2283     1.0  0.25747  0.07504  0.12884  1.0000
  H   H2284     1.0  0.27362  0.06045  0.44684  1.0000
  C   C1367     1.0  0.24759  0.07696  0.28689  1.0000
  H   H2285     1.0  0.27102  0.20744  0.07927  1.0000
  C   C1368     1.0  0.25817  0.17584  0.11424  1.0000
  H   H2286     1.0  0.42157  0.99678  0.29740  1.0000
  H   H2287     1.0  0.24467  0.07050  0.29931  1.0000
  C   C1369     1.0  0.25360  0.18599  0.06629  1.0000
  C   C1370     1.0  0.29222  0.03161  0.32874  1.0000
  H   H2288     1.0  0.44288  0.98478  0.27903  1.0000
  C   C1371     1.0  0.24269  0.21390  0.05880  1.0000
  H   H2289     1.0  0.26645  0.03710  0.37023  1.0000
  N   N93       1.0  0.25569  0.07215  0.43299  1.0000
  C   C1372     1.0  0.35403  0.22000  0.09243  1.0000
  H   H2290     1.0  0.25750  0.09967  0.44628  1.0000
  H   H2291     1.0  0.31676  0.07149  0.32863  1.0000
  C   C1373     1.0  0.31871  0.04811  0.31466  1.0000
  H   H2292     1.0  0.46305  0.99670  0.30425  1.0000
  H   H2293     1.0  0.48270  0.99512  0.25090  1.0000
  Fe  Fe211     1.0  0.28342  0.22159  0.10900  1.0000
  H   H2294     1.0  0.33493  0.21976  0.12726  1.0000
  C   C1374     1.0  0.46629  0.06762  0.26341  1.0000
  C   C1375     1.0  0.45997  0.07380  0.28919  1.0000
  H   H2295     1.0  0.30758  0.03254  0.47309  1.0000
  C   C1376     1.0  0.47435  0.07017  0.24576  1.0000
  C   C1377     1.0  0.48740  0.08768  0.28113  1.0000
  H   H2296     1.0  0.26999  0.13358  0.08657  1.0000
  H   H2297     1.0  0.45410  0.06673  0.26409  1.0000
  H   H2298     1.0  0.34207  0.04497  0.20578  1.0000
  H   H2299     1.0  0.46731  0.06209  0.29344  1.0000
  H   H2300     1.0  0.26170  0.03596  0.29722  1.0000
  C   C1378     1.0  0.25911  0.05068  0.14004  1.0000
  H   H2301     1.0  0.27440  0.11442  0.11549  1.0000
  H   H2302     1.0  0.43943  0.06788  0.30673  1.0000
  H   H2303     1.0  0.25279  0.13745  0.11132  1.0000
  H   H2304     1.0  0.32359  0.11936  0.16842  1.0000
  N   N94       1.0  0.33582  0.02269  0.21836  1.0000
  C   C1379     1.0  0.34649  0.03225  0.20585  1.0000
  C   C1380     1.0  0.31990  0.02782  0.21411  1.0000
  C   C1381     1.0  0.34251  0.00568  0.21751  1.0000
  C   C1382     1.0  0.33549  0.02531  0.23422  1.0000
  C   C1383     1.0  0.36379  0.02855  0.20736  1.0000
  H   H2305     1.0  0.32927  0.21577  0.06348  1.0000
  H   H2306     1.0  0.26680  0.16608  0.10933  1.0000
  C   C1384     1.0  0.32112  0.02210  0.24769  1.0000
  H   H2307     1.0  0.24381  0.05777  0.27172  1.0000
  H   H2308     1.0  0.26674  0.10155  0.06462  1.0000
  H   H2309     1.0  0.31144  0.02082  0.22210  1.0000
  H   H2310     1.0  0.26079  0.09264  0.41492  1.0000
  H   H2311     1.0  0.34382  0.00411  0.20540  1.0000
  H   H2312     1.0  0.35452  0.00174  0.21992  1.0000
  H   H2313     1.0  0.34627  0.01810  0.23843  1.0000
  H   H2314     1.0  0.33595  0.03770  0.23314  1.0000
  H   H2315     1.0  0.37040  0.01699  0.20467  1.0000
  H   H2316     1.0  0.36982  0.03750  0.19862  1.0000
  H   H2317     1.0  0.36483  0.02911  0.21909  1.0000
  C   C1385     1.0  0.24749  0.11667  0.10744  1.0000
  H   H2318     1.0  0.46190  0.99701  0.25676  1.0000
  H   H2319     1.0  0.27635  0.09206  0.08651  1.0000
  C   C1386     1.0  0.24309  0.13403  0.10870  1.0000
  H   H2320     1.0  0.27274  0.12023  0.05893  1.0000
  H   H2321     1.0  0.31206  0.04912  0.22412  1.0000
  H   H2322     1.0  0.32533  0.01568  0.25863  1.0000
  H   H2323     1.0  0.31404  0.01490  0.24585  1.0000
  H   H2324     1.0  0.31338  0.03334  0.25030  1.0000
  H   H2325     1.0  0.27055  0.09092  0.10689  1.0000
  H   H2326     1.0  0.33284  0.13558  0.16515  1.0000
  H   H2327     1.0  0.33646  0.99906  0.34204  1.0000
  N   N95       1.0  0.30479  0.05471  0.32650  1.0000
  H   H2328     1.0  0.27222  0.08520  0.26073  1.0000
  Fe  Fe212     1.0  0.37427  0.01184  0.25475  1.0000
  H   H2329     1.0  0.37572  0.01896  0.43728  1.0000
  H   H2330     1.0  0.25192  0.10085  0.27589  1.0000
  C   C1387     1.0  0.44266  0.07221  0.29379  1.0000
  H   H2331     1.0  0.39172  0.99745  0.46393  1.0000
  S   S421      1.0  0.24911  0.07755  0.21648  1.0000
  H   H2332     1.0  0.26346  0.03840  0.46246  1.0000
  H   H2333     1.0  0.30906  0.17338  0.17560  1.0000
  H   H2334     1.0  0.32016  0.05292  0.34165  1.0000
  H   H2335     1.0  0.32157  0.13049  0.21816  1.0000
  H   H2336     1.0  0.26552  0.06275  0.24452  1.0000
  H   H2337     1.0  0.27210  0.04978  0.43410  1.0000
  H   H2338     1.0  0.31438  0.22210  0.10434  1.0000
  H   H2339     1.0  0.29203  0.06078  0.35790  1.0000
  H   H2340     1.0  0.47360  0.06033  0.24110  1.0000
  H   H2341     1.0  0.32801  0.17262  0.17837  1.0000
  N   N96       1.0  0.30872  0.14095  0.19110  1.0000
  C   C1388     1.0  0.31490  0.12429  0.19920  1.0000
  C   C1389     1.0  0.30712  0.14050  0.17511  1.0000
  C   C1390     1.0  0.29256  0.14656  0.20064  1.0000
  C   C1391     1.0  0.31988  0.15100  0.19025  1.0000
  C   C1392     1.0  0.31601  0.12181  0.21645  1.0000
  C   C1393     1.0  0.32205  0.13233  0.16477  1.0000
  C   C1394     1.0  0.28395  0.16347  0.19466  1.0000
  C   C1395     1.0  0.32068  0.16556  0.17653  1.0000
  H   H2342     1.0  0.30754  0.11638  0.19900  1.0000
  H   H2343     1.0  0.32699  0.11953  0.19287  1.0000
  H   H2344     1.0  0.30332  0.15245  0.16816  1.0000
  H   H2345     1.0  0.29761  0.13439  0.17630  1.0000
  H   H2346     1.0  0.28466  0.13867  0.20162  1.0000
  H   H2347     1.0  0.26035  0.09120  0.29312  1.0000
  H   H2348     1.0  0.27939  0.07216  0.28432  1.0000
  H   H2349     1.0  0.36012  0.20877  0.11540  1.0000
  H   H2350     1.0  0.30225  0.02412  0.32208  1.0000
  H   H2351     1.0  0.27095  0.05719  0.29780  1.0000
  C   C1396     1.0  0.27348  0.12054  0.09016  1.0000
  C   C1397     1.0  0.35574  0.00013  0.45649  1.0000
  H   H2352     1.0  0.29473  0.04232  0.28795  1.0000
  C   C1398     1.0  0.27466  0.06187  0.28493  1.0000
  H   H2353     1.0  0.38169  0.99193  0.42866  1.0000
  H   H2354     1.0  0.31709  0.05298  0.20285  1.0000
  C   C1399     1.0  0.36168  0.21935  0.10590  1.0000
  H   H2355     1.0  0.29777  0.05587  0.26927  1.0000
  C   C1400     1.0  0.28897  0.04984  0.27826  1.0000
  C   C1401     1.0  0.27565  0.04042  0.15903  1.0000
  H   H2356     1.0  0.25488  0.03409  0.34969  1.0000
  C   C1402     1.0  0.25385  0.08563  0.09728  1.0000
  C   C1403     1.0  0.47465  0.98887  0.27629  1.0000
  H   H2357     1.0  0.29161  0.10536  0.10295  1.0000
  C   C1404     1.0  0.25243  0.21720  0.06649  1.0000
  H   H2358     1.0  0.26303  0.04633  0.26815  1.0000
  C   C1405     1.0  0.28238  0.08125  0.42267  1.0000
  H   H2359     1.0  0.28593  0.04157  0.27323  1.0000
  H   H2360     1.0  0.24895  0.13194  0.07648  1.0000
  H   H2361     1.0  0.46841  0.08113  0.23875  1.0000
  H   H2362     1.0  0.28069  0.03073  0.16750  1.0000
  H   H2363     1.0  0.43416  0.99987  0.30777  1.0000
  H   H2364     1.0  0.33067  0.20628  0.10732  1.0000
  H   H2365     1.0  0.27645  0.07765  0.23633  1.0000
  H   H2366     1.0  0.36155  0.22486  0.08110  1.0000
  H   H2367     1.0  0.28261  0.11725  0.07984  1.0000
  H   H2368     1.0  0.24437  0.09172  0.46378  1.0000
  H   H2369     1.0  0.27032  0.07447  0.40937  1.0000
  H   H2370     1.0  0.28858  0.08870  0.41219  1.0000
  H   H2371     1.0  0.24343  0.08770  0.10696  1.0000
  C   C1406     1.0  0.38061  0.00324  0.45979  1.0000
  H   H2372     1.0  0.25524  0.18210  0.16323  1.0000
  C   C1407     1.0  0.43285  0.99165  0.30137  1.0000
  H   H2373     1.0  0.35743  0.22992  0.11094  1.0000
  C   C1408     1.0  0.25316  0.08891  0.45309  1.0000
  S   S422      1.0  0.26085  0.01961  0.15483  1.0000
  H   H2374     1.0  0.35560  0.20754  0.09191  1.0000
  H   H2375     1.0  0.33701  0.98913  0.47304  1.0000
  N   N97       1.0  0.33698  0.22829  0.09357  1.0000
  C   C1409     1.0  0.44646  0.99015  0.28680  1.0000
  C   C1410     1.0  0.33270  0.22917  0.07832  1.0000
  H   H2376     1.0  0.28070  0.08648  0.43282  1.0000
  H   H2377     1.0  0.25129  0.04910  0.13383  1.0000
  N   N98       1.0  0.37082  0.99151  0.46182  1.0000
  H   H2378     1.0  0.24472  0.10888  0.22144  1.0000
  H   H2379     1.0  0.25238  0.05758  0.41928  1.0000
  C   C1411     1.0  0.24527  0.08323  0.44325  1.0000
  H   H2380     1.0  0.24755  0.05496  0.46477  1.0000
  C   C1412     1.0  0.24526  0.06670  0.42607  1.0000
  H   H2381     1.0  0.24315  0.08613  0.40502  1.0000
  C   C1413     1.0  0.24330  0.19834  0.05870  1.0000
  H   H2382     1.0  0.29344  0.98528  0.43795  1.0000
  H   H2383     1.0  0.28807  0.98515  0.35547  1.0000
  H   H2384     1.0  0.24327  0.07067  0.16520  1.0000
  H   H2385     1.0  0.24249  0.20660  0.10286  1.0000
  H   H2386     1.0  0.24502  0.03586  0.19582  1.0000
  C   C1414     1.0  0.24153  0.17574  0.11292  1.0000
  H   H2387     1.0  0.24155  0.04691  0.30097  1.0000
  H   H2388     1.0  0.49123  0.06956  0.26901  1.0000
  C   C1415     1.0  0.24131  0.07273  0.36472  1.0000
  C   C1416     1.0  0.24204  0.20187  0.98019  1.0000
  H   H2389     1.0  0.29686  0.04219  0.58163  1.0000
  H   H2390     1.0  0.28895  0.16905  0.75686  1.0000
  H   H2391     1.0  0.30836  0.11831  0.75489  1.0000
  H   H2392     1.0  0.30165  0.00025  0.58779  1.0000
  H   H2393     1.0  0.27370  0.16218  0.85050  1.0000
  C   C1417     1.0  0.24343  0.22961  0.89323  1.0000
  H   H2394     1.0  0.26344  0.17683  0.93675  1.0000
  S   S423      1.0  0.45703  0.06602  0.51686  1.0000
  H   H2395     1.0  0.26363  0.15513  0.72576  1.0000
  H   H2396     1.0  0.32473  0.02909  0.58000  1.0000
  C   C1418     1.0  0.47808  0.09399  0.81008  1.0000
  Fe  Fe213     1.0  0.30497  0.04318  0.66216  1.0000
  S   S424      1.0  0.27920  0.04857  0.66262  1.0000
  S   S425      1.0  0.31251  0.03602  0.68540  1.0000
  Fe  Fe214     1.0  0.31401  0.04857  0.62629  1.0000
  S   S426      1.0  0.28883  0.05531  0.62376  1.0000
  S   S427      1.0  0.33666  0.04394  0.60827  1.0000
  Fe  Fe215     1.0  0.28427  0.06879  0.64274  1.0000
  S   S428      1.0  0.27039  0.09355  0.64418  1.0000
  Fe  Fe216     1.0  0.28587  0.03459  0.64392  1.0000
  S   S429      1.0  0.27195  0.01694  0.64532  1.0000
  S   S430      1.0  0.30990  0.06406  0.64318  1.0000
  S   S431      1.0  0.31116  0.02713  0.64549  1.0000
  Fe  Fe217     1.0  0.37428  0.04091  0.74313  1.0000
  S   S432      1.0  0.38511  0.05253  0.71896  1.0000
  S   S433      1.0  0.38174  0.01444  0.74782  1.0000
  Fe  Fe218     1.0  0.35914  0.07252  0.75259  1.0000
  S   S434      1.0  0.36942  0.08630  0.72901  1.0000
  S   S435      1.0  0.34200  0.08277  0.77271  1.0000
  Fe  Fe219     1.0  0.36197  0.06966  0.71952  1.0000
  S   S436      1.0  0.35090  0.07825  0.69835  1.0000
  Fe  Fe220     1.0  0.39168  0.06766  0.73087  1.0000
  S   S437      1.0  0.41738  0.06894  0.72140  1.0000
  S   S438      1.0  0.35043  0.05691  0.74291  1.0000
  S   S439      1.0  0.38204  0.05506  0.75521  1.0000
  C   C1419     1.0  0.33916  0.99551  0.51317  1.0000
  H   H2397     1.0  0.28625  0.07747  0.84224  1.0000
  H   H2398     1.0  0.29068  0.02458  0.59426  1.0000
  C   C1420     1.0  0.25874  0.18946  0.93231  1.0000
  H   H2399     1.0  0.30405  0.08184  0.69577  1.0000
  H   H2400     1.0  0.31113  0.16577  0.71755  1.0000
  S   S440      1.0  0.46126  0.08251  0.75749  1.0000
  C   C1421     1.0  0.45894  0.09181  0.56859  1.0000
  H   H2401     1.0  0.32508  0.99360  0.66829  1.0000
  C   C1422     1.0  0.24423  0.21383  0.89372  1.0000
  H   H2402     1.0  0.45675  0.08369  0.58026  1.0000
  H   H2403     1.0  0.35818  0.00215  0.55957  1.0000
  C   C1423     1.0  0.29553  0.98960  0.67369  1.0000
  Fe  Fe221     1.0  0.29454  0.16267  0.78713  1.0000
  S   S441      1.0  0.27680  0.14989  0.78696  1.0000
  S   S442      1.0  0.31770  0.15610  0.77023  1.0000
  Fe  Fe222     1.0  0.27148  0.18224  0.81016  1.0000
  H   H2404     1.0  0.26631  0.15271  0.87005  1.0000
  Fe  Fe223     1.0  0.27006  0.14852  0.81285  1.0000
  H   H2405     1.0  0.30996  0.09633  0.67166  1.0000
  H   H2406     1.0  0.24644  0.21285  0.95546  1.0000
  H   H2407     1.0  0.42003  0.12136  0.69321  1.0000
  S   S443      1.0  0.28926  0.15927  0.81355  1.0000
  S   S444      1.0  0.27834  0.18673  0.78362  1.0000
  H   H2408     1.0  0.45174  0.00520  0.75518  1.0000
  H   H2409     1.0  0.32007  0.01185  0.59346  1.0000
  C   C1424     1.0  0.47284  0.10287  0.53491  1.0000
  H   H2410     1.0  0.47008  0.08563  0.81420  1.0000
  H   H2411     1.0  0.47199  0.04601  0.56590  1.0000
  C   C1425     1.0  0.30026  0.03115  0.59015  1.0000
  N   N99       1.0  0.45480  0.08623  0.55634  1.0000
  S   S445      1.0  0.38170  0.01909  0.49364  1.0000
  C   C1426     1.0  0.44785  0.00107  0.74667  1.0000
  H   H2412     1.0  0.29279  0.01270  0.57235  1.0000
  H   H2413     1.0  0.34698  0.02094  0.55225  1.0000
  N   N100      1.0  0.31696  0.01421  0.56997  1.0000
  H   H2414     1.0  0.33297  0.99504  0.69510  1.0000
  H   H2415     1.0  0.39103  0.00264  0.68654  1.0000
  H   H2416     1.0  0.27716  0.18667  0.74789  1.0000
  Fe  Fe224     1.0  0.39068  0.03446  0.50320  1.0000
  H   H2417     1.0  0.34140  0.01727  0.69256  1.0000
  H   H2418     1.0  0.32385  0.99773  0.49782  1.0000
  H   H2419     1.0  0.47399  0.01230  0.72665  1.0000
  H   H2420     1.0  0.47641  0.10702  0.70036  1.0000
  H   H2421     1.0  0.47805  0.07137  0.55180  1.0000
  H   H2422     1.0  0.34275  0.02108  0.66591  1.0000
  C   C1427     1.0  0.27232  0.21024  0.83241  1.0000
  C   C1428     1.0  0.33910  0.05872  0.55518  1.0000
  C   C1429     1.0  0.45703  0.09755  0.54060  1.0000
  H   H2423     1.0  0.35864  0.99386  0.48543  1.0000
  H   H2424     1.0  0.39514  0.98520  0.51239  1.0000
  H   H2425     1.0  0.28304  0.00975  0.68405  1.0000
  H   H2426     1.0  0.25967  0.19503  0.96057  1.0000
  H   H2427     1.0  0.45054  0.02774  0.49105  1.0000
  H   H2428     1.0  0.31639  0.98771  0.61185  1.0000
  H   H2429     1.0  0.44647  0.13544  0.69207  1.0000
  H   H2430     1.0  0.26618  0.23228  0.85960  1.0000
  H   H2431     1.0  0.30068  0.08737  0.66208  1.0000
  C   C1430     1.0  0.29453  0.00119  0.68380  1.0000
  S   S446      1.0  0.41737  0.02987  0.49684  1.0000
  C   C1431     1.0  0.33581  0.10325  0.77172  1.0000
  C   C1432     1.0  0.32439  0.10859  0.78423  1.0000
  C   C1433     1.0  0.31869  0.12474  0.78379  1.0000
  C   C1434     1.0  0.32474  0.13574  0.77100  1.0000
  C   C1435     1.0  0.33641  0.13045  0.75857  1.0000
  C   C1436     1.0  0.34180  0.11425  0.75883  1.0000
  H   H2432     1.0  0.32003  0.10021  0.79441  1.0000
  H   H2433     1.0  0.30988  0.12867  0.79354  1.0000
  H   H2434     1.0  0.34126  0.13890  0.74872  1.0000
  H   H2435     1.0  0.35072  0.11030  0.74918  1.0000
  C   C1437     1.0  0.42911  0.07096  0.73302  1.0000
  C   C1438     1.0  0.42261  0.07767  0.74619  1.0000
  C   C1439     1.0  0.43256  0.08081  0.75395  1.0000
  C   C1440     1.0  0.44899  0.07704  0.74871  1.0000
  C   C1441     1.0  0.45540  0.06952  0.73610  1.0000
  C   C1442     1.0  0.44552  0.06677  0.72813  1.0000
  H   H2436     1.0  0.40996  0.08098  0.75004  1.0000
  H   H2437     1.0  0.42749  0.08649  0.76381  1.0000
  H   H2438     1.0  0.46798  0.06599  0.73233  1.0000
  H   H2439     1.0  0.45067  0.06162  0.71793  1.0000
  H   H2440     1.0  0.29057  0.15707  0.70917  1.0000
  C   C1443     1.0  0.28607  0.23086  0.84011  1.0000
  H   H2441     1.0  0.25216  0.12028  0.65697  1.0000
  H   H2442     1.0  0.35789  0.02406  0.71168  1.0000
  H   H2443     1.0  0.46144  0.12031  0.78525  1.0000
  C   C1444     1.0  0.32295  0.04797  0.68903  1.0000
  C   C1445     1.0  0.32612  0.04516  0.70399  1.0000
  C   C1446     1.0  0.33472  0.05434  0.70702  1.0000
  C   C1447     1.0  0.34014  0.06641  0.69510  1.0000
  C   C1448     1.0  0.33687  0.06926  0.68021  1.0000
  C   C1449     1.0  0.32840  0.06002  0.67716  1.0000
  H   H2444     1.0  0.32204  0.03577  0.71323  1.0000
  H   H2445     1.0  0.33717  0.05204  0.71855  1.0000
  H   H2446     1.0  0.34110  0.07853  0.67092  1.0000
  H   H2447     1.0  0.32634  0.06212  0.66554  1.0000
  H   H2448     1.0  0.45177  0.05443  0.57257  1.0000
  H   H2449     1.0  0.29783  0.14347  0.75653  1.0000
  C   C1450     1.0  0.24612  0.11073  0.66248  1.0000
  C   C1451     1.0  0.36956  0.00512  0.74310  1.0000
  C   C1452     1.0  0.35349  0.01169  0.74436  1.0000
  C   C1453     1.0  0.34369  0.00356  0.74170  1.0000
  C   C1454     1.0  0.24555  0.15231  0.76461  1.0000
  H   H2450     1.0  0.27367  0.06008  0.71091  1.0000
  H   H2451     1.0  0.34855  0.02291  0.74767  1.0000
  H   H2452     1.0  0.33123  0.00866  0.74276  1.0000
  C   C1455     1.0  0.24827  0.16685  0.85686  1.0000
  H   H2453     1.0  0.47437  0.07995  0.67782  1.0000
  C   C1456     1.0  0.29707  0.00073  0.62654  1.0000
  C   C1457     1.0  0.28151  0.00177  0.63510  1.0000
  N   N101      1.0  0.29408  0.15245  0.73283  1.0000
  C   C1458     1.0  0.43780  0.08494  0.56150  1.0000
  S   S447      1.0  0.37319  0.05632  0.49520  1.0000
  H   H2454     1.0  0.30341  0.00944  0.62596  1.0000
  C   C1459     1.0  0.46632  0.02137  0.71940  1.0000
  H   H2455     1.0  0.30068  0.10770  0.65590  1.0000
  H   H2456     1.0  0.44319  0.12641  0.67862  1.0000
  C   C1460     1.0  0.35109  0.04467  0.57744  1.0000
  C   C1461     1.0  0.33727  0.05005  0.58792  1.0000
  C   C1462     1.0  0.32433  0.05983  0.58202  1.0000
  C   C1463     1.0  0.32529  0.06422  0.56566  1.0000
  H   H2457     1.0  0.36116  0.03718  0.58193  1.0000
  H   H2458     1.0  0.31365  0.06409  0.59001  1.0000
  H   H2459     1.0  0.31533  0.07191  0.56111  1.0000
  H   H2460     1.0  0.32803  0.22775  0.89445  1.0000
  C   C1464     1.0  0.42972  0.05941  0.51561  1.0000
  H   H2461     1.0  0.42384  0.06835  0.52236  1.0000
  C   C1465     1.0  0.42070  0.05160  0.51124  1.0000
  C   C1466     1.0  0.45372  0.04427  0.50244  1.0000
  C   C1467     1.0  0.24692  0.20072  0.96275  1.0000
  C   C1468     1.0  0.35197  0.04891  0.56114  1.0000
  H   H2462     1.0  0.41195  0.11017  0.71179  1.0000
  H   H2463     1.0  0.24789  0.17657  0.86233  1.0000
  H   H2464     1.0  0.45816  0.11303  0.77031  1.0000
  H   H2465     1.0  0.24455  0.13686  0.85856  1.0000
  Fe  Fe225     1.0  0.36327  0.04046  0.48703  1.0000
  C   C1469     1.0  0.46557  0.07055  0.55459  1.0000
  H   H2466     1.0  0.29502  0.99520  0.69615  1.0000
  H   H2467     1.0  0.24854  0.17218  0.84419  1.0000
  H   H2468     1.0  0.24919  0.07267  0.66197  1.0000
  H   H2469     1.0  0.27125  0.13502  0.73501  1.0000
  H   H2470     1.0  0.42475  0.10005  0.69727  1.0000
  H   H2471     1.0  0.29627  0.98599  0.57094  1.0000
  H   H2472     1.0  0.36965  0.03824  0.70283  1.0000
  H   H2473     1.0  0.35778  0.03528  0.68332  1.0000
  H   H2474     1.0  0.37860  0.02959  0.67807  1.0000
  C   C1470     1.0  0.42817  0.04019  0.50233  1.0000
  H   H2475     1.0  0.46642  0.04141  0.49900  1.0000
  H   H2476     1.0  0.45020  0.08671  0.69809  1.0000
  H   H2477     1.0  0.46428  0.06681  0.54442  1.0000
  H   H2478     1.0  0.29227  0.20871  0.81294  1.0000
  Fe  Fe226     1.0  0.35754  0.04902  0.51896  1.0000
  H   H2479     1.0  0.32082  0.99193  0.65090  1.0000
  S   S448      1.0  0.26398  0.12721  0.83051  1.0000
  H   H2480     1.0  0.32685  0.01553  0.53660  1.0000
  H   H2481     1.0  0.35410  0.03618  0.66008  1.0000
  C   C1471     1.0  0.43904  0.98787  0.75577  1.0000
  H   H2482     1.0  0.25411  0.21416  0.85295  1.0000
  C   C1472     1.0  0.47340  0.08806  0.68543  1.0000
  H   H2483     1.0  0.45086  0.09983  0.67956  1.0000
  C   C1473     1.0  0.31064  0.15519  0.72736  1.0000
  C   C1474     1.0  0.28304  0.16796  0.73517  1.0000
  C   C1475     1.0  0.36797  0.02579  0.68627  1.0000
  H   H2484     1.0  0.29373  0.09830  0.70348  1.0000
  C   C1476     1.0  0.32358  0.98501  0.66244  1.0000
  H   H2485     1.0  0.36275  0.04486  0.55319  1.0000
  C   C1477     1.0  0.42272  0.11052  0.70222  1.0000
  S   S449      1.0  0.33996  0.06435  0.53475  1.0000
  H   H2486     1.0  0.32280  0.03526  0.55345  1.0000
  H   H2487     1.0  0.27171  0.08740  0.83112  1.0000
  C   C1478     1.0  0.24226  0.17475  0.96512  1.0000
  H   H2488     1.0  0.29494  0.06353  0.71756  1.0000
  C   C1479     1.0  0.31633  0.02122  0.58349  1.0000
  N   N102      1.0  0.45236  0.11001  0.69810  1.0000
  C   C1480     1.0  0.35114  0.00684  0.69407  1.0000
  H   H2489     1.0  0.28943  0.11647  0.75419  1.0000
  H   H2490     1.0  0.31365  0.03375  0.53137  1.0000
  H   H2491     1.0  0.28410  0.11314  0.68097  1.0000
  C   C1481     1.0  0.36790  0.01198  0.66683  1.0000
  H   H2492     1.0  0.46472  0.14011  0.66696  1.0000
  C   C1482     1.0  0.31524  0.02291  0.54071  1.0000
  H   H2493     1.0  0.37920  0.01800  0.70687  1.0000
  S   S450      1.0  0.34608  0.03534  0.50990  1.0000
  C   C1483     1.0  0.24241  0.14182  0.75761  1.0000
  C   C1484     1.0  0.35438  0.02394  0.65989  1.0000
  C   C1485     1.0  0.48946  0.06392  0.79714  1.0000
  H   H2494     1.0  0.25456  0.20714  0.88718  1.0000
  C   C1486     1.0  0.29977  0.09791  0.66643  1.0000
  C   C1487     1.0  0.34728  0.01104  0.56263  1.0000
  Fe  Fe227     1.0  0.36528  0.01519  0.51708  1.0000
  H   H2495     1.0  0.36560  0.99574  0.77916  1.0000
  H   H2496     1.0  0.25900  0.06710  0.69901  1.0000
  H   H2497     1.0  0.44745  0.10834  0.54048  1.0000
  C   C1488     1.0  0.29217  0.08703  0.70211  1.0000
  H   H2498     1.0  0.43708  0.10019  0.71942  1.0000
  C   C1489     1.0  0.46699  0.12829  0.67479  1.0000
  H   H2499     1.0  0.45914  0.99504  0.74008  1.0000
  C   C1490     1.0  0.24454  0.08389  0.66531  1.0000
  C   C1491     1.0  0.28389  0.10217  0.67788  1.0000
  C   C1492     1.0  0.25018  0.12039  0.82541  1.0000
  H   H2500     1.0  0.43518  0.07823  0.57387  1.0000
  H   H2501     1.0  0.43269  0.12098  0.71449  1.0000
  C   C1493     1.0  0.45595  0.09631  0.69022  1.0000
  H   H2502     1.0  0.27962  0.14199  0.75445  1.0000
  H   H2503     1.0  0.33432  0.99784  0.55684  1.0000
  H   H2504     1.0  0.45418  0.11125  0.58011  1.0000
  C   C1494     1.0  0.43646  0.11041  0.70928  1.0000
  H   H2505     1.0  0.27081  0.16641  0.74075  1.0000
  H   H2506     1.0  0.32995  0.03708  0.48091  1.0000
  H   H2507     1.0  0.30132  0.03466  0.60056  1.0000
  C   C1495     1.0  0.28442  0.08487  0.83061  1.0000
  S   S451      1.0  0.26233  0.19868  0.82736  1.0000
  H   H2508     1.0  0.42988  0.09675  0.56148  1.0000
  H   H2509     1.0  0.26146  0.12115  0.69685  1.0000
  H   H2510     1.0  0.26853  0.10984  0.71450  1.0000
  H   H2511     1.0  0.47594  0.11940  0.76698  1.0000
  H   H2512     1.0  0.43700  0.10879  0.57582  1.0000
  H   H2513     1.0  0.42502  0.99741  0.71362  1.0000
  C   C1496     1.0  0.31432  0.02756  0.55606  1.0000
  H   H2514     1.0  0.29357  0.06850  0.68431  1.0000
  H   H2515     1.0  0.24564  0.10424  0.84770  1.0000
  H   H2516     1.0  0.47384  0.11061  0.54198  1.0000
  C   C1497     1.0  0.48704  0.00143  0.50415  1.0000
  H   H2517     1.0  0.47793  0.08077  0.69593  1.0000
  H   H2518     1.0  0.34002  0.00762  0.50923  1.0000
  H   H2519     1.0  0.28779  0.09604  0.82967  1.0000
  H   H2520     1.0  0.45554  0.11122  0.81222  1.0000
  H   H2521     1.0  0.28230  0.17635  0.72366  1.0000
  H   H2522     1.0  0.29591  0.07896  0.72596  1.0000
  H   H2523     1.0  0.26626  0.19656  0.93372  1.0000
  H   H2524     1.0  0.33517  0.14556  0.71825  1.0000
  H   H2525     1.0  0.36849  0.00072  0.66392  1.0000
  H   H2526     1.0  0.27129  0.14037  0.71453  1.0000
  H   H2527     1.0  0.48262  0.06208  0.80944  1.0000
  H   H2528     1.0  0.25169  0.13553  0.80237  1.0000
  Fe  Fe228     1.0  0.48365  0.05978  0.51201  1.0000
  C   C1498     1.0  0.46432  0.10771  0.70774  1.0000
  C   C1499     1.0  0.46169  0.12035  0.71717  1.0000
  H   H2529     1.0  0.38835  0.98555  0.73752  1.0000
  H   H2530     1.0  0.46469  0.09627  0.71636  1.0000
  H   H2531     1.0  0.47196  0.11790  0.72259  1.0000
  H   H2532     1.0  0.46096  0.13231  0.70962  1.0000
  N   N103      1.0  0.48660  0.09394  0.79326  1.0000
  H   H2533     1.0  0.45614  0.09230  0.53120  1.0000
  H   H2534     1.0  0.43297  0.08459  0.53900  1.0000
  N   N104      1.0  0.28790  0.07614  0.80444  1.0000
  C   C1500     1.0  0.30100  0.07293  0.79040  1.0000
  C   C1501     1.0  0.27709  0.09149  0.79897  1.0000
  C   C1502     1.0  0.27909  0.06305  0.80935  1.0000
  C   C1503     1.0  0.29517  0.07651  0.81743  1.0000
  C   C1504     1.0  0.31265  0.05687  0.79271  1.0000
  C   C1505     1.0  0.28456  0.10599  0.79297  1.0000
  C   C1506     1.0  0.26405  0.06455  0.82245  1.0000
  H   H2535     1.0  0.48771  0.00655  0.56150  1.0000
  H   H2536     1.0  0.29613  0.07393  0.78004  1.0000
  H   H2537     1.0  0.30844  0.08178  0.78665  1.0000
  H   H2538     1.0  0.26667  0.09446  0.80827  1.0000
  H   H2539     1.0  0.27207  0.09061  0.78939  1.0000
  H   H2540     1.0  0.27562  0.06162  0.79901  1.0000
  H   H2541     1.0  0.28674  0.05164  0.81371  1.0000
  H   H2542     1.0  0.30034  0.06437  0.82320  1.0000
  H   H2543     1.0  0.30526  0.08246  0.81241  1.0000
  H   H2544     1.0  0.30713  0.04703  0.79374  1.0000
  H   H2545     1.0  0.32248  0.05673  0.78214  1.0000
  H   H2546     1.0  0.31804  0.05479  0.80290  1.0000
  H   H2547     1.0  0.29378  0.10531  0.78208  1.0000
  H   H2548     1.0  0.27534  0.11652  0.78989  1.0000
  H   H2549     1.0  0.28935  0.10804  0.80206  1.0000
  H   H2550     1.0  0.26665  0.06395  0.83387  1.0000
  H   H2551     1.0  0.25867  0.05437  0.82431  1.0000
  H   H2552     1.0  0.25490  0.07512  0.81933  1.0000
  H   H2553     1.0  0.41946  0.07730  0.55613  1.0000
  Fe  Fe229     1.0  0.26024  0.17337  0.78508  1.0000
  H   H2554     1.0  0.47243  0.12010  0.80673  1.0000
  H   H2555     1.0  0.48115  0.09104  0.77254  1.0000
  H   H2556     1.0  0.46549  0.08997  0.78933  1.0000
  H   H2557     1.0  0.47202  0.03160  0.71474  1.0000
  H   H2558     1.0  0.30569  0.01699  0.54185  1.0000
  C   C1507     1.0  0.30414  0.00496  0.57485  1.0000
  H   H2559     1.0  0.26140  0.99112  0.64240  1.0000
  C   C1508     1.0  0.44623  0.05580  0.51121  1.0000
  H   H2560     1.0  0.43848  0.06526  0.55104  1.0000
  H   H2561     1.0  0.31437  0.15772  0.73698  1.0000
  H   H2562     1.0  0.47375  0.10973  0.52259  1.0000
  C   C1509     1.0  0.30729  0.99037  0.56784  1.0000
  H   H2563     1.0  0.46605  0.01709  0.70916  1.0000
  S   S452      1.0  0.36130  0.99127  0.53043  1.0000
  H   H2564     1.0  0.46704  0.05876  0.57915  1.0000
  C   C1510     1.0  0.26060  0.11079  0.70674  1.0000
  C   C1511     1.0  0.33296  0.00345  0.56670  1.0000
  C   C1512     1.0  0.29225  0.14077  0.74837  1.0000
  H   H2565     1.0  0.45121  0.11992  0.72702  1.0000
  H   H2566     1.0  0.24296  0.16309  0.94632  1.0000
  H   H2567     1.0  0.41277  0.01204  0.72402  1.0000
  H   H2568     1.0  0.44758  0.98879  0.48735  1.0000
  H   H2569     1.0  0.26634  0.14514  0.85331  1.0000
  C   C1513     1.0  0.26441  0.15579  0.85790  1.0000
  H   H2570     1.0  0.48634  0.08928  0.81823  1.0000
  H   H2571     1.0  0.29767  0.18168  0.73931  1.0000
  C   C1514     1.0  0.44469  0.03656  0.49794  1.0000
  C   C1515     1.0  0.28965  0.14776  0.72017  1.0000
  S   S453      1.0  0.37588  0.02838  0.52749  1.0000
  C   C1516     1.0  0.26509  0.21691  0.84563  1.0000
  C   C1517     1.0  0.42357  0.00254  0.72387  1.0000
  H   H2572     1.0  0.47179  0.11977  0.66705  1.0000
  H   H2573     1.0  0.37916  0.01539  0.65989  1.0000
  H   H2574     1.0  0.29786  0.13720  0.71659  1.0000
  C   C1518     1.0  0.32379  0.14177  0.72161  1.0000
  C   C1519     1.0  0.28661  0.21373  0.82317  1.0000
  H   H2575     1.0  0.27740  0.07723  0.72492  1.0000
  C   C1520     1.0  0.34988  0.98880  0.73787  1.0000
  H   H2576     1.0  0.32234  0.13910  0.71095  1.0000
  H   H2577     1.0  0.45145  0.11759  0.56039  1.0000
  N   N105      1.0  0.36668  0.01027  0.68416  1.0000
  C   C1521     1.0  0.36875  0.02625  0.70294  1.0000
  C   C1522     1.0  0.47515  0.09629  0.78299  1.0000
  H   H2578     1.0  0.32523  0.13104  0.73099  1.0000
  C   C1523     1.0  0.45144  0.12536  0.68614  1.0000
  H   H2579     1.0  0.45337  0.98855  0.51760  1.0000
  C   C1524     1.0  0.28981  0.07596  0.71846  1.0000
  H   H2580     1.0  0.40798  0.05447  0.51467  1.0000
  C   C1525     1.0  0.29885  0.12313  0.74819  1.0000
  H   H2581     1.0  0.35107  0.00456  0.70676  1.0000
  C   C1526     1.0  0.28713  0.17667  0.74541  1.0000
  N   N106      1.0  0.43968  0.01452  0.73564  1.0000
  C   C1527     1.0  0.44970  0.02665  0.72927  1.0000
  C   C1528     1.0  0.42375  0.02252  0.74379  1.0000
  C   C1529     1.0  0.43822  0.00907  0.72184  1.0000
  C   C1530     1.0  0.34604  0.99279  0.69205  1.0000
  C   C1531     1.0  0.29347  0.22396  0.82705  1.0000
  C   C1532     1.0  0.42356  0.02876  0.75807  1.0000
  H   H2582     1.0  0.41524  0.99806  0.50700  1.0000
  H   H2583     1.0  0.44356  0.03724  0.72181  1.0000
  H   H2584     1.0  0.45162  0.03076  0.73895  1.0000
  H   H2585     1.0  0.41525  0.01473  0.74806  1.0000
  H   H2586     1.0  0.41833  0.03262  0.73528  1.0000
  H   H2587     1.0  0.43792  0.01891  0.71128  1.0000
  H   H2588     1.0  0.30369  0.00823  0.67888  1.0000
  H   H2589     1.0  0.25342  0.14803  0.77260  1.0000
  C   C1533     1.0  0.37586  0.99054  0.73883  1.0000
  S   S454      1.0  0.25193  0.17090  0.81109  1.0000
  H   H2590     1.0  0.25524  0.17077  0.96386  1.0000
  C   C1534     1.0  0.27299  0.14444  0.72431  1.0000
  H   H2591     1.0  0.42919  0.01957  0.76696  1.0000
  H   H2592     1.0  0.42901  0.03911  0.75448  1.0000
  H   H2593     1.0  0.41114  0.03282  0.76397  1.0000
  H   H2594     1.0  0.48960  0.11818  0.78537  1.0000
  H   H2595     1.0  0.47545  0.00794  0.50244  1.0000
  H   H2596     1.0  0.30374  0.12028  0.73650  1.0000
  N   N107      1.0  0.28014  0.08968  0.69246  1.0000
  C   C1535     1.0  0.26354  0.09555  0.70096  1.0000
  C   C1536     1.0  0.28113  0.07488  0.68728  1.0000
  C   C1537     1.0  0.25249  0.09612  0.65824  1.0000
  H   H2597     1.0  0.27460  0.10547  0.67098  1.0000
  H   H2598     1.0  0.25947  0.08672  0.71142  1.0000
  H   H2599     1.0  0.29400  0.99662  0.66185  1.0000
  H   H2600     1.0  0.27677  0.07780  0.67623  1.0000
  H   H2601     1.0  0.25973  0.19116  0.91948  1.0000
  C   C1538     1.0  0.27189  0.22719  0.84944  1.0000
  H   H2602     1.0  0.30250  0.03534  0.55870  1.0000
  H   H2603     1.0  0.27565  0.05168  0.69478  1.0000
  H   H2604     1.0  0.44283  0.01286  0.52671  1.0000
  H   H2605     1.0  0.34851  0.01486  0.57276  1.0000
  C   C1539     1.0  0.32998  0.98988  0.50668  1.0000
  C   C1540     1.0  0.27343  0.99038  0.63579  1.0000
  C   C1541     1.0  0.46732  0.11332  0.77619  1.0000
  C   C1542     1.0  0.24683  0.12601  0.81043  1.0000
  C   C1543     1.0  0.38022  0.99782  0.68964  1.0000
  H   H2606     1.0  0.47591  0.12831  0.68106  1.0000
  C   C1544     1.0  0.46374  0.05684  0.56903  1.0000
  C   C1545     1.0  0.43209  0.07756  0.55123  1.0000
  H   H2607     1.0  0.35619  0.02359  0.64733  1.0000
  C   C1546     1.0  0.27179  0.06290  0.69884  1.0000
  H   H2608     1.0  0.30448  0.22667  0.81980  1.0000
  Fe  Fe230     1.0  0.48682  0.08090  0.74482  1.0000
  C   C1547     1.0  0.24326  0.10848  0.83601  1.0000
  H   H2609     1.0  0.25517  0.09753  0.69324  1.0000
  H   H2610     1.0  0.42293  0.01173  0.52944  1.0000
  H   H2611     1.0  0.46703  0.10981  0.82613  1.0000
  H   H2612     1.0  0.47178  0.09167  0.56572  1.0000
  C   C1548     1.0  0.46767  0.10971  0.81373  1.0000
  H   H2613     1.0  0.44038  0.00189  0.50603  1.0000
  C   C1549     1.0  0.44978  0.10831  0.57121  1.0000
  H   H2614     1.0  0.40891  0.99622  0.52726  1.0000
  C   C1550     1.0  0.34793  0.98521  0.52386  1.0000
  C   C1551     1.0  0.43495  0.00450  0.52980  1.0000
  H   H2615     1.0  0.37758  0.99403  0.70271  1.0000
  H   H2616     1.0  0.24835  0.11313  0.71381  1.0000
  H   H2617     1.0  0.48309  0.09286  0.53493  1.0000
  H   H2618     1.0  0.44871  0.99986  0.71834  1.0000
  H   H2619     1.0  0.31124  0.99269  0.55489  1.0000
  H   H2620     1.0  0.24805  0.12950  0.76016  1.0000
  H   H2621     1.0  0.33436  0.99358  0.57709  1.0000
  S   S455      1.0  0.24314  0.18194  0.76886  1.0000
  H   H2622     1.0  0.38490  0.98612  0.48988  1.0000
  H   H2623     1.0  0.48184  0.01858  0.75903  1.0000
  H   H2624     1.0  0.24146  0.23097  0.82732  1.0000
  H   H2625     1.0  0.42626  0.99210  0.75982  1.0000
  C   C1552     1.0  0.30438  0.98849  0.61849  1.0000
  S   S456      1.0  0.48647  0.98651  0.75661  1.0000
  H   H2626     1.0  0.42186  0.99310  0.73449  1.0000
  H   H2627     1.0  0.39177  0.98509  0.67059  1.0000
  C   C1553     1.0  0.44067  0.99385  0.51772  1.0000
  H   H2628     1.0  0.48124  0.09620  0.67879  1.0000
  H   H2629     1.0  0.25884  0.22949  0.80302  1.0000
  H   H2630     1.0  0.48188  0.06498  0.78897  1.0000
  H   H2631     1.0  0.43548  0.99784  0.54196  1.0000
  H   H2632     1.0  0.25310  0.13411  0.88205  1.0000
  H   H2633     1.0  0.48077  0.99164  0.55732  1.0000
  H   H2634     1.0  0.34942  0.99104  0.67990  1.0000
  C   C1554     1.0  0.41521  0.98913  0.51823  1.0000
  C   C1555     1.0  0.24617  0.23352  0.80261  1.0000
  H   H2635     1.0  0.28480  0.98477  0.67870  1.0000
  H   H2636     1.0  0.24195  0.22341  0.80184  1.0000
  H   H2637     1.0  0.35031  0.23371  0.87923  1.0000
  C   C1556     1.0  0.24134  0.19496  0.94016  1.0000
  Fe  Fe231     1.0  0.45417  0.44285  0.04709  1.0000
  S   S457      1.0  0.47684  0.42485  0.04821  1.0000
  S   S458      1.0  0.45461  0.46859  0.03640  1.0000
  Fe  Fe232     1.0  0.43421  0.41770  0.05921  1.0000
  S   S459      1.0  0.45515  0.39773  0.06171  1.0000
  S   S460      1.0  0.40873  0.41581  0.06422  1.0000
  Fe  Fe233     1.0  0.46365  0.41339  0.07142  1.0000
  H   H2638     1.0  0.45541  0.45739  0.99028  1.0000
  Fe  Fe234     1.0  0.46657  0.41081  0.03835  1.0000
  S   S461      1.0  0.48024  0.39909  0.01836  1.0000
  S   S462      1.0  0.44157  0.43244  0.07114  1.0000
  S   S463      1.0  0.44508  0.42973  0.03506  1.0000
  H   H2639     1.0  0.35170  0.38923  0.99708  1.0000
  C   C1557     1.0  0.45956  0.46793  0.99000  1.0000
  H   H2640     1.0  0.32069  0.23654  0.07798  1.0000
  H   H2641     1.0  0.40854  0.44262  0.98258  1.0000
  C   C1558     1.0  0.26508  0.37852  0.98509  1.0000
  H   H2642     1.0  0.29113  0.43116  0.05302  1.0000
  Fe  Fe235     1.0  0.26298  0.23822  0.08519  1.0000
  Fe  Fe236     1.0  0.36573  0.35585  0.05320  1.0000
  S   S464      1.0  0.36324  0.33204  0.05246  1.0000
  S   S465      1.0  0.38985  0.35652  0.05570  1.0000
  Fe  Fe237     1.0  0.33377  0.37167  0.04489  1.0000
  S   S466      1.0  0.32914  0.34937  0.04294  1.0000
  S   S467      1.0  0.31568  0.39430  0.04132  1.0000
  Fe  Fe238     1.0  0.33812  0.33889  0.06507  1.0000
  S   S468      1.0  0.32399  0.32396  0.08532  1.0000
  Fe  Fe239     1.0  0.35443  0.34450  0.03048  1.0000
  H   H2643     1.0  0.25417  0.37455  0.99221  1.0000
  S   S469      1.0  0.34127  0.36165  0.06796  1.0000
  S   S470      1.0  0.35837  0.36788  0.03035  1.0000
  H   H2644     1.0  0.44112  0.42771  0.00391  1.0000
  S   S471      1.0  0.30506  0.26775  0.07125  1.0000
  C   C1559     1.0  0.31894  0.30820  0.08145  1.0000
  C   C1560     1.0  0.32472  0.30419  0.06677  1.0000
  C   C1561     1.0  0.32029  0.29178  0.06383  1.0000
  C   C1562     1.0  0.30997  0.28339  0.07548  1.0000
  C   C1563     1.0  0.30418  0.28738  0.09018  1.0000
  C   C1564     1.0  0.30872  0.29973  0.09316  1.0000
  H   H2645     1.0  0.33262  0.31063  0.05768  1.0000
  H   H2646     1.0  0.32485  0.28870  0.05245  1.0000
  H   H2647     1.0  0.29628  0.28092  0.09924  1.0000
  H   H2648     1.0  0.30425  0.30278  0.10455  1.0000
  H   H2649     1.0  0.24765  0.43450  0.02730  1.0000
  C   C1565     1.0  0.48660  0.35473  0.11684  1.0000
  C   C1566     1.0  0.40140  0.31569  0.02710  1.0000
  H   H2650     1.0  0.28301  0.40849  0.04917  1.0000
  H   H2651     1.0  0.37489  0.46092  0.99396  1.0000
  C   C1567     1.0  0.44355  0.47803  0.06473  1.0000
  C   C1568     1.0  0.39838  0.35120  0.01334  1.0000
  H   H2652     1.0  0.24811  0.45116  0.07202  1.0000
  C   C1569     1.0  0.29195  0.32586  0.05069  1.0000
  C   C1570     1.0  0.25542  0.44037  0.06803  1.0000
  C   C1571     1.0  0.43043  0.43113  0.99895  1.0000
  C   C1572     1.0  0.44516  0.48100  0.99442  1.0000
  C   C1573     1.0  0.32492  0.33524  0.99607  1.0000
  H   H2653     1.0  0.26734  0.43411  0.01520  1.0000
  C   C1574     1.0  0.40366  0.39917  0.06199  1.0000
  C   C1575     1.0  0.38770  0.39912  0.06396  1.0000
  C   C1576     1.0  0.38328  0.38629  0.06177  1.0000
  C   C1577     1.0  0.39479  0.37324  0.05791  1.0000
  C   C1578     1.0  0.41073  0.37325  0.05604  1.0000
  C   C1579     1.0  0.41516  0.38621  0.05792  1.0000
  H   H2654     1.0  0.37873  0.40907  0.06721  1.0000
  H   H2655     1.0  0.37097  0.38634  0.06340  1.0000
  H   H2656     1.0  0.41971  0.36315  0.05321  1.0000
  H   H2657     1.0  0.42746  0.38608  0.05640  1.0000
  H   H2658     1.0  0.38563  0.42415  0.00499  1.0000
  H   H2659     1.0  0.26976  0.33141  0.99445  1.0000
  C   C1580     1.0  0.45204  0.39229  0.02027  1.0000
  C   C1581     1.0  0.46661  0.39464  0.01070  1.0000
  H   H2660     1.0  0.28599  0.35078  0.98802  1.0000
  H   H2661     1.0  0.47282  0.43017  0.11076  1.0000
  H   H2662     1.0  0.42959  0.42080  0.99530  1.0000
  H   H2663     1.0  0.44931  0.39276  0.03254  1.0000
  H   H2664     1.0  0.24394  0.46330  0.02591  1.0000
  H   H2665     1.0  0.25049  0.44575  0.00771  1.0000
  H   H2666     1.0  0.24242  0.44354  0.05073  1.0000
  C   C1582     1.0  0.35152  0.33356  0.99824  1.0000
  N   N108      1.0  0.40007  0.43818  0.00779  1.0000
  H   H2667     1.0  0.46031  0.45904  0.08638  1.0000
  S   S472      1.0  0.28415  0.24431  0.11420  1.0000
  N   N109      1.0  0.26316  0.45282  0.03808  1.0000
  Fe  Fe240     1.0  0.25832  0.25079  0.11385  1.0000
  C   C1583     1.0  0.26280  0.35033  0.06015  1.0000
  H   H2668     1.0  0.43934  0.46725  0.06938  1.0000
  H   H2669     1.0  0.40457  0.30792  0.01863  1.0000
  C   C1584     1.0  0.34392  0.25566  0.08298  1.0000
  Fe  Fe241     1.0  0.28761  0.25377  0.08802  1.0000
  H   H2670     1.0  0.34107  0.25810  0.07128  1.0000
  H   H2671     1.0  0.41685  0.44819  0.01264  1.0000
  H   H2672     1.0  0.26388  0.46668  0.05404  1.0000
  H   H2673     1.0  0.36379  0.37130  0.99297  1.0000
  H   H2674     1.0  0.47889  0.36584  0.11187  1.0000
  N   N110      1.0  0.41357  0.33929  0.01001  1.0000
  H   H2675     1.0  0.38861  0.34781  0.01081  1.0000
  N   N111      1.0  0.27639  0.34591  0.06824  1.0000
  H   H2676     1.0  0.28272  0.32804  0.04401  1.0000
  H   H2677     1.0  0.38610  0.45909  0.01609  1.0000
  C   C1585     1.0  0.28056  0.44616  0.03331  1.0000
  S   S473      1.0  0.47321  0.40521  0.09350  1.0000
  H   H2678     1.0  0.45338  0.43659  0.10735  1.0000
  H   H2679     1.0  0.43633  0.48150  0.98770  1.0000
  H   H2680     1.0  0.39494  0.35131  0.02606  1.0000
  H   H2681     1.0  0.26005  0.42906  0.04879  1.0000
  C   C1586     1.0  0.29139  0.34003  0.05718  1.0000
  H   H2682     1.0  0.26679  0.31803  0.07297  1.0000
  C   C1587     1.0  0.44083  0.38951  0.01393  1.0000
  C   C1588     1.0  0.27274  0.38812  0.02854  1.0000
  C   C1589     1.0  0.47008  0.39387  0.99487  1.0000
  C   C1590     1.0  0.33391  0.24491  0.09561  1.0000
  H   H2683     1.0  0.25609  0.34419  0.98318  1.0000
  H   H2684     1.0  0.34111  0.26722  0.08626  1.0000
  H   H2685     1.0  0.26069  0.34013  0.05725  1.0000
  H   H2686     1.0  0.30287  0.44414  0.03919  1.0000
  S   S474      1.0  0.36480  0.33536  0.00826  1.0000
  H   H2687     1.0  0.48124  0.39583  0.98737  1.0000
  C   C1591     1.0  0.45123  0.48160  0.04895  1.0000
  C   C1592     1.0  0.30096  0.38131  0.02691  1.0000
  H   H2688     1.0  0.40080  0.30795  0.03903  1.0000
  H   H2689     1.0  0.31246  0.33671  0.00122  1.0000
  C   C1593     1.0  0.38422  0.45383  0.98631  1.0000
  H   H2690     1.0  0.32903  0.38441  0.99012  1.0000
  H   H2691     1.0  0.40400  0.45954  0.99065  1.0000
  H   H2692     1.0  0.40619  0.37020  0.99302  1.0000
  C   C1594     1.0  0.35446  0.38128  0.98883  1.0000
  H   H2693     1.0  0.42953  0.38793  0.02134  1.0000
  C   C1595     1.0  0.29928  0.39188  0.03625  1.0000
  C   C1596     1.0  0.27805  0.36079  0.07150  1.0000
  H   H2694     1.0  0.38620  0.37434  0.00308  1.0000
  C   C1597     1.0  0.46995  0.44903  0.08962  1.0000
  H   H2695     1.0  0.28610  0.45346  0.02219  1.0000
  H   H2696     1.0  0.30354  0.35789  0.06935  1.0000
  H   H2697     1.0  0.31248  0.37470  0.02251  1.0000
  H   H2698     1.0  0.28910  0.37117  0.01588  1.0000
  C   C1598     1.0  0.48973  0.45560  0.05660  1.0000
  H   H2699     1.0  0.46709  0.46428  0.99878  1.0000
  H   H2700     1.0  0.24392  0.35199  0.08164  1.0000
  H   H2701     1.0  0.38859  0.42870  0.04166  1.0000
  C   C1599     1.0  0.26598  0.32073  0.08435  1.0000
  H   H2702     1.0  0.41198  0.32952  0.03503  1.0000
  H   H2703     1.0  0.28260  0.43464  0.03019  1.0000
  H   H2704     1.0  0.29126  0.37054  0.08180  1.0000
  H   H2705     1.0  0.48617  0.34583  0.11083  1.0000
  H   H2706     1.0  0.42879  0.35584  0.99769  1.0000
  C   C1600     1.0  0.28772  0.37944  0.02304  1.0000
  C   C1601     1.0  0.26453  0.34398  0.99011  1.0000
  H   H2707     1.0  0.41717  0.42862  0.02281  1.0000
  H   H2708     1.0  0.28539  0.32845  0.08724  1.0000
  H   H2709     1.0  0.27869  0.37019  0.06058  1.0000
  C   C1602     1.0  0.25554  0.44165  0.01839  1.0000
  H   H2710     1.0  0.38951  0.32314  0.02676  1.0000
  C   C1603     1.0  0.41385  0.32550  0.02394  1.0000
  C   C1604     1.0  0.25619  0.45615  0.02382  1.0000
  C   C1605     1.0  0.38697  0.44614  0.01935  1.0000
  H   H2711     1.0  0.25012  0.43048  0.07583  1.0000
  H   H2712     1.0  0.29416  0.34965  0.04682  1.0000
  H   H2713     1.0  0.25344  0.32320  0.09059  1.0000
  C   C1606     1.0  0.39789  0.40948  0.02237  1.0000
  H   H2714     1.0  0.40185  0.39791  0.01902  1.0000
  H   H2715     1.0  0.38605  0.40997  0.03029  1.0000
  C   C1607     1.0  0.28432  0.40063  0.04164  1.0000
  H   H2716     1.0  0.37763  0.44772  0.04384  1.0000
  C   C1608     1.0  0.29064  0.44317  0.04549  1.0000
  C   C1609     1.0  0.41460  0.33319  0.99577  1.0000
  C   C1610     1.0  0.42799  0.34564  0.00771  1.0000
  H   H2717     1.0  0.47104  0.44078  0.08206  1.0000
  H   H2718     1.0  0.29322  0.34979  0.08885  1.0000
  H   H2719     1.0  0.27963  0.47809  0.02727  1.0000
  H   H2720     1.0  0.37538  0.44435  0.01902  1.0000
  S   S475      1.0  0.26190  0.26215  0.08822  1.0000
  H   H2721     1.0  0.27164  0.30968  0.09159  1.0000
  H   H2722     1.0  0.33094  0.33704  0.01681  1.0000
  C   C1611     1.0  0.48782  0.46409  0.06983  1.0000
  H   H2723     1.0  0.48997  0.40277  0.11648  1.0000
  H   H2724     1.0  0.28683  0.45188  0.05297  1.0000
  H   H2725     1.0  0.24680  0.47259  0.04649  1.0000
  H   H2726     1.0  0.26560  0.35841  0.04853  1.0000
  C   C1612     1.0  0.44403  0.38953  0.99791  1.0000
  H   H2727     1.0  0.39852  0.44443  0.03851  1.0000
  C   C1613     1.0  0.27105  0.39876  0.03779  1.0000
  H   H2728     1.0  0.30152  0.33638  0.06303  1.0000
  C   C1614     1.0  0.45878  0.39136  0.98848  1.0000
  C   C1615     1.0  0.25512  0.44112  0.05090  1.0000
  C   C1616     1.0  0.38823  0.44129  0.03672  1.0000
  C   C1617     1.0  0.48449  0.46417  0.09757  1.0000
  H   H2729     1.0  0.40431  0.32801  0.99736  1.0000
  C   C1618     1.0  0.39827  0.36847  0.00474  1.0000
  C   C1619     1.0  0.29238  0.35941  0.07827  1.0000
  H   H2730     1.0  0.26649  0.34011  0.09318  1.0000
  C   C1620     1.0  0.33538  0.33544  0.00490  1.0000
  H   H2731     1.0  0.42559  0.31725  0.02272  1.0000
  H   H2732     1.0  0.40070  0.37493  0.01225  1.0000
  C   C1621     1.0  0.27396  0.33406  0.08363  1.0000
  H   H2733     1.0  0.29163  0.31508  0.06011  1.0000
  S   S476      1.0  0.24968  0.23648  0.06852  1.0000
  C   C1622     1.0  0.33951  0.37489  0.99191  1.0000
  H   H2734     1.0  0.26284  0.46335  0.01345  1.0000
  H   H2735     1.0  0.32128  0.25068  0.09594  1.0000
  C   C1623     1.0  0.46407  0.44071  0.10672  1.0000
  S   S477      1.0  0.25627  0.38504  0.02421  1.0000
  C   C1624     1.0  0.41583  0.43666  0.01135  1.0000
  H   H2736     1.0  0.43238  0.44070  0.98838  1.0000
  H   H2737     1.0  0.26756  0.36547  0.08008  1.0000
  C   C1625     1.0  0.26665  0.48147  0.03103  1.0000
  H   H2738     1.0  0.33703  0.36853  0.00439  1.0000
  C   C1626     1.0  0.25974  0.46812  0.04321  1.0000
  H   H2739     1.0  0.30343  0.32340  0.04230  1.0000
  H   H2740     1.0  0.25952  0.40535  0.04214  1.0000
  H   H2741     1.0  0.40646  0.40940  0.02898  1.0000
  C   C1627     1.0  0.39740  0.42260  0.00741  1.0000
  H   H2742     1.0  0.37104  0.40140  0.99254  1.0000
  H   H2743     1.0  0.27235  0.37616  0.99393  1.0000
  S   S478      1.0  0.42904  0.38915  0.98933  1.0000
  H   H2744     1.0  0.43906  0.35730  0.01834  1.0000
  H   H2745     1.0  0.38013  0.44377  0.98535  1.0000
  H   H2746     1.0  0.47765  0.47419  0.06835  1.0000
  H   H2747     1.0  0.48148  0.35108  0.12958  1.0000
  H   H2748     1.0  0.25823  0.34887  0.00065  1.0000
  H   H2749     1.0  0.24668  0.37075  0.06883  1.0000
  H   H2750     1.0  0.43888  0.33671  0.00453  1.0000
  C   C1628     1.0  0.42947  0.35077  0.02203  1.0000
  C   C1629     1.0  0.40002  0.44864  0.99165  1.0000
  H   H2751     1.0  0.46063  0.44872  0.11496  1.0000
  H   H2752     1.0  0.41855  0.35864  0.02694  1.0000
  H   H2753     1.0  0.43270  0.34052  0.03147  1.0000
  H   H2754     1.0  0.26742  0.43821  0.06996  1.0000
  C   C1630     1.0  0.24687  0.35836  0.06925  1.0000
  H   H2755     1.0  0.48388  0.45701  0.10978  1.0000
  H   H2756     1.0  0.48497  0.35291  0.99691  1.0000
  H   H2757     1.0  0.33569  0.24538  0.10706  1.0000
  C   C1631     1.0  0.35717  0.33108  0.98290  1.0000
  H   H2758     1.0  0.34101  0.36624  0.98476  1.0000
  H   H2759     1.0  0.43997  0.47621  0.00697  1.0000
  H   H2760     1.0  0.45913  0.47597  0.10113  1.0000
  H   H2761     1.0  0.42525  0.32355  0.99414  1.0000
  H   H2762     1.0  0.35671  0.25088  0.08217  1.0000
  H   H2763     1.0  0.40559  0.41779  0.99735  1.0000
  H   H2764     1.0  0.47807  0.45531  0.05515  1.0000
  N   N112      1.0  0.48514  0.45433  0.08634  1.0000
  H   H2765     1.0  0.26030  0.40250  0.98824  1.0000
  C   C1632     1.0  0.47088  0.47882  0.09810  1.0000
  H   H2766     1.0  0.34069  0.23496  0.06802  1.0000
  C   C1633     1.0  0.33058  0.33350  0.98047  1.0000
  C   C1634     1.0  0.27796  0.35226  0.98013  1.0000
  H   H2767     1.0  0.40338  0.35366  0.98001  1.0000
  C   C1635     1.0  0.41488  0.34524  0.98001  1.0000
  Fe  Fe242     1.0  0.42932  0.43971  0.94899  1.0000
  S   S479      1.0  0.44924  0.42076  0.95680  1.0000
  H   H2768     1.0  0.25149  0.39595  0.91351  1.0000
  Fe  Fe243     1.0  0.41800  0.41738  0.93639  1.0000
  S   S480      1.0  0.43707  0.39668  0.94311  1.0000
  S   S481      1.0  0.39781  0.41754  0.92603  1.0000
  Fe  Fe244     1.0  0.43197  0.40508  0.96539  1.0000
  C   C1636     1.0  0.37275  0.36343  0.96324  1.0000
  Fe  Fe245     1.0  0.45291  0.41395  0.93384  1.0000
  S   S482      1.0  0.47732  0.40753  0.91896  1.0000
  S   S483      1.0  0.41164  0.42440  0.95955  1.0000
  S   S484      1.0  0.43421  0.43427  0.92511  1.0000
  Fe  Fe246     1.0  0.32100  0.37396  0.92003  1.0000
  S   S485      1.0  0.31172  0.35212  0.92641  1.0000
  S   S486      1.0  0.30329  0.39687  0.91894  1.0000
  Fe  Fe247     1.0  0.35485  0.35627  0.92048  1.0000
  S   S487      1.0  0.34822  0.33268  0.92693  1.0000
  S   S488      1.0  0.38003  0.35681  0.91977  1.0000
  Fe  Fe248     1.0  0.33305  0.34324  0.90901  1.0000
  S   S489      1.0  0.33065  0.33254  0.89004  1.0000
  Fe  Fe249     1.0  0.32745  0.34366  0.94363  1.0000
  H   H2769     1.0  0.26167  0.43631  0.93950  1.0000
  S   S490      1.0  0.34134  0.36608  0.90114  1.0000
  S   S491      1.0  0.33513  0.36626  0.93861  1.0000
  Fe  Fe250     1.0  0.28107  0.27547  0.88697  1.0000
  S   S492      1.0  0.28782  0.28182  0.86063  1.0000
  S   S493      1.0  0.29385  0.27804  0.90409  1.0000
  H   H2770     1.0  0.29505  0.36621  0.95509  1.0000
  C   C1637     1.0  0.26172  0.37154  0.96225  1.0000
  Fe  Fe251     1.0  0.28031  0.25984  0.86122  1.0000
  H   H2771     1.0  0.28344  0.33289  0.89475  1.0000
  Fe  Fe252     1.0  0.25135  0.26588  0.88690  1.0000
  S   S494      1.0  0.27605  0.25227  0.88759  1.0000
  N   N113      1.0  0.33538  0.25635  0.87187  1.0000
  C   C1638     1.0  0.26734  0.36180  0.94946  1.0000
  C   C1639     1.0  0.29202  0.36108  0.89023  1.0000
  H   H2772     1.0  0.25129  0.26678  0.82456  1.0000
  C   C1640     1.0  0.24559  0.30442  0.83080  1.0000
  C   C1641     1.0  0.25723  0.37450  0.85968  1.0000
  H   H2773     1.0  0.43617  0.42921  0.89113  1.0000
  H   H2774     1.0  0.35852  0.27419  0.86953  1.0000
  C   C1642     1.0  0.32952  0.26361  0.84399  1.0000
  C   C1643     1.0  0.26605  0.32564  0.88811  1.0000
  C   C1644     1.0  0.44864  0.42374  0.88664  1.0000
  N   N114      1.0  0.25902  0.45251  0.90805  1.0000
  H   H2775     1.0  0.42751  0.41300  0.88157  1.0000
  H   H2776     1.0  0.44455  0.40945  0.86046  1.0000
  S   S495      1.0  0.25428  0.31797  0.84947  1.0000
  C   C1645     1.0  0.32028  0.25053  0.87879  1.0000
  H   H2777     1.0  0.36646  0.38579  0.94850  1.0000
  S   S496      1.0  0.25592  0.28834  0.88854  1.0000
  C   C1646     1.0  0.31976  0.31786  0.89432  1.0000
  C   C1647     1.0  0.31501  0.30965  0.90969  1.0000
  C   C1648     1.0  0.30690  0.29759  0.91255  1.0000
  C   C1649     1.0  0.30312  0.29394  0.90014  1.0000
  C   C1650     1.0  0.30752  0.30242  0.88481  1.0000
  C   C1651     1.0  0.31599  0.31419  0.88190  1.0000
  H   H2778     1.0  0.31790  0.31233  0.91934  1.0000
  H   H2779     1.0  0.30362  0.29102  0.92444  1.0000
  H   H2780     1.0  0.30467  0.29973  0.87515  1.0000
  H   H2781     1.0  0.31965  0.32051  0.86998  1.0000
  H   H2782     1.0  0.46797  0.38455  0.87815  1.0000
  H   H2783     1.0  0.31798  0.24435  0.87087  1.0000
  H   H2784     1.0  0.32321  0.27879  0.86038  1.0000
  H   H2785     1.0  0.29306  0.35908  0.86681  1.0000
  C   C1652     1.0  0.33305  0.26885  0.85726  1.0000
  H   H2786     1.0  0.45594  0.43037  0.88924  1.0000
  C   C1653     1.0  0.46153  0.37315  0.91046  1.0000
  H   H2787     1.0  0.33688  0.40232  0.96887  1.0000
  C   C1654     1.0  0.45282  0.40639  0.89516  1.0000
  H   H2788     1.0  0.36442  0.41851  0.95003  1.0000
  C   C1655     1.0  0.28978  0.39746  0.90808  1.0000
  C   C1656     1.0  0.29361  0.40133  0.89163  1.0000
  C   C1657     1.0  0.28209  0.40366  0.88305  1.0000
  H   H2789     1.0  0.45987  0.36306  0.92056  1.0000
  H   H2790     1.0  0.36998  0.35663  0.97540  1.0000
  C   C1658     1.0  0.27459  0.39545  0.91590  1.0000
  H   H2791     1.0  0.30534  0.40295  0.88555  1.0000
  C   C1659     1.0  0.37615  0.39261  0.97070  1.0000
  H   H2792     1.0  0.27155  0.39263  0.92858  1.0000
  C   C1660     1.0  0.39317  0.40050  0.92430  1.0000
  C   C1661     1.0  0.40203  0.38548  0.92919  1.0000
  C   C1662     1.0  0.39807  0.37221  0.92741  1.0000
  C   C1663     1.0  0.38489  0.37380  0.92130  1.0000
  C   C1664     1.0  0.37596  0.38881  0.91655  1.0000
  C   C1665     1.0  0.38021  0.40211  0.91789  1.0000
  H   H2793     1.0  0.41189  0.38409  0.93435  1.0000
  H   H2794     1.0  0.40502  0.36061  0.93110  1.0000
  H   H2795     1.0  0.36586  0.39016  0.91172  1.0000
  H   H2796     1.0  0.37334  0.41370  0.91402  1.0000
  H   H2797     1.0  0.46585  0.38127  0.91462  1.0000
  H   H2798     1.0  0.34964  0.27970  0.88801  1.0000
  H   H2799     1.0  0.25645  0.29574  0.83144  1.0000
  H   H2800     1.0  0.30929  0.38074  0.96263  1.0000
  H   H2801     1.0  0.46141  0.39108  0.97618  1.0000
  H   H2802     1.0  0.28079  0.48207  0.89292  1.0000
  H   H2803     1.0  0.25490  0.35077  0.86836  1.0000
  H   H2804     1.0  0.44915  0.40660  0.90791  1.0000
  H   H2805     1.0  0.24635  0.35705  0.89309  1.0000
  H   H2806     1.0  0.45104  0.42543  0.87373  1.0000
  C   C1666     1.0  0.26337  0.26192  0.80214  1.0000
  H   H2807     1.0  0.46592  0.40273  0.89267  1.0000
  C   C1667     1.0  0.26426  0.43526  0.91470  1.0000
  C   C1668     1.0  0.48412  0.38289  0.94347  1.0000
  H   H2808     1.0  0.27377  0.35276  0.85651  1.0000
  H   H2809     1.0  0.30196  0.36720  0.88536  1.0000
  H   H2810     1.0  0.37084  0.41664  0.97472  1.0000
  H   H2811     1.0  0.25029  0.36891  0.96947  1.0000
  H   H2812     1.0  0.29310  0.38722  0.97745  1.0000
  H   H2813     1.0  0.25069  0.46184  0.92932  1.0000
  S   S497      1.0  0.31744  0.33439  0.96907  1.0000
  H   H2814     1.0  0.25550  0.37229  0.89225  1.0000
  H   H2815     1.0  0.47204  0.38654  0.94943  1.0000
  C   C1669     1.0  0.25216  0.25761  0.81814  1.0000
  H   H2816     1.0  0.42565  0.38803  0.87560  1.0000
  H   H2817     1.0  0.38184  0.39666  0.95818  1.0000
  S   S498      1.0  0.25203  0.40648  0.88026  1.0000
  H   H2818     1.0  0.28403  0.36692  0.89964  1.0000
  H   H2819     1.0  0.27160  0.34627  0.91247  1.0000
  H   H2820     1.0  0.28376  0.45310  0.89809  1.0000
  H   H2821     1.0  0.26257  0.43595  0.87999  1.0000
  H   H2822     1.0  0.37147  0.35660  0.95536  1.0000
  H   H2823     1.0  0.27398  0.42969  0.90602  1.0000
  H   H2824     1.0  0.25871  0.38407  0.95611  1.0000
  H   H2825     1.0  0.29722  0.34877  0.89523  1.0000
  C   C1670     1.0  0.25758  0.35932  0.89385  1.0000
  H   H2826     1.0  0.40782  0.39814  0.88629  1.0000
  H   H2827     1.0  0.25490  0.32939  0.89634  1.0000
  C   C1671     1.0  0.26468  0.44744  0.88002  1.0000
  H   H2828     1.0  0.35266  0.41026  0.94252  1.0000
  H   H2829     1.0  0.35004  0.37834  0.96021  1.0000
  H   H2830     1.0  0.45795  0.39450  0.85183  1.0000
  H   H2831     1.0  0.27922  0.37550  0.87322  1.0000
  C   C1672     1.0  0.27281  0.46026  0.90407  1.0000
  H   H2832     1.0  0.34482  0.25395  0.89229  1.0000
  H   H2833     1.0  0.31007  0.26060  0.88010  1.0000
  C   C1673     1.0  0.29872  0.37744  0.97126  1.0000
  H   H2834     1.0  0.25855  0.24659  0.82474  1.0000
  H   H2835     1.0  0.34351  0.27411  0.85179  1.0000
  C   C1674     1.0  0.26677  0.40208  0.89092  1.0000
  H   H2836     1.0  0.25179  0.34337  0.91676  1.0000
  C   C1675     1.0  0.25948  0.35192  0.91099  1.0000
  H   H2837     1.0  0.47075  0.36842  0.90099  1.0000
  H   H2838     1.0  0.27571  0.46099  0.91498  1.0000
  C   C1676     1.0  0.24605  0.46038  0.91976  1.0000
  C   C1677     1.0  0.27768  0.33643  0.88464  1.0000
  H   H2839     1.0  0.48944  0.36322  0.96236  1.0000
  S   S499      1.0  0.25521  0.27199  0.86062  1.0000
  C   C1678     1.0  0.28771  0.37483  0.96234  1.0000
  H   H2840     1.0  0.27519  0.26094  0.80421  1.0000
  H   H2841     1.0  0.26346  0.32486  0.87710  1.0000
  C   C1679     1.0  0.34718  0.27687  0.87785  1.0000
  N   N115      1.0  0.27079  0.35384  0.88087  1.0000
  H   H2842     1.0  0.32710  0.26821  0.89144  1.0000
  H   H2843     1.0  0.28496  0.40706  0.87035  1.0000
  C   C1680     1.0  0.33839  0.26324  0.88395  1.0000
  C   C1681     1.0  0.36172  0.37979  0.96062  1.0000
  H   H2844     1.0  0.34393  0.42674  0.95137  1.0000
  H   H2845     1.0  0.44402  0.47024  0.92693  1.0000
  H   H2846     1.0  0.46540  0.40726  0.85872  1.0000
  C   C1682     1.0  0.35285  0.41550  0.95216  1.0000
  H   H2847     1.0  0.26308  0.45555  0.86862  1.0000
  H   H2848     1.0  0.25820  0.36500  0.94242  1.0000
  H   H2849     1.0  0.25523  0.36129  0.91783  1.0000
  C   C1683     1.0  0.26315  0.39758  0.90734  1.0000
  C   C1684     1.0  0.27036  0.43121  0.92995  1.0000
  H   H2850     1.0  0.38526  0.36428  0.96019  1.0000
  C   C1685     1.0  0.45545  0.38898  0.87721  1.0000
  C   C1686     1.0  0.28375  0.36267  0.87694  1.0000
  H   H2851     1.0  0.28478  0.38587  0.95353  1.0000
  C   C1687     1.0  0.34670  0.33145  0.97389  1.0000
  C   C1688     1.0  0.34840  0.24249  0.86824  1.0000
  H   H2852     1.0  0.28162  0.43490  0.92776  1.0000
  H   H2853     1.0  0.38604  0.46148  0.97431  1.0000
  C   C1689     1.0  0.43945  0.48063  0.93183  1.0000
  C   C1690     1.0  0.25285  0.45431  0.89368  1.0000
  N   N116      1.0  0.44569  0.39480  0.89173  1.0000
  C   C1691     1.0  0.44564  0.38083  0.90547  1.0000
  C   C1692     1.0  0.42877  0.40196  0.89063  1.0000
  S   S500      1.0  0.42228  0.46273  0.95711  1.0000
  H   H2854     1.0  0.26625  0.38171  0.85454  1.0000
  C   C1693     1.0  0.41999  0.39144  0.88704  1.0000
  H   H2855     1.0  0.43701  0.38417  0.91607  1.0000
  H   H2856     1.0  0.44178  0.37128  0.90305  1.0000
  C   C1694     1.0  0.45580  0.40090  0.86132  1.0000
  H   H2857     1.0  0.42195  0.40557  0.90179  1.0000
  H   H2858     1.0  0.35114  0.32996  0.96190  1.0000
  Fe  Fe253     1.0  0.26232  0.29325  0.86225  1.0000
  H   H2859     1.0  0.27717  0.44565  0.88034  1.0000
  H   H2860     1.0  0.45206  0.37846  0.87618  1.0000
  H   H2861     1.0  0.46679  0.47127  0.97812  1.0000
  H   H2862     1.0  0.41871  0.38084  0.89652  1.0000
  C   C1695     1.0  0.26443  0.35715  0.86623  1.0000
  C   C1696     1.0  0.36463  0.24607  0.85958  1.0000
  H   H2863     1.0  0.27156  0.31353  0.89359  1.0000
  H   H2864     1.0  0.24275  0.44849  0.89674  1.0000
  C   C1697     1.0  0.42869  0.48007  0.94629  1.0000
  H   H2865     1.0  0.31813  0.25994  0.84751  1.0000
  H   H2866     1.0  0.27014  0.47721  0.88171  1.0000
  H   H2867     1.0  0.27835  0.36437  0.94122  1.0000
  H   H2868     1.0  0.33974  0.28773  0.87219  1.0000
  C   C1698     1.0  0.48979  0.39122  0.92843  1.0000
  H   H2869     1.0  0.32065  0.24418  0.90421  1.0000
  H   H2870     1.0  0.26735  0.40132  0.96823  1.0000
  H   H2871     1.0  0.26491  0.25401  0.79424  1.0000
  N   N117      1.0  0.36018  0.38962  0.97214  1.0000
  H   H2872     1.0  0.36970  0.25035  0.86699  1.0000
  C   C1699     1.0  0.27057  0.47709  0.89386  1.0000
  H   H2873     1.0  0.25935  0.27430  0.79618  1.0000
  H   H2874     1.0  0.27287  0.41826  0.93429  1.0000
  C   C1700     1.0  0.34840  0.40475  0.96845  1.0000
  H   H2875     1.0  0.28734  0.33310  0.87465  1.0000
  H   H2876     1.0  0.25467  0.42895  0.91680  1.0000
  H   H2877     1.0  0.38896  0.40447  0.97910  1.0000
  H   H2878     1.0  0.26891  0.34901  0.95453  1.0000
  C   C1701     1.0  0.25975  0.39646  0.97934  1.0000
  H   H2879     1.0  0.33907  0.25414  0.83965  1.0000
  H   H2880     1.0  0.30752  0.23616  0.89894  1.0000
  H   H2881     1.0  0.42462  0.35150  0.97678  1.0000
  H   H2882     1.0  0.41670  0.33894  0.97052  1.0000
  H   H2883     1.0  0.32852  0.27376  0.83384  1.0000
  H   H2884     1.0  0.36431  0.25445  0.84811  1.0000
  N   N118      1.0  0.27310  0.36932  0.97245  1.0000
  H   H2885     1.0  0.36966  0.32927  0.97779  1.0000
  H   H2886     1.0  0.28492  0.34527  0.97119  1.0000
  H   H2887     1.0  0.38431  0.38150  0.97487  1.0000
  S   S501      1.0  0.29475  0.24405  0.84440  1.0000
  H   H2888     1.0  0.25168  0.37507  0.84997  1.0000
  H   H2889     1.0  0.34590  0.41177  0.97752  1.0000
  H   H2890     1.0  0.24783  0.37990  0.86863  1.0000
  H   H2891     1.0  0.24776  0.46684  0.88899  1.0000
  H   H2892     1.0  0.24746  0.39953  0.97766  1.0000
  C   C1702     1.0  0.31936  0.23901  0.89500  1.0000
  H   H2893     1.0  0.37286  0.23501  0.85705  1.0000
  H   H2894     1.0  0.24479  0.24222  0.79158  1.0000
  H   H2895     1.0  0.25310  0.23503  0.88631  1.0000
  H   H2896     1.0  0.34507  0.23619  0.86112  1.0000
  C   C1703     1.0  0.24222  0.31734  0.83764  1.0000
  H   H2897     1.0  0.30291  0.36663  0.97967  1.0000
  H   H2898     1.0  0.24155  0.25102  0.84905  1.0000
  C   C1704     1.0  0.37649  0.40450  0.97988  1.0000
  Fe  Fe254     1.0  0.46288  0.55960  0.04046  1.0000
  H   H2899     1.0  0.32243  0.64572  0.98242  1.0000
  H   H2900     1.0  0.31372  0.71582  0.09805  1.0000
  Fe  Fe255     1.0  0.43805  0.57425  0.06563  1.0000
  S   S502      1.0  0.44811  0.55658  0.08535  1.0000
  S   S503      1.0  0.41824  0.59594  0.06562  1.0000
  Fe  Fe256     1.0  0.47180  0.56012  0.07019  1.0000
  H   H2901     1.0  0.38035  0.57158  0.98359  1.0000
  Fe  Fe257     1.0  0.45047  0.53874  0.07116  1.0000
  Fe  Fe258     1.0  0.24192  0.55196  0.04868  1.0000
  S   S504      1.0  0.46162  0.57908  0.05167  1.0000
  S   S505      1.0  0.43854  0.55621  0.05287  1.0000
  Fe  Fe259     1.0  0.29562  0.61763  0.06577  1.0000
  S   S506      1.0  0.29637  0.64106  0.04967  1.0000
  S   S507      1.0  0.27300  0.60903  0.07303  1.0000
  Fe  Fe260     1.0  0.32845  0.61370  0.07092  1.0000
  S   S508      1.0  0.33163  0.63726  0.05534  1.0000
  S   S509      1.0  0.34590  0.59359  0.08210  1.0000
  Fe  Fe261     1.0  0.30645  0.64622  0.06725  1.0000
  S   S510      1.0  0.29315  0.67050  0.07117  1.0000
  Fe  Fe262     1.0  0.32106  0.63029  0.03930  1.0000
  H   H2902     1.0  0.30978  0.61217  0.02493  1.0000
  S   S511      1.0  0.30410  0.62323  0.08420  1.0000
  S   S512      1.0  0.31956  0.60626  0.05392  1.0000
  S   S513      1.0  0.26627  0.55682  0.04270  1.0000
  H   H2903     1.0  0.48314  0.61224  0.08934  1.0000
  C   C1705     1.0  0.34388  0.59134  0.98968  1.0000
  C   C1706     1.0  0.25403  0.66363  0.06406  1.0000
  S   S514      1.0  0.28637  0.70270  0.12734  1.0000
  S   S515      1.0  0.44391  0.51504  0.08153  1.0000
  C   C1707     1.0  0.45895  0.55763  0.00648  1.0000
  C   C1708     1.0  0.39419  0.60714  0.02251  1.0000
  C   C1709     1.0  0.46409  0.49606  0.99505  1.0000
  C   C1710     1.0  0.30886  0.61782  0.01298  1.0000
  H   H2904     1.0  0.41069  0.60777  0.99222  1.0000
  C   C1711     1.0  0.44646  0.50258  0.06865  1.0000
  H   H2905     1.0  0.26310  0.63515  0.04363  1.0000
  S   S516      1.0  0.42115  0.54984  0.98707  1.0000
  C   C1712     1.0  0.45635  0.49580  0.04300  1.0000
  H   H2906     1.0  0.41510  0.51464  0.99429  1.0000
  H   H2907     1.0  0.25696  0.64872  0.12361  1.0000
  H   H2908     1.0  0.39174  0.58641  0.00477  1.0000
  H   H2909     1.0  0.24353  0.66698  0.11752  1.0000
  C   C1713     1.0  0.25972  0.65683  0.09780  1.0000
  H   H2910     1.0  0.43949  0.59187  0.02414  1.0000
  H   H2911     1.0  0.25339  0.58691  0.02253  1.0000
  C   C1714     1.0  0.31193  0.71302  0.06984  1.0000
  H   H2912     1.0  0.42297  0.60772  0.02694  1.0000
  C   C1715     1.0  0.43605  0.55224  0.99445  1.0000
  H   H2913     1.0  0.41533  0.58333  0.04047  1.0000
  C   C1716     1.0  0.24556  0.59827  0.02468  1.0000
  N   N119      1.0  0.44802  0.49721  0.99240  1.0000
  H   H2914     1.0  0.33271  0.72993  0.21955  1.0000
  H   H2915     1.0  0.27170  0.64901  0.09614  1.0000
  S   S517      1.0  0.47486  0.54081  0.05772  1.0000
  H   H2916     1.0  0.46127  0.51716  0.00416  1.0000
  C   C1717     1.0  0.29084  0.67809  0.08783  1.0000
  C   C1718     1.0  0.30142  0.67234  0.09783  1.0000
  C   C1719     1.0  0.29977  0.67977  0.11014  1.0000
  C   C1720     1.0  0.28747  0.69284  0.11260  1.0000
  C   C1721     1.0  0.27653  0.69809  0.10299  1.0000
  C   C1722     1.0  0.27834  0.69089  0.09055  1.0000
  H   H2917     1.0  0.31111  0.66248  0.09582  1.0000
  H   H2918     1.0  0.30821  0.67553  0.11762  1.0000
  H   H2919     1.0  0.26667  0.70768  0.10514  1.0000
  H   H2920     1.0  0.26995  0.69523  0.08302  1.0000
  C   C1723     1.0  0.27133  0.59460  0.06439  1.0000
  C   C1724     1.0  0.28358  0.58868  0.05284  1.0000
  C   C1725     1.0  0.28203  0.57691  0.04638  1.0000
  C   C1726     1.0  0.26811  0.57126  0.05123  1.0000
  C   C1727     1.0  0.25576  0.57741  0.06258  1.0000
  C   C1728     1.0  0.25741  0.58900  0.06920  1.0000
  H   H2921     1.0  0.29416  0.59325  0.04877  1.0000
  H   H2922     1.0  0.29151  0.57234  0.03742  1.0000
  S   S518      1.0  0.24966  0.73260  0.14668  1.0000
  H   H2923     1.0  0.26610  0.64114  0.07509  1.0000
  C   C1729     1.0  0.25389  0.64841  0.07687  1.0000
  C   C1730     1.0  0.39828  0.59485  0.06995  1.0000
  C   C1731     1.0  0.39346  0.58064  0.07678  1.0000
  C   C1732     1.0  0.37735  0.58038  0.08044  1.0000
  C   C1733     1.0  0.36605  0.59422  0.07694  1.0000
  C   C1734     1.0  0.37094  0.60832  0.06970  1.0000
  C   C1735     1.0  0.38698  0.60865  0.06643  1.0000
  H   H2924     1.0  0.40209  0.56995  0.07960  1.0000
  H   H2925     1.0  0.37366  0.56943  0.08609  1.0000
  H   H2926     1.0  0.36234  0.61907  0.06709  1.0000
  H   H2927     1.0  0.39063  0.61969  0.06123  1.0000
  H   H2928     1.0  0.46708  0.52026  0.98288  1.0000
  H   H2929     1.0  0.46535  0.48849  0.00681  1.0000
  S   S519      1.0  0.47209  0.56246  0.01439  1.0000
  C   C1736     1.0  0.29823  0.62039  0.99034  1.0000
  C   C1737     1.0  0.25031  0.56567  0.99982  1.0000
  S   S520      1.0  0.32981  0.63450  0.01308  1.0000
  C   C1738     1.0  0.30719  0.72824  0.09603  1.0000
  H   H2930     1.0  0.26053  0.55242  0.98217  1.0000
  C   C1739     1.0  0.32053  0.72976  0.22647  1.0000
  H   H2931     1.0  0.25310  0.63933  0.99058  1.0000
  C   C1740     1.0  0.39061  0.58059  0.03500  1.0000
  C   C1741     1.0  0.43700  0.54561  0.01011  1.0000
  C   C1742     1.0  0.44876  0.54794  0.01597  1.0000
  H   H2932     1.0  0.32439  0.71049  0.07099  1.0000
  H   H2933     1.0  0.42879  0.53856  0.01768  1.0000
  H   H2934     1.0  0.44999  0.54215  0.02780  1.0000
  Fe  Fe263     1.0  0.27054  0.72697  0.12726  1.0000
  H   H2935     1.0  0.27552  0.71959  0.06443  1.0000
  H   H2936     1.0  0.47118  0.48455  0.10735  1.0000
  C   C1743     1.0  0.25585  0.60995  0.02274  1.0000
  H   H2937     1.0  0.48079  0.50935  0.99491  1.0000
  H   H2938     1.0  0.27831  0.64056  0.02720  1.0000
  H   H2939     1.0  0.34897  0.60386  0.00474  1.0000
  H   H2940     1.0  0.40935  0.57340  0.00757  1.0000
  H   H2941     1.0  0.34470  0.58516  0.01441  1.0000
  C   C1744     1.0  0.24879  0.63372  0.10396  1.0000
  C   C1745     1.0  0.46829  0.51173  0.99412  1.0000
  H   H2942     1.0  0.24193  0.67045  0.06340  1.0000
  H   H2943     1.0  0.36388  0.61162  0.98068  1.0000
  H   H2944     1.0  0.45819  0.51705  0.04818  1.0000
  N   N120      1.0  0.24823  0.65009  0.09375  1.0000
  H   H2945     1.0  0.31598  0.72090  0.22371  1.0000
  H   H2946     1.0  0.36862  0.60809  0.02771  1.0000
  H   H2947     1.0  0.32067  0.70846  0.04585  1.0000
  H   H2948     1.0  0.42997  0.60177  0.00822  1.0000
  H   H2949     1.0  0.47214  0.48773  0.08691  1.0000
  H   H2950     1.0  0.38786  0.55718  0.04818  1.0000
  C   C1746     1.0  0.48748  0.58986  0.08308  1.0000
  H   H2951     1.0  0.42430  0.57437  0.02409  1.0000
  H   H2952     1.0  0.26309  0.60464  0.03172  1.0000
  N   N121      1.0  0.30496  0.73046  0.06754  1.0000
  C   C1747     1.0  0.41717  0.58556  0.02744  1.0000
  N   N122      1.0  0.24712  0.62640  0.02421  1.0000
  H   H2953     1.0  0.26441  0.60992  0.01129  1.0000
  H   H2954     1.0  0.29318  0.60404  0.01241  1.0000
  C   C1748     1.0  0.31731  0.62939  0.00449  1.0000
  C   C1749     1.0  0.45812  0.56408  0.99078  1.0000
  H   H2955     1.0  0.48891  0.61227  0.03937  1.0000
  C   C1750     1.0  0.44688  0.56112  0.98471  1.0000
  H   H2956     1.0  0.25048  0.59607  0.98346  1.0000
  C   C1751     1.0  0.43598  0.50490  0.00483  1.0000
  H   H2957     1.0  0.24573  0.63407  0.11662  1.0000
  C   C1752     1.0  0.41284  0.59514  0.99243  1.0000
  C   C1753     1.0  0.35094  0.59168  0.00322  1.0000
  H   H2958     1.0  0.43793  0.49851  0.01680  1.0000
  H   H2959     1.0  0.26381  0.66642  0.11548  1.0000
  H   H2960     1.0  0.30560  0.70657  0.08105  1.0000
  H   H2961     1.0  0.27662  0.62060  0.03347  1.0000
  H   H2962     1.0  0.25255  0.55496  0.00913  1.0000
  C   C1754     1.0  0.37781  0.61320  0.01838  1.0000
  H   H2963     1.0  0.47514  0.58960  0.08558  1.0000
  C   C1755     1.0  0.40330  0.58590  0.00714  1.0000
  H   H2964     1.0  0.38745  0.58458  0.04627  1.0000
  H   H2965     1.0  0.40178  0.61494  0.01424  1.0000
  H   H2966     1.0  0.37424  0.62610  0.01755  1.0000
  N   N123      1.0  0.40151  0.59002  0.02266  1.0000
  C   C1756     1.0  0.42783  0.59757  0.02111  1.0000
  H   H2967     1.0  0.37929  0.58243  0.03148  1.0000
  H   H2968     1.0  0.48576  0.58916  0.98690  1.0000
  H   H2969     1.0  0.41104  0.51115  0.01517  1.0000
  H   H2970     1.0  0.37785  0.61118  0.00685  1.0000
  H   H2971     1.0  0.39304  0.60957  0.03423  1.0000
  H   H2972     1.0  0.41582  0.49480  0.00609  1.0000
  C   C1757     1.0  0.39690  0.56260  0.03889  1.0000
  C   C1758     1.0  0.45402  0.50624  0.05281  1.0000
  H   H2973     1.0  0.40916  0.59470  0.98186  1.0000
  H   H2974     1.0  0.40765  0.55927  0.04372  1.0000
  H   H2975     1.0  0.48646  0.61835  0.01408  1.0000
  C   C1759     1.0  0.24366  0.63260  0.99559  1.0000
  H   H2976     1.0  0.39917  0.55728  0.02862  1.0000
  C   C1760     1.0  0.41857  0.50629  0.00491  1.0000
  H   H2977     1.0  0.24784  0.59361  0.07808  1.0000
  H   H2978     1.0  0.46584  0.57169  0.98338  1.0000
  H   H2979     1.0  0.32131  0.72582  0.23904  1.0000
  H   H2980     1.0  0.26047  0.57117  0.99739  1.0000
  N   N124      1.0  0.31497  0.56263  0.09361  1.0000
  C   C1761     1.0  0.32331  0.56030  0.10670  1.0000
  C   C1762     1.0  0.30576  0.57941  0.09114  1.0000
  C   C1763     1.0  0.32746  0.56030  0.07896  1.0000
  C   C1764     1.0  0.30466  0.55082  0.09825  1.0000
  C   C1765     1.0  0.33506  0.54446  0.11011  1.0000
  C   C1766     1.0  0.29345  0.58407  0.10563  1.0000
  C   C1767     1.0  0.32173  0.56217  0.06393  1.0000
  C   C1768     1.0  0.29054  0.55495  0.09021  1.0000
  H   H2981     1.0  0.32992  0.56973  0.10429  1.0000
  H   H2982     1.0  0.31470  0.56124  0.11802  1.0000
  H   H2983     1.0  0.29951  0.58242  0.08145  1.0000
  H   H2984     1.0  0.31392  0.58761  0.08734  1.0000
  H   H2985     1.0  0.33549  0.56852  0.07620  1.0000
  H   H2986     1.0  0.33501  0.54827  0.08070  1.0000
  H   H2987     1.0  0.31185  0.53915  0.09617  1.0000
  H   H2988     1.0  0.29947  0.54896  0.11112  1.0000
  H   H2989     1.0  0.33838  0.54322  0.12139  1.0000
  H   H2990     1.0  0.32999  0.53427  0.11133  1.0000
  H   H2991     1.0  0.34616  0.54405  0.10098  1.0000
  H   H2992     1.0  0.28563  0.59556  0.10187  1.0000
  H   H2993     1.0  0.28589  0.57547  0.11149  1.0000
  H   H2994     1.0  0.29919  0.58573  0.11424  1.0000
  H   H2995     1.0  0.31406  0.57378  0.06064  1.0000
  H   H2996     1.0  0.31582  0.55263  0.06491  1.0000
  H   H2997     1.0  0.33211  0.56121  0.05397  1.0000
  H   H2998     1.0  0.28880  0.54401  0.08831  1.0000
  H   H2999     1.0  0.29176  0.56310  0.07861  1.0000
  H   H3000     1.0  0.27941  0.55963  0.09805  1.0000
  H   H3001     1.0  0.33137  0.59778  0.99238  1.0000
  H   H3002     1.0  0.36357  0.58605  0.00177  1.0000
  H   H3003     1.0  0.46234  0.49867  0.03083  1.0000
  H   H3004     1.0  0.30052  0.70628  0.05467  1.0000
  C   C1769     1.0  0.31228  0.70479  0.05693  1.0000
  H   H3005     1.0  0.31662  0.69194  0.06094  1.0000
  H   H3006     1.0  0.30320  0.73094  0.20324  1.0000
  H   H3007     1.0  0.47360  0.49016  0.98653  1.0000
  H   H3008     1.0  0.26148  0.66808  0.08974  1.0000
  C   C1770     1.0  0.25554  0.65980  0.11460  1.0000
  H   H3009     1.0  0.24840  0.62042  0.99383  1.0000
  H   H3010     1.0  0.26128  0.67103  0.06535  1.0000
  H   H3011     1.0  0.26094  0.62633  0.10174  1.0000
  H   H3012     1.0  0.24497  0.57316  0.06634  1.0000
  H   H3013     1.0  0.26707  0.63542  0.00861  1.0000
  C   C1771     1.0  0.26970  0.63284  0.03195  1.0000
  C   C1772     1.0  0.29943  0.61325  0.00588  1.0000
  C   C1773     1.0  0.25900  0.63651  0.02021  1.0000
  H   H3014     1.0  0.24657  0.64216  0.07384  1.0000
  H   H3015     1.0  0.25944  0.66045  0.05246  1.0000
  C   C1774     1.0  0.28722  0.73370  0.07182  1.0000
  C   C1775     1.0  0.24914  0.56068  0.98530  1.0000
  H   H3016     1.0  0.28512  0.73258  0.04807  1.0000
  C   C1776     1.0  0.27861  0.73128  0.06043  1.0000
  H   H3017     1.0  0.26116  0.48561  0.02067  1.0000
  H   H3018     1.0  0.34343  0.57891  0.99090  1.0000
  H   H3019     1.0  0.29447  0.72882  0.10098  1.0000
  H   H3020     1.0  0.25314  0.64918  0.01880  1.0000
  H   H3021     1.0  0.43711  0.51709  0.00350  1.0000
  H   H3022     1.0  0.43519  0.48564  0.08673  1.0000
  H   H3023     1.0  0.24512  0.61949  0.04948  1.0000
  C   C1777     1.0  0.30646  0.63217  0.98190  1.0000
  H   H3024     1.0  0.42563  0.58987  0.99107  1.0000
  S   S521      1.0  0.28628  0.61446  0.98184  1.0000
  C   C1778     1.0  0.44118  0.48848  0.07453  1.0000
  C   C1779     1.0  0.31606  0.63661  0.98896  1.0000
  H   H3025     1.0  0.24338  0.72711  0.07909  1.0000
  H   H3026     1.0  0.26396  0.49173  0.03653  1.0000
  H   H3027     1.0  0.28316  0.72617  0.08338  1.0000
  H   H3028     1.0  0.30924  0.73385  0.04202  1.0000
  Fe  Fe264     1.0  0.42783  0.55801  0.96097  1.0000
  H   H3029     1.0  0.26643  0.63339  0.87087  1.0000
  Fe  Fe265     1.0  0.41838  0.57968  0.93180  1.0000
  S   S522      1.0  0.40053  0.60132  0.92371  1.0000
  C   C1780     1.0  0.28507  0.72714  0.82768  1.0000
  S   S523      1.0  0.41419  0.55571  0.94485  1.0000
  H   H3030     1.0  0.41584  0.63383  0.90672  1.0000
  Fe  Fe266     1.0  0.27715  0.61896  0.92915  1.0000
  S   S524      1.0  0.27358  0.63761  0.94235  1.0000
  S   S525      1.0  0.25441  0.61579  0.92612  1.0000
  Fe  Fe267     1.0  0.31280  0.61122  0.92594  1.0000
  S   S526      1.0  0.31199  0.62943  0.93879  1.0000
  S   S527      1.0  0.33465  0.59288  0.91959  1.0000
  Fe  Fe268     1.0  0.29120  0.62073  0.95540  1.0000
  C   C1781     1.0  0.46511  0.62307  0.90304  1.0000
  Fe  Fe269     1.0  0.29442  0.64466  0.92437  1.0000
  S   S528      1.0  0.29197  0.67071  0.91492  1.0000
  S   S529      1.0  0.29316  0.60137  0.94365  1.0000
  S   S530      1.0  0.29683  0.62715  0.91004  1.0000
  H   H3031     1.0  0.33025  0.61203  0.96608  1.0000
  H   H3032     1.0  0.44519  0.62035  0.87952  1.0000
  C   C1782     1.0  0.47215  0.59911  0.94815  1.0000
  H   H3033     1.0  0.26017  0.64277  0.90269  1.0000
  C   C1783     1.0  0.36447  0.62136  0.95628  1.0000
  H   H3034     1.0  0.26081  0.72537  0.79419  1.0000
  H   H3035     1.0  0.25295  0.66009  0.86376  1.0000
  N   N125      1.0  0.24257  0.65507  0.88874  1.0000
  H   H3036     1.0  0.42416  0.62391  0.94653  1.0000
  S   S531      1.0  0.26565  0.69411  0.85285  1.0000
  C   C1784     1.0  0.33246  0.58874  0.96317  1.0000
  C   C1785     1.0  0.42545  0.62584  0.93363  1.0000
  C   C1786     1.0  0.24208  0.66971  0.90978  1.0000
  H   H3037     1.0  0.42265  0.64070  0.88588  1.0000
  H   H3038     1.0  0.44538  0.51978  0.97607  1.0000
  H   H3039     1.0  0.25663  0.55000  0.94327  1.0000
  H   H3040     1.0  0.27496  0.72280  0.83631  1.0000
  H   H3041     1.0  0.34125  0.57883  0.95875  1.0000
  C   C1787     1.0  0.25648  0.57117  0.91103  1.0000
  H   H3042     1.0  0.30984  0.70006  0.81083  1.0000
  H   H3043     1.0  0.29691  0.69479  0.82982  1.0000
  H   H3044     1.0  0.46932  0.61530  0.96282  1.0000
  H   H3045     1.0  0.36242  0.57484  0.96847  1.0000
  H   H3046     1.0  0.46162  0.60466  0.88451  1.0000
  C   C1788     1.0  0.42261  0.64193  0.89775  1.0000
  S   S532      1.0  0.43001  0.58279  0.94931  1.0000
  Fe  Fe270     1.0  0.43815  0.54659  0.93087  1.0000
  H   H3047     1.0  0.45564  0.51134  0.95142  1.0000
  N   N126      1.0  0.24588  0.57357  0.97123  1.0000
  C   C1789     1.0  0.28544  0.67769  0.89720  1.0000
  C   C1790     1.0  0.29115  0.66919  0.88530  1.0000
  C   C1791     1.0  0.28566  0.67481  0.87128  1.0000
  C   C1792     1.0  0.27406  0.68864  0.86937  1.0000
  C   C1793     1.0  0.26852  0.69730  0.88115  1.0000
  C   C1794     1.0  0.27437  0.69191  0.89497  1.0000
  H   H3048     1.0  0.29991  0.65835  0.88685  1.0000
  H   H3049     1.0  0.29002  0.66811  0.86217  1.0000
  H   H3050     1.0  0.25960  0.70802  0.87974  1.0000
  H   H3051     1.0  0.27002  0.69857  0.90412  1.0000
  H   H3052     1.0  0.48458  0.63387  0.90060  1.0000
  C   C1795     1.0  0.45826  0.50261  0.96218  1.0000
  H   H3053     1.0  0.34546  0.62180  0.97674  1.0000
  C   C1796     1.0  0.28445  0.71008  0.81141  1.0000
  H   H3054     1.0  0.44641  0.56613  0.97258  1.0000
  H   H3055     1.0  0.45780  0.49109  0.96059  1.0000
  H   H3056     1.0  0.24797  0.67772  0.88468  1.0000
  H   H3057     1.0  0.44663  0.64309  0.88716  1.0000
  H   H3058     1.0  0.38252  0.59174  0.97755  1.0000
  H   H3059     1.0  0.29810  0.68600  0.81416  1.0000
  C   C1797     1.0  0.25549  0.59877  0.91994  1.0000
  Fe  Fe271     1.0  0.45273  0.57177  0.93498  1.0000
  C   C1798     1.0  0.35617  0.61319  0.97254  1.0000
  S   S533      1.0  0.47591  0.57981  0.92765  1.0000
  C   C1799     1.0  0.27036  0.57452  0.91200  1.0000
  C   C1800     1.0  0.26986  0.58826  0.91657  1.0000
  C   C1801     1.0  0.44583  0.50728  0.97652  1.0000
  C   C1802     1.0  0.47214  0.63474  0.90715  1.0000
  H   H3060     1.0  0.28149  0.56637  0.90941  1.0000
  H   H3061     1.0  0.28059  0.59069  0.91748  1.0000
  C   C1803     1.0  0.43843  0.50829  0.92990  1.0000
  C   C1804     1.0  0.42763  0.50772  0.94434  1.0000
  H   H3062     1.0  0.27075  0.57358  0.96400  1.0000
  H   H3063     1.0  0.30945  0.72721  0.80504  1.0000
  H   H3064     1.0  0.42295  0.51815  0.94915  1.0000
  H   H3065     1.0  0.44300  0.60043  0.88649  1.0000
  C   C1805     1.0  0.38253  0.59886  0.92186  1.0000
  C   C1806     1.0  0.38002  0.58394  0.92334  1.0000
  C   C1807     1.0  0.36533  0.58228  0.92246  1.0000
  C   C1808     1.0  0.35301  0.59547  0.92029  1.0000
  C   C1809     1.0  0.35555  0.61040  0.91873  1.0000
  C   C1810     1.0  0.37031  0.61208  0.91942  1.0000
  H   H3066     1.0  0.38941  0.57368  0.92507  1.0000
  H   H3067     1.0  0.36347  0.57071  0.92352  1.0000
  H   H3068     1.0  0.34617  0.62065  0.91685  1.0000
  H   H3069     1.0  0.37221  0.62367  0.91815  1.0000
  H   H3070     1.0  0.43100  0.61080  0.90901  1.0000
  C   C1811     1.0  0.44367  0.61093  0.90510  1.0000
  S   S534      1.0  0.44503  0.52567  0.91953  1.0000
  H   H3071     1.0  0.46100  0.59582  0.95393  1.0000
  C   C1812     1.0  0.43960  0.64039  0.89941  1.0000
  C   C1813     1.0  0.24166  0.59563  0.91864  1.0000
  H   H3072     1.0  0.32417  0.59332  0.95511  1.0000
  C   C1814     1.0  0.25879  0.55347  0.95322  1.0000
  Fe  Fe272     1.0  0.24373  0.71322  0.85448  1.0000
  H   H3073     1.0  0.44924  0.61251  0.93193  1.0000
  H   H3074     1.0  0.45264  0.49511  0.91248  1.0000
  C   C1815     1.0  0.44305  0.62395  0.92574  1.0000
  C   C1816     1.0  0.48176  0.59259  0.93551  1.0000
  H   H3075     1.0  0.25459  0.66522  0.91070  1.0000
  H   H3076     1.0  0.28468  0.70887  0.79945  1.0000
  C   C1817     1.0  0.24442  0.56595  0.95895  1.0000
  H   H3077     1.0  0.29580  0.71912  0.83131  1.0000
  H   H3078     1.0  0.36955  0.58973  0.95379  1.0000
  S   S535      1.0  0.44131  0.57046  0.91634  1.0000
  C   C1818     1.0  0.24213  0.58178  0.91429  1.0000
  H   H3079     1.0  0.26050  0.54258  0.96243  1.0000
  H   H3080     1.0  0.27741  0.62567  0.88590  1.0000
  H   H3081     1.0  0.24221  0.57487  0.94817  1.0000
  S   S536      1.0  0.45150  0.54710  0.94813  1.0000
  H   H3082     1.0  0.25826  0.62209  0.88984  1.0000
  H   H3083     1.0  0.46581  0.64709  0.90385  1.0000
  H   H3084     1.0  0.43942  0.65006  0.90487  1.0000
  C   C1819     1.0  0.34006  0.60214  0.96287  1.0000
  H   H3085     1.0  0.26973  0.55804  0.94867  1.0000
  N   N127      1.0  0.28465  0.72672  0.81126  1.0000
  H   H3086     1.0  0.47031  0.50277  0.96261  1.0000
  H   H3087     1.0  0.47131  0.61105  0.90805  1.0000
  H   H3088     1.0  0.39118  0.57922  0.96440  1.0000
  H   H3089     1.0  0.32540  0.58451  0.97497  1.0000
  H   H3090     1.0  0.27330  0.70688  0.81902  1.0000
  N   N128      1.0  0.35186  0.59808  0.97313  1.0000
  H   H3091     1.0  0.41574  0.65400  0.89859  1.0000
  C   C1820     1.0  0.47691  0.61009  0.95321  1.0000
  H   H3092     1.0  0.25920  0.58799  0.95189  1.0000
  C   C1821     1.0  0.25961  0.59478  0.97269  1.0000
  H   H3093     1.0  0.44682  0.63322  0.92873  1.0000
  C   C1822     1.0  0.29823  0.69718  0.81687  1.0000
  H   H3094     1.0  0.43430  0.50730  0.97442  1.0000
  S   S537      1.0  0.25736  0.55364  0.90582  1.0000
  C   C1823     1.0  0.42284  0.49363  0.95254  1.0000
  H   H3095     1.0  0.25986  0.48505  0.89906  1.0000
  H   H3096     1.0  0.44949  0.59984  0.91219  1.0000
  H   H3097     1.0  0.30534  0.63794  0.96999  1.0000
  H   H3098     1.0  0.41877  0.63792  0.92974  1.0000
  H   H3099     1.0  0.25872  0.60644  0.96442  1.0000
  N   N129      1.0  0.44745  0.62481  0.90825  1.0000
  H   H3100     1.0  0.42010  0.61708  0.93183  1.0000
  H   H3101     1.0  0.37537  0.61356  0.95122  1.0000
  H   H3102     1.0  0.35653  0.62597  0.94789  1.0000
  C   C1824     1.0  0.44430  0.49472  0.92367  1.0000
  H   H3103     1.0  0.46895  0.62439  0.89006  1.0000
  H   H3104     1.0  0.27114  0.59202  0.97606  1.0000
  C   C1825     1.0  0.36579  0.58619  0.96678  1.0000
  C   C1826     1.0  0.26537  0.63105  0.88375  1.0000
  C   C1827     1.0  0.25920  0.58210  0.96441  1.0000
  H   H3105     1.0  0.26759  0.65388  0.88407  1.0000
  C   C1828     1.0  0.25908  0.64622  0.89022  1.0000
  C   C1829     1.0  0.44872  0.60922  0.88784  1.0000
  H   H3106     1.0  0.36795  0.63168  0.95758  1.0000
  H   H3107     1.0  0.34549  0.60629  0.95035  1.0000
  H   H3108     1.0  0.41445  0.49329  0.96368  1.0000
  C   C1830     1.0  0.38057  0.58204  0.97371  1.0000
  H   H3109     1.0  0.30238  0.72509  0.78959  1.0000
  H   H3110     1.0  0.47248  0.63170  0.91981  1.0000
  C   C1831     1.0  0.29905  0.73123  0.79951  1.0000
  C   C1832     1.0  0.24160  0.65778  0.87176  1.0000
  S   S538      1.0  0.35023  0.91966  0.44830  1.0000
  H   H3111     1.0  0.28206  0.96116  0.43950  1.0000
  Fe  Fe273     1.0  0.30252  0.90395  0.39827  1.0000
  S   S539      1.0  0.28091  0.91118  0.38793  1.0000
  S   S540      1.0  0.29954  0.90064  0.42462  1.0000
  Fe  Fe274     1.0  0.32486  0.90326  0.36639  1.0000
  S   S541      1.0  0.30539  0.91056  0.35354  1.0000
  S   S542      1.0  0.34945  0.90064  0.35182  1.0000
  Fe  Fe275     1.0  0.29443  0.92758  0.36923  1.0000
  S   S543      1.0  0.28578  0.95300  0.35891  1.0000
  Fe  Fe276     1.0  0.29376  0.89341  0.37302  1.0000
  S   S544      1.0  0.28543  0.87470  0.36717  1.0000
  S   S545      1.0  0.31494  0.92172  0.38062  1.0000
  S   S546      1.0  0.31432  0.88472  0.38492  1.0000
  Fe  Fe277     1.0  0.36070  0.88194  0.27620  1.0000
  S   S547      1.0  0.37295  0.87573  0.25279  1.0000
  S   S548      1.0  0.35436  0.86527  0.29912  1.0000
  Fe  Fe278     1.0  0.35374  0.91693  0.26265  1.0000
  S   S549      1.0  0.36522  0.91395  0.23810  1.0000
  S   S550      1.0  0.34213  0.93938  0.27096  1.0000
  Fe  Fe279     1.0  0.35300  0.89393  0.24396  1.0000
  S   S551      1.0  0.33850  0.89317  0.22760  1.0000
  Fe  Fe280     1.0  0.38421  0.89622  0.24904  1.0000
  S   S552      1.0  0.40942  0.89784  0.23711  1.0000
  S   S553      1.0  0.33997  0.89845  0.26765  1.0000
  S   S554      1.0  0.37352  0.90081  0.27316  1.0000
  C   C1833     1.0  0.27778  0.78026  0.15601  1.0000
  H   H3112     1.0  0.45740  0.95480  0.31475  1.0000
  S   S555      1.0  0.45616  0.89323  0.28006  1.0000
  C   C1834     1.0  0.29536  0.74185  0.20667  1.0000
  H   H3113     1.0  0.29297  0.84139  0.41711  1.0000
  H   H3114     1.0  0.47079  0.90192  0.44015  1.0000
  C   C1835     1.0  0.24923  0.85308  0.16631  1.0000
  H   H3115     1.0  0.27855  0.91096  0.15721  1.0000
  H   H3116     1.0  0.30956  0.95829  0.42630  1.0000
  H   H3117     1.0  0.32689  0.73989  0.19581  1.0000
  C   C1836     1.0  0.28120  0.77155  0.22106  1.0000
  C   C1837     1.0  0.26381  0.85562  0.43411  1.0000
  H   H3118     1.0  0.28778  0.90352  0.12191  1.0000
  Fe  Fe281     1.0  0.27397  0.81230  0.23203  1.0000
  S   S556      1.0  0.29839  0.80559  0.21809  1.0000
  S   S557      1.0  0.26543  0.79471  0.25321  1.0000
  Fe  Fe282     1.0  0.26812  0.84419  0.21066  1.0000
  S   S558      1.0  0.29232  0.84030  0.19513  1.0000
  H   H3119     1.0  0.28214  0.74583  0.07384  1.0000
  Fe  Fe283     1.0  0.28779  0.81658  0.19688  1.0000
  S   S559      1.0  0.29453  0.80601  0.17533  1.0000
  Fe  Fe284     1.0  0.30046  0.82976  0.21788  1.0000
  S   S560      1.0  0.32226  0.83029  0.22526  1.0000
  S   S561      1.0  0.26308  0.82122  0.21104  1.0000
  S   S562      1.0  0.27650  0.83574  0.23327  1.0000
  H   H3120     1.0  0.47527  0.82765  0.28376  1.0000
  H   H3121     1.0  0.28214  0.93270  0.11606  1.0000
  C   C1838     1.0  0.26658  0.88171  0.12774  1.0000
  H   H3122     1.0  0.29218  0.87644  0.41403  1.0000
  H   H3123     1.0  0.28376  0.73973  0.18942  1.0000
  H   H3124     1.0  0.32473  0.96518  0.38774  1.0000
  S   S563      1.0  0.25527  0.81708  0.31595  1.0000
  H   H3125     1.0  0.34764  0.96748  0.42182  1.0000
  H   H3126     1.0  0.24931  0.82778  0.04153  1.0000
  C   C1839     1.0  0.24858  0.88384  0.40644  1.0000
  H   H3127     1.0  0.44660  0.91910  0.44401  1.0000
  H   H3128     1.0  0.26942  0.93309  0.13484  1.0000
  C   C1840     1.0  0.26104  0.79296  0.04471  1.0000
  C   C1841     1.0  0.27031  0.78746  0.05598  1.0000
  C   C1842     1.0  0.26389  0.78079  0.07149  1.0000
  C   C1843     1.0  0.30452  0.75659  0.04690  1.0000
  H   H3129     1.0  0.26608  0.79821  0.03275  1.0000
  H   H3130     1.0  0.28245  0.78859  0.05269  1.0000
  H   H3131     1.0  0.27373  0.86574  0.25095  1.0000
  C   C1844     1.0  0.28666  0.78962  0.15834  1.0000
  H   H3132     1.0  0.42322  0.90872  0.45522  1.0000
  H   H3133     1.0  0.29740  0.79156  0.14989  1.0000
  C   C1845     1.0  0.26292  0.80137  0.27032  1.0000
  C   C1846     1.0  0.47019  0.89697  0.45295  1.0000
  S   S564      1.0  0.25760  0.73907  0.10792  1.0000
  C   C1847     1.0  0.25831  0.81135  0.29823  1.0000
  C   C1848     1.0  0.26666  0.79614  0.29690  1.0000
  C   C1849     1.0  0.26867  0.79105  0.28309  1.0000
  H   H3134     1.0  0.34758  0.92739  0.37897  1.0000
  H   H3135     1.0  0.25458  0.92326  0.16073  1.0000
  H   H3136     1.0  0.27131  0.78818  0.30670  1.0000
  H   H3137     1.0  0.27485  0.77917  0.28223  1.0000
  C   C1850     1.0  0.31128  0.73874  0.05102  1.0000
  N   N130      1.0  0.30497  0.75234  0.20826  1.0000
  N   N131      1.0  0.29990  0.84002  0.27414  1.0000
  H   H3138     1.0  0.48055  0.92409  0.43661  1.0000
  H   H3139     1.0  0.30164  0.86341  0.27459  1.0000
  H   H3140     1.0  0.24737  0.80856  0.15614  1.0000
  C   C1851     1.0  0.36683  0.98014  0.24768  1.0000
  H   H3141     1.0  0.27520  0.86785  0.26945  1.0000
  H   H3142     1.0  0.47699  0.91904  0.46594  1.0000
  H   H3143     1.0  0.27193  0.75291  0.20138  1.0000
  C   C1852     1.0  0.29596  0.85290  0.41098  1.0000
  H   H3144     1.0  0.26827  0.91288  0.11981  1.0000
  H   H3145     1.0  0.32309  0.95451  0.36716  1.0000
  H   H3146     1.0  0.29097  0.87071  0.25225  1.0000
  H   H3147     1.0  0.33013  0.75889  0.17083  1.0000
  H   H3148     1.0  0.29157  0.75929  0.04823  1.0000
  S   S565      1.0  0.47643  0.92833  0.27490  1.0000
  H   H3149     1.0  0.28009  0.87869  0.44688  1.0000
  C   C1853     1.0  0.27811  0.84930  0.29728  1.0000
  H   H3150     1.0  0.29125  0.95715  0.47646  1.0000
  S   S566      1.0  0.27984  0.74794  0.12635  1.0000
  C   C1854     1.0  0.32625  0.84790  0.22626  1.0000
  C   C1855     1.0  0.31727  0.86254  0.22054  1.0000
  C   C1856     1.0  0.32104  0.87635  0.22120  1.0000
  C   C1857     1.0  0.33353  0.87560  0.22793  1.0000
  C   C1858     1.0  0.34227  0.86094  0.23402  1.0000
  C   C1859     1.0  0.33876  0.84714  0.23299  1.0000
  H   H3151     1.0  0.30763  0.86324  0.21532  1.0000
  H   H3152     1.0  0.31429  0.88767  0.21641  1.0000
  H   H3153     1.0  0.35194  0.86023  0.23920  1.0000
  H   H3154     1.0  0.34575  0.83582  0.23744  1.0000
  C   C1860     1.0  0.42227  0.89684  0.24911  1.0000
  C   C1861     1.0  0.43617  0.90248  0.24237  1.0000
  C   C1862     1.0  0.29676  0.88047  0.31788  1.0000
  C   C1863     1.0  0.44336  0.89496  0.26779  1.0000
  C   C1864     1.0  0.42955  0.88919  0.27447  1.0000
  C   C1865     1.0  0.41897  0.89028  0.26523  1.0000
  C   C1866     1.0  0.31820  0.92245  0.31205  1.0000
  H   H3155     1.0  0.42698  0.88389  0.28690  1.0000
  H   H3156     1.0  0.40842  0.88571  0.27053  1.0000
  C   C1867     1.0  0.35160  0.95501  0.26170  1.0000
  C   C1868     1.0  0.36287  0.95472  0.24761  1.0000
  H   H3157     1.0  0.38756  0.97110  0.43110  1.0000
  H   H3158     1.0  0.24306  0.77441  0.08772  1.0000
  S   S567      1.0  0.24369  0.76893  0.12551  1.0000
  H   H3159     1.0  0.45969  0.94213  0.30215  1.0000
  H   H3160     1.0  0.36579  0.94482  0.24214  1.0000
  H   H3161     1.0  0.27339  0.88000  0.39842  1.0000
  C   C1869     1.0  0.27958  0.92576  0.12832  1.0000
  S   S568      1.0  0.39752  0.93768  0.47733  1.0000
  C   C1870     1.0  0.26778  0.87742  0.36102  1.0000
  H   H3162     1.0  0.32090  0.96406  0.46657  1.0000
  H   H3163     1.0  0.26575  0.90310  0.32387  1.0000
  H   H3164     1.0  0.37632  0.96716  0.45970  1.0000
  C   C1871     1.0  0.28422  0.74900  0.19504  1.0000
  C   C1872     1.0  0.26560  0.86548  0.35525  1.0000
  H   H3165     1.0  0.25742  0.90022  0.36641  1.0000
  H   H3166     1.0  0.26751  0.74038  0.06023  1.0000
  C   C1873     1.0  0.31573  0.95675  0.46215  1.0000
  H   H3167     1.0  0.27474  0.85494  0.35454  1.0000
  C   C1874     1.0  0.28694  0.96319  0.37225  1.0000
  H   H3168     1.0  0.29375  0.85622  0.39892  1.0000
  H   H3169     1.0  0.24387  0.93114  0.14516  1.0000
  N   N132      1.0  0.26964  0.86977  0.42341  1.0000
  H   H3170     1.0  0.38559  0.91098  0.20493  1.0000
  C   C1875     1.0  0.28748  0.95510  0.38768  1.0000
  H   H3171     1.0  0.28298  0.82746  0.29082  1.0000
  C   C1876     1.0  0.46570  0.84442  0.29867  1.0000
  H   H3172     1.0  0.25223  0.81326  0.06815  1.0000
  H   H3173     1.0  0.28591  0.94315  0.39160  1.0000
  C   C1877     1.0  0.35148  0.88968  0.33791  1.0000
  C   C1878     1.0  0.34032  0.88099  0.33950  1.0000
  C   C1879     1.0  0.34165  0.87286  0.32791  1.0000
  C   C1880     1.0  0.35388  0.87377  0.31452  1.0000
  C   C1881     1.0  0.36528  0.88207  0.31318  1.0000
  C   C1882     1.0  0.36414  0.88994  0.32491  1.0000
  H   H3174     1.0  0.33070  0.88045  0.34970  1.0000
  H   H3175     1.0  0.33305  0.86612  0.32920  1.0000
  H   H3176     1.0  0.37517  0.88216  0.30327  1.0000
  H   H3177     1.0  0.37297  0.89635  0.32383  1.0000
  C   C1883     1.0  0.33597  0.91401  0.44233  1.0000
  C   C1884     1.0  0.33793  0.91465  0.42627  1.0000
  C   C1885     1.0  0.32682  0.91064  0.42077  1.0000
  C   C1886     1.0  0.31356  0.90598  0.43129  1.0000
  C   C1887     1.0  0.31150  0.90544  0.44738  1.0000
  C   C1888     1.0  0.32267  0.90946  0.45292  1.0000
  H   H3178     1.0  0.32866  0.91093  0.40841  1.0000
  H   H3179     1.0  0.30128  0.90184  0.45560  1.0000
  H   H3180     1.0  0.32103  0.90898  0.46531  1.0000
  H   H3181     1.0  0.25622  0.84424  0.15975  1.0000
  H   H3182     1.0  0.34818  0.91817  0.41802  1.0000
  C   C1889     1.0  0.30736  0.95411  0.43931  1.0000
  H   H3183     1.0  0.32759  0.75861  0.19798  1.0000
  H   H3184     1.0  0.46519  0.88645  0.45522  1.0000
  H   H3185     1.0  0.44319  0.95821  0.30267  1.0000
  C   C1890     1.0  0.26813  0.79347  0.18264  1.0000
  C   C1891     1.0  0.33194  0.96197  0.36365  1.0000
  C   C1892     1.0  0.33928  0.96083  0.43072  1.0000
  H   H3186     1.0  0.24613  0.88372  0.39513  1.0000
  C   C1893     1.0  0.38212  0.96470  0.28936  1.0000
  H   H3187     1.0  0.36329  0.93968  0.29365  1.0000
  H   H3188     1.0  0.46963  0.84766  0.26126  1.0000
  H   H3189     1.0  0.32551  0.97409  0.35914  1.0000
  C   C1894     1.0  0.27638  0.91005  0.12795  1.0000
  H   H3190     1.0  0.36354  0.95984  0.36080  1.0000
  H   H3191     1.0  0.26773  0.87568  0.15193  1.0000
  N   N133      1.0  0.27007  0.89996  0.14350  1.0000
  C   C1895     1.0  0.40589  0.93580  0.29406  1.0000
  H   H3192     1.0  0.32012  0.97999  0.42501  1.0000
  H   H3193     1.0  0.39697  0.93906  0.30445  1.0000
  H   H3194     1.0  0.26440  0.79835  0.19301  1.0000
  C   C1896     1.0  0.37327  0.92985  0.29649  1.0000
  H   H3195     1.0  0.33005  0.91880  0.31489  1.0000
  H   H3196     1.0  0.36507  0.93542  0.37062  1.0000
  H   H3197     1.0  0.25214  0.82902  0.10945  1.0000
  H   H3198     1.0  0.24810  0.89628  0.40617  1.0000
  H   H3199     1.0  0.31556  0.75450  0.22615  1.0000
  H   H3200     1.0  0.27619  0.87662  0.17230  1.0000
  H   H3201     1.0  0.24355  0.84919  0.45185  1.0000
  H   H3202     1.0  0.26693  0.85182  0.29332  1.0000
  H   H3203     1.0  0.47045  0.87411  0.24362  1.0000
  C   C1897     1.0  0.30328  0.94984  0.47575  1.0000
  H   H3204     1.0  0.34167  0.97273  0.37683  1.0000
  C   C1898     1.0  0.25588  0.89096  0.36196  1.0000
  C   C1899     1.0  0.31340  0.90776  0.31096  1.0000
  H   H3205     1.0  0.29213  0.77451  0.19664  1.0000
  C   C1900     1.0  0.28200  0.79608  0.17177  1.0000
  C   C1901     1.0  0.25504  0.81680  0.27141  1.0000
  H   H3206     1.0  0.26802  0.83207  0.05188  1.0000
  N   N134      1.0  0.34558  0.95641  0.35097  1.0000
  H   H3207     1.0  0.25060  0.82480  0.26153  1.0000
  H   H3208     1.0  0.27586  0.82137  0.06867  1.0000
  H   H3209     1.0  0.49090  0.98029  0.30024  1.0000
  C   C1902     1.0  0.24811  0.77953  0.07571  1.0000
  H   H3210     1.0  0.43693  0.92477  0.46212  1.0000
  C   C1903     1.0  0.26563  0.83024  0.06486  1.0000
  H   H3211     1.0  0.46837  0.85438  0.30154  1.0000
  H   H3212     1.0  0.32222  0.90289  0.30123  1.0000
  H   H3213     1.0  0.31538  0.89882  0.32184  1.0000
  H   H3214     1.0  0.28016  0.83936  0.26529  1.0000
  C   C1904     1.0  0.28741  0.86580  0.42044  1.0000
  C   C1905     1.0  0.34789  0.96789  0.26871  1.0000
  H   H3215     1.0  0.46263  0.83595  0.30990  1.0000
  C   C1906     1.0  0.43364  0.90280  0.46053  1.0000
  C   C1907     1.0  0.31148  0.82523  0.27048  1.0000
  H   H3216     1.0  0.43964  0.89239  0.45535  1.0000
  H   H3217     1.0  0.24491  0.85314  0.05293  1.0000
  H   H3218     1.0  0.24895  0.78156  0.18917  1.0000
  C   C1908     1.0  0.28975  0.84591  0.26207  1.0000
  H   H3219     1.0  0.32725  0.98042  0.44121  1.0000
  H   H3220     1.0  0.34955  0.95764  0.32589  1.0000
  C   C1909     1.0  0.30929  0.85190  0.27283  1.0000
  C   C1910     1.0  0.32045  0.84731  0.28428  1.0000
  H   H3221     1.0  0.32028  0.82805  0.25935  1.0000
  H   H3222     1.0  0.31838  0.81958  0.27977  1.0000
  H   H3223     1.0  0.41683  0.85672  0.21771  1.0000
  H   H3224     1.0  0.31651  0.85449  0.26067  1.0000
  H   H3225     1.0  0.31414  0.80227  0.26579  1.0000
  H   H3226     1.0  0.31409  0.84486  0.29675  1.0000
  H   H3227     1.0  0.33023  0.83721  0.28183  1.0000
  H   H3228     1.0  0.29904  0.74558  0.23378  1.0000
  H   H3229     1.0  0.28017  0.89057  0.18028  1.0000
  H   H3230     1.0  0.30381  0.77651  0.20809  1.0000
  H   H3231     1.0  0.33750  0.95221  0.42511  1.0000
  H   H3232     1.0  0.26159  0.87251  0.45591  1.0000
  H   H3233     1.0  0.26343  0.84561  0.18350  1.0000
  C   C1911     1.0  0.32488  0.95916  0.33493  1.0000
  H   H3234     1.0  0.28707  0.88130  0.32842  1.0000
  H   H3235     1.0  0.26242  0.89277  0.45119  1.0000
  C   C1912     1.0  0.29068  0.95077  0.44419  1.0000
  H   H3236     1.0  0.26609  0.86262  0.40383  1.0000
  C   C1913     1.0  0.35944  0.96322  0.34965  1.0000
  C   C1914     1.0  0.29599  0.76909  0.20778  1.0000
  H   H3237     1.0  0.40792  0.86582  0.23398  1.0000
  H   H3238     1.0  0.25294  0.75624  0.31548  1.0000
  H   H3239     1.0  0.36718  0.98004  0.43533  1.0000
  N   N135      1.0  0.48763  0.84661  0.27342  1.0000
  H   H3240     1.0  0.29652  0.80761  0.27975  1.0000
  H   H3241     1.0  0.30960  0.76128  0.03437  1.0000
  C   C1915     1.0  0.31041  0.73667  0.07853  1.0000
  H   H3242     1.0  0.45723  0.90619  0.24643  1.0000
  H   H3243     1.0  0.28590  0.87811  0.13875  1.0000
  S   S569      1.0  0.35596  0.94409  0.47228  1.0000
  Fe  Fe285     1.0  0.47781  0.90373  0.27324  1.0000
  H   H3244     1.0  0.25117  0.88871  0.43194  1.0000
  H   H3245     1.0  0.37581  0.97667  0.28445  1.0000
  H   H3246     1.0  0.35758  0.93445  0.34335  1.0000
  H   H3247     1.0  0.33912  0.93411  0.35555  1.0000
  H   H3248     1.0  0.46102  0.93690  0.43821  1.0000
  H   H3249     1.0  0.32565  0.94657  0.46011  1.0000
  H   H3250     1.0  0.29179  0.89430  0.15148  1.0000
  H   H3251     1.0  0.24346  0.84701  0.02986  1.0000
  H   H3252     1.0  0.31007  0.92826  0.32139  1.0000
  H   H3253     1.0  0.42527  0.91513  0.29100  1.0000
  H   H3254     1.0  0.43882  0.90756  0.22990  1.0000
  C   C1916     1.0  0.28852  0.97886  0.36741  1.0000
  H   H3255     1.0  0.29808  0.81625  0.25894  1.0000
  H   H3256     1.0  0.36428  0.91818  0.36599  1.0000
  C   C1917     1.0  0.26426  0.77716  0.16722  1.0000
  C   C1918     1.0  0.29010  0.96237  0.39814  1.0000
  C   C1919     1.0  0.29009  0.83580  0.29047  1.0000
  H   H3257     1.0  0.26887  0.86904  0.12770  1.0000
  C   C1920     1.0  0.25254  0.90559  0.14875  1.0000
  C   C1921     1.0  0.48103  0.97579  0.30899  1.0000
  H   H3258     1.0  0.31167  0.77132  0.17656  1.0000
  S   S570      1.0  0.25347  0.76440  0.16564  1.0000
  N   N136      1.0  0.45950  0.90839  0.46274  1.0000
  C   C1922     1.0  0.37893  0.98075  0.43618  1.0000
  C   C1923     1.0  0.26400  0.88400  0.43068  1.0000
  H   H3259     1.0  0.34311  0.95180  0.38431  1.0000
  H   H3260     1.0  0.28165  0.77506  0.14580  1.0000
  H   H3261     1.0  0.28250  0.86017  0.29453  1.0000
  H   H3262     1.0  0.29747  0.82903  0.29915  1.0000
  C   C1924     1.0  0.44661  0.90172  0.25171  1.0000
  C   C1925     1.0  0.24616  0.82977  0.12177  1.0000
  C   C1926     1.0  0.30439  0.81228  0.26872  1.0000
  H   H3263     1.0  0.26937  0.89386  0.42278  1.0000
  H   H3264     1.0  0.28670  0.94699  0.45704  1.0000
  H   H3265     1.0  0.29078  0.95586  0.40996  1.0000
  H   H3266     1.0  0.25084  0.81910  0.08553  1.0000
  C   C1927     1.0  0.25939  0.78394  0.18044  1.0000
  N   N137      1.0  0.29681  0.91011  0.30903  1.0000
  C   C1928     1.0  0.28554  0.91285  0.32425  1.0000
  C   C1929     1.0  0.29534  0.89564  0.30492  1.0000
  C   C1930     1.0  0.29293  0.92415  0.29611  1.0000
  C   C1931     1.0  0.26800  0.91410  0.32499  1.0000
  C   C1932     1.0  0.30399  0.92394  0.27980  1.0000
  H   H3267     1.0  0.28883  0.90341  0.33437  1.0000
  H   H3268     1.0  0.28614  0.92392  0.32688  1.0000
  H   H3269     1.0  0.30468  0.89284  0.29453  1.0000
  H   H3270     1.0  0.28098  0.92538  0.29427  1.0000
  H   H3271     1.0  0.29265  0.93520  0.29940  1.0000
  H   H3272     1.0  0.26109  0.91631  0.33667  1.0000
  H   H3273     1.0  0.26321  0.92417  0.31622  1.0000
  H   H3274     1.0  0.29072  0.94107  0.43889  1.0000
  H   H3275     1.0  0.31915  0.93121  0.30077  1.0000
  H   H3276     1.0  0.29606  0.87059  0.31330  1.0000
  H   H3277     1.0  0.31625  0.92350  0.27999  1.0000
  H   H3278     1.0  0.30015  0.93495  0.27140  1.0000
  H   H3279     1.0  0.30376  0.91403  0.27501  1.0000
  N   N138      1.0  0.39885  0.93922  0.27988  1.0000
  C   C1933     1.0  0.41219  0.93539  0.26625  1.0000
  H   H3280     1.0  0.31569  0.94257  0.44126  1.0000
  C   C1934     1.0  0.39140  0.95649  0.27570  1.0000
  C   C1935     1.0  0.38721  0.92926  0.28214  1.0000
  C   C1936     1.0  0.40789  0.93969  0.24999  1.0000
  H   H3281     1.0  0.39272  0.97589  0.45361  1.0000
  H   H3282     1.0  0.42187  0.94133  0.26502  1.0000
  H   H3283     1.0  0.41754  0.92262  0.26828  1.0000
  H   H3284     1.0  0.41463  0.94319  0.29172  1.0000
  H   H3285     1.0  0.40047  0.96343  0.26884  1.0000
  H   H3286     1.0  0.38327  0.95842  0.26786  1.0000
  H   H3287     1.0  0.38166  0.93273  0.27181  1.0000
  H   H3288     1.0  0.39316  0.91673  0.28226  1.0000
  H   H3289     1.0  0.40310  0.95244  0.24622  1.0000
  H   H3290     1.0  0.41876  0.93660  0.24105  1.0000
  H   H3291     1.0  0.39962  0.93285  0.24958  1.0000
  H   H3292     1.0  0.40647  0.91026  0.30174  1.0000
  H   H3293     1.0  0.27552  0.84574  0.31034  1.0000
  N   N139      1.0  0.39338  0.87841  0.19932  1.0000
  C   C1937     1.0  0.39992  0.87927  0.21264  1.0000
  C   C1938     1.0  0.39055  0.89476  0.18917  1.0000
  C   C1939     1.0  0.40585  0.86758  0.18996  1.0000
  C   C1940     1.0  0.37851  0.87216  0.20618  1.0000
  C   C1941     1.0  0.40555  0.86345  0.22354  1.0000
  C   C1942     1.0  0.37948  0.90760  0.19770  1.0000
  C   C1943     1.0  0.40231  0.86550  0.17508  1.0000
  C   C1944     1.0  0.36666  0.87613  0.19543  1.0000
  H   H3294     1.0  0.41004  0.88525  0.20806  1.0000
  H   H3295     1.0  0.39100  0.88655  0.22045  1.0000
  H   H3296     1.0  0.38560  0.89530  0.17910  1.0000
  H   H3297     1.0  0.40192  0.89856  0.18371  1.0000
  H   H3298     1.0  0.41719  0.87157  0.18631  1.0000
  H   H3299     1.0  0.40828  0.85548  0.19725  1.0000
  H   H3300     1.0  0.38139  0.85916  0.21034  1.0000
  H   H3301     1.0  0.37180  0.87689  0.21681  1.0000
  H   H3302     1.0  0.39656  0.85618  0.22794  1.0000
  H   H3303     1.0  0.37592  0.91835  0.18887  1.0000
  H   H3304     1.0  0.36858  0.90399  0.20522  1.0000
  H   H3305     1.0  0.41301  0.85834  0.16881  1.0000
  H   H3306     1.0  0.39944  0.87674  0.16663  1.0000
  H   H3307     1.0  0.39294  0.85878  0.17813  1.0000
  H   H3308     1.0  0.36035  0.86640  0.19861  1.0000
  H   H3309     1.0  0.37177  0.87780  0.18270  1.0000
  H   H3310     1.0  0.35735  0.88663  0.19774  1.0000
  H   H3311     1.0  0.26744  0.84571  0.42797  1.0000
  Fe  Fe286     1.0  0.25756  0.75489  0.14382  1.0000
  H   H3312     1.0  0.28399  0.89762  0.30138  1.0000
  H   H3313     1.0  0.28438  0.77043  0.23237  1.0000
  H   H3314     1.0  0.26540  0.84124  0.06796  1.0000
  C   C1945     1.0  0.47529  0.85575  0.26400  1.0000
  H   H3315     1.0  0.30820  0.87724  0.32142  1.0000
  H   H3316     1.0  0.33949  0.98173  0.22683  1.0000
  H   H3317     1.0  0.46561  0.86334  0.27090  1.0000
  C   C1946     1.0  0.27901  0.89917  0.15560  1.0000
  H   H3318     1.0  0.29011  0.92388  0.13318  1.0000
  C   C1947     1.0  0.46636  0.92235  0.46093  1.0000
  C   C1948     1.0  0.25164  0.86703  0.35044  1.0000
  C   C1949     1.0  0.27359  0.88934  0.17215  1.0000
  H   H3319     1.0  0.31467  0.96517  0.34277  1.0000
  N   N140      1.0  0.31058  0.96539  0.44702  1.0000
  H   H3320     1.0  0.30762  0.76306  0.05395  1.0000
  Fe  Fe287     1.0  0.26527  0.76031  0.10826  1.0000
  H   H3321     1.0  0.27422  0.78372  0.21811  1.0000
  C   C1950     1.0  0.28203  0.86358  0.25874  1.0000
  H   H3322     1.0  0.29683  0.84368  0.25039  1.0000
  C   C1951     1.0  0.44430  0.91459  0.45698  1.0000
  C   C1952     1.0  0.41420  0.91858  0.29950  1.0000
  H   H3323     1.0  0.37634  0.93051  0.30723  1.0000
  S   S571      1.0  0.27568  0.77487  0.08541  1.0000
  H   H3324     1.0  0.36909  0.91873  0.29972  1.0000
  H   H3325     1.0  0.32279  0.96382  0.32281  1.0000
  C   C1953     1.0  0.27304  0.88345  0.14112  1.0000
  H   H3326     1.0  0.41762  0.91727  0.31074  1.0000
  H   H3327     1.0  0.32601  0.85731  0.28269  1.0000
  C   C1954     1.0  0.25058  0.82381  0.07286  1.0000
  H   H3328     1.0  0.24618  0.83356  0.28641  1.0000
  H   H3329     1.0  0.25545  0.82957  0.12771  1.0000
  C   C1955     1.0  0.34975  0.93872  0.35387  1.0000
  C   C1956     1.0  0.34051  0.96258  0.33543  1.0000
  C   C1957     1.0  0.25332  0.85386  0.17981  1.0000
  C   C1958     1.0  0.31994  0.75211  0.19568  1.0000
  C   C1959     1.0  0.35694  0.92970  0.36826  1.0000
  C   C1960     1.0  0.33586  0.96282  0.37890  1.0000
  H   H3330     1.0  0.30887  0.85127  0.40958  1.0000
  H   H3331     1.0  0.35593  0.97626  0.34739  1.0000
  C   C1961     1.0  0.32388  0.97251  0.43592  1.0000
  C   C1962     1.0  0.29646  0.97872  0.44942  1.0000
  H   H3332     1.0  0.24958  0.95642  0.12377  1.0000
  H   H3333     1.0  0.47504  0.97783  0.25713  1.0000
  H   H3334     1.0  0.25007  0.85772  0.34609  1.0000
  H   H3335     1.0  0.27346  0.76343  0.22266  1.0000
  H   H3336     1.0  0.42892  0.89904  0.47333  1.0000
  H   H3337     1.0  0.37310  0.95861  0.29763  1.0000
  C   C1963     1.0  0.24461  0.86542  0.18823  1.0000
  H   H3338     1.0  0.26090  0.89339  0.17712  1.0000
  H   H3339     1.0  0.48802  0.82832  0.29489  1.0000
  H   H3340     1.0  0.46360  0.96298  0.27849  1.0000
  C   C1964     1.0  0.26507  0.87356  0.40772  1.0000
  H   H3341     1.0  0.45785  0.93081  0.46778  1.0000
  H   H3342     1.0  0.33922  0.96811  0.27965  1.0000
  C   C1965     1.0  0.47971  0.83600  0.28756  1.0000
  H   H3343     1.0  0.24854  0.85214  0.08590  1.0000
  S   S572      1.0  0.24964  0.86597  0.20537  1.0000
  H   H3344     1.0  0.26957  0.85086  0.44435  1.0000
  H   H3345     1.0  0.42481  0.94889  0.47508  1.0000
  H   H3346     1.0  0.32505  0.94643  0.33782  1.0000
  H   H3347     1.0  0.45503  0.84873  0.29360  1.0000
  C   C1966     1.0  0.37033  0.96739  0.24050  1.0000
  H   H3348     1.0  0.30330  0.93780  0.47507  1.0000
  H   H3349     1.0  0.28570  0.97452  0.45635  1.0000
  Fe  Fe288     1.0  0.35054  0.92129  0.47275  1.0000
  C   C1967     1.0  0.30962  0.74625  0.22400  1.0000
  H   H3350     1.0  0.37906  0.96714  0.22960  1.0000
  H   H3351     1.0  0.37175  0.96457  0.32481  1.0000
  H   H3352     1.0  0.27242  0.88759  0.11598  1.0000
  H   H3353     1.0  0.28765  0.75868  0.18535  1.0000
  H   H3354     1.0  0.38372  0.96369  0.33773  1.0000
  H   H3355     1.0  0.47835  0.95876  0.28930  1.0000
  C   C1968     1.0  0.48091  0.86687  0.24833  1.0000
  C   C1969     1.0  0.26733  0.88157  0.44709  1.0000
  C   C1970     1.0  0.37403  0.95897  0.33673  1.0000
  C   C1971     1.0  0.31821  0.75893  0.17854  1.0000
  C   C1972     1.0  0.24587  0.85754  0.44035  1.0000
  H   H3356     1.0  0.24790  0.80492  0.13086  1.0000
  H   H3357     1.0  0.47611  0.94136  0.44417  1.0000
  H   H3358     1.0  0.34512  0.95454  0.44065  1.0000
  H   H3359     1.0  0.31294  0.75153  0.17443  1.0000
  C   C1973     1.0  0.46574  0.96448  0.28944  1.0000
  H   H3360     1.0  0.30471  0.74926  0.07829  1.0000
  H   H3361     1.0  0.48706  0.87515  0.24988  1.0000
  C   C1974     1.0  0.45579  0.95461  0.30313  1.0000
  H   H3362     1.0  0.39015  0.96628  0.29584  1.0000
  C   C1975     1.0  0.29204  0.97785  0.39332  1.0000
  H   H3363     1.0  0.33928  0.97558  0.33171  1.0000
  C   C1976     1.0  0.47118  0.93152  0.44392  1.0000
  H   H3364     1.0  0.29156  0.86184  0.43165  1.0000
  C   C1977     1.0  0.24514  0.79223  0.04895  1.0000
  H   H3365     1.0  0.48801  0.87976  0.46487  1.0000
  H   H3366     1.0  0.37832  0.94610  0.33796  1.0000
  H   H3367     1.0  0.48454  0.86825  0.28060  1.0000
  H   H3368     1.0  0.34770  0.97883  0.45756  1.0000
  C   C1978     1.0  0.25251  0.82173  0.28547  1.0000
  C   C1979     1.0  0.24657  0.92094  0.15485  1.0000
  H   H3369     1.0  0.48841  0.86036  0.23922  1.0000
  H   H3370     1.0  0.24254  0.78313  0.31816  1.0000
  H   H3371     1.0  0.48336  0.96283  0.31073  1.0000
  H   H3372     1.0  0.25367  0.88610  0.12948  1.0000
  C   C1980     1.0  0.24181  0.89243  0.35733  1.0000
  C   C1981     1.0  0.38001  0.97841  0.45343  1.0000
  H   H3373     1.0  0.24662  0.90750  0.13894  1.0000
  N   N141      1.0  0.46273  0.98165  0.28959  1.0000
  H   H3374     1.0  0.48678  0.98232  0.27711  1.0000
  H   H3375     1.0  0.32333  0.73614  0.07480  1.0000
  H   H3376     1.0  0.24725  0.89638  0.15787  1.0000
  C   C1982     1.0  0.35559  0.98035  0.26179  1.0000
  C   C1983     1.0  0.48721  0.89052  0.45534  1.0000
  H   H3377     1.0  0.32434  0.73686  0.04875  1.0000
  H   H3378     1.0  0.28766  0.73796  0.21828  1.0000
  H   H3379     1.0  0.45601  0.97963  0.31497  1.0000
  H   H3380     1.0  0.48102  0.97829  0.32032  1.0000
  H   H3381     1.0  0.43173  0.98034  0.30966  1.0000
  C   C1984     1.0  0.46492  0.98393  0.30468  1.0000
  C   C1985     1.0  0.45558  0.90031  0.47989  1.0000
  H   H3382     1.0  0.31120  0.73423  0.10289  1.0000
  H   H3383     1.0  0.27929  0.86843  0.58302  1.0000
  S   S573      1.0  0.44512  0.91992  0.52240  1.0000
  H   H3384     1.0  0.28458  0.90982  0.77181  1.0000
  H   H3385     1.0  0.44278  0.97065  0.54038  1.0000
  H   H3386     1.0  0.41334  0.95167  0.75290  1.0000
  N   N142      1.0  0.31037  0.97695  0.67215  1.0000
  H   H3387     1.0  0.29401  0.86533  0.60101  1.0000
  H   H3388     1.0  0.33627  0.94408  0.58281  1.0000
  H   H3389     1.0  0.26397  0.87994  0.71735  1.0000
  H   H3390     1.0  0.25751  0.80749  0.84754  1.0000
  Fe  Fe289     1.0  0.35171  0.90953  0.50742  1.0000
  S   S574      1.0  0.34988  0.88890  0.52804  1.0000
  H   H3391     1.0  0.39745  0.91689  0.55160  1.0000
  H   H3392     1.0  0.29405  0.75657  0.80023  1.0000
  Fe  Fe290     1.0  0.30656  0.90628  0.61390  1.0000
  S   S575      1.0  0.28840  0.92683  0.60520  1.0000
  S   S576      1.0  0.32250  0.88801  0.60071  1.0000
  Fe  Fe291     1.0  0.29887  0.91355  0.64657  1.0000
  S   S577      1.0  0.27993  0.93454  0.64045  1.0000
  S   S578      1.0  0.30280  0.90733  0.67133  1.0000
  Fe  Fe292     1.0  0.27290  0.91925  0.62891  1.0000
  H   H3393     1.0  0.27640  0.73520  0.78228  1.0000
  S   S579      1.0  0.35785  0.93119  0.50919  1.0000
  S   S580      1.0  0.29054  0.89781  0.63683  1.0000
  S   S581      1.0  0.31660  0.91984  0.62449  1.0000
  Fe  Fe293     1.0  0.37756  0.92832  0.72884  1.0000
  S   S582      1.0  0.35758  0.93441  0.74885  1.0000
  S   S583      1.0  0.40264  0.91929  0.73217  1.0000
  Fe  Fe294     1.0  0.35547  0.93453  0.70677  1.0000
  S   S584      1.0  0.33379  0.94134  0.72480  1.0000
  S   S585      1.0  0.35493  0.93528  0.68187  1.0000
  Fe  Fe295     1.0  0.34836  0.95452  0.73059  1.0000
  Fe  Fe296     1.0  0.34491  0.92057  0.74135  1.0000
  S   S586      1.0  0.33210  0.90298  0.75955  1.0000
  S   S587      1.0  0.36922  0.94953  0.71107  1.0000
  S   S588      1.0  0.36564  0.91269  0.72279  1.0000
  Fe  Fe297     1.0  0.47375  0.95728  0.72408  1.0000
  C   C1986     1.0  0.43148  0.97174  0.53705  1.0000
  S   S589      1.0  0.44896  0.96498  0.71959  1.0000
  H   H3394     1.0  0.25711  0.91905  0.75551  1.0000
  H   H3395     1.0  0.24922  0.89723  0.71859  1.0000
  H   H3396     1.0  0.27515  0.75255  0.82683  1.0000
  H   H3397     1.0  0.29289  0.87348  0.61708  1.0000
  C   C1987     1.0  0.26587  0.73581  0.79206  1.0000
  H   H3398     1.0  0.41130  0.93997  0.78128  1.0000
  S   S590      1.0  0.47878  0.94931  0.74833  1.0000
  H   H3399     1.0  0.36095  0.90128  0.59773  1.0000
  C   C1988     1.0  0.38304  0.95262  0.76936  1.0000
  C   C1989     1.0  0.28496  0.74311  0.83054  1.0000
  C   C1990     1.0  0.25528  0.88792  0.59661  1.0000
  N   N143      1.0  0.43168  0.98123  0.52042  1.0000
  C   C1991     1.0  0.24928  0.88692  0.63760  1.0000
  H   H3400     1.0  0.25421  0.94287  0.78219  1.0000
  H   H3401     1.0  0.27844  0.92888  0.74735  1.0000
  Fe  Fe298     1.0  0.26051  0.83206  0.77630  1.0000
  S   S591      1.0  0.27301  0.83927  0.75109  1.0000
  S   S592      1.0  0.26845  0.81055  0.79437  1.0000
  H   H3402     1.0  0.41640  0.91053  0.52584  1.0000
  H   H3403     1.0  0.26493  0.88542  0.79006  1.0000
  H   H3404     1.0  0.39118  0.92567  0.79846  1.0000
  Fe  Fe299     1.0  0.24898  0.84453  0.74608  1.0000
  H   H3405     1.0  0.27425  0.96968  0.62799  1.0000
  Fe  Fe300     1.0  0.26611  0.86376  0.75533  1.0000
  S   S593      1.0  0.27898  0.88303  0.74130  1.0000
  H   H3406     1.0  0.30037  0.87403  0.55968  1.0000
  S   S594      1.0  0.25604  0.85622  0.78114  1.0000
  H   H3407     1.0  0.41938  0.95364  0.53660  1.0000
  C   C1992     1.0  0.24357  0.88946  0.58641  1.0000
  C   C1993     1.0  0.25786  0.90917  0.79517  1.0000
  C   C1994     1.0  0.33955  0.94704  0.56975  1.0000
  C   C1995     1.0  0.25735  0.89023  0.71011  1.0000
  H   H3408     1.0  0.26580  0.90076  0.76544  1.0000
  C   C1996     1.0  0.24872  0.93518  0.77860  1.0000
  H   H3409     1.0  0.24560  0.87317  0.70917  1.0000
  C   C1997     1.0  0.29584  0.88233  0.56773  1.0000
  C   C1998     1.0  0.41816  0.91903  0.51483  1.0000
  C   C1999     1.0  0.32978  0.97390  0.51076  1.0000
  C   C2000     1.0  0.24755  0.88482  0.70184  1.0000
  C   C2001     1.0  0.29365  0.96010  0.66726  1.0000
  H   H3410     1.0  0.39966  0.93663  0.54435  1.0000
  C   C2002     1.0  0.38495  0.97534  0.77766  1.0000
  H   H3411     1.0  0.45382  0.88832  0.48110  1.0000
  N   N144      1.0  0.38934  0.95761  0.78054  1.0000
  N   N145      1.0  0.36443  0.92487  0.56546  1.0000
  N   N146      1.0  0.27096  0.89182  0.58784  1.0000
  H   H3412     1.0  0.24463  0.84991  0.82666  1.0000
  H   H3413     1.0  0.25400  0.80860  0.82902  1.0000
  H   H3414     1.0  0.36014  0.91335  0.54091  1.0000
  H   H3415     1.0  0.42732  0.94999  0.55355  1.0000
  C   C2003     1.0  0.38744  0.93501  0.76923  1.0000
  S   S595      1.0  0.33729  0.97888  0.73469  1.0000
  H   H3416     1.0  0.24646  0.76623  0.82860  1.0000
  C   C2004     1.0  0.25706  0.78489  0.81298  1.0000
  C   C2005     1.0  0.25775  0.79574  0.79854  1.0000
  C   C2006     1.0  0.40741  0.92292  0.50502  1.0000
  H   H3417     1.0  0.32466  0.95842  0.68633  1.0000
  H   H3418     1.0  0.25685  0.87558  0.60345  1.0000
  H   H3419     1.0  0.26383  0.78503  0.82104  1.0000
  S   S596      1.0  0.33184  0.92187  0.49503  1.0000
  S   S597      1.0  0.48135  0.97828  0.49409  1.0000
  H   H3420     1.0  0.25570  0.89781  0.66143  1.0000
  H   H3421     1.0  0.29628  0.89426  0.56034  1.0000
  C   C2007     1.0  0.30144  0.96127  0.70060  1.0000
  H   H3422     1.0  0.31117  0.97089  0.65029  1.0000
  C   C2008     1.0  0.25657  0.91282  0.67564  1.0000
  H   H3423     1.0  0.34472  0.96868  0.66959  1.0000
  H   H3424     1.0  0.25043  0.80277  0.77649  1.0000
  H   H3425     1.0  0.37762  0.91810  0.58374  1.0000
  H   H3426     1.0  0.42896  0.95342  0.76018  1.0000
  H   H3427     1.0  0.38949  0.98074  0.76523  1.0000
  H   H3428     1.0  0.38103  0.91243  0.53723  1.0000
  N   N147      1.0  0.25944  0.91908  0.77866  1.0000
  C   C2009     1.0  0.34793  0.93224  0.56300  1.0000
  C   C2010     1.0  0.31732  0.89743  0.75453  1.0000
  C   C2011     1.0  0.31069  0.88494  0.76452  1.0000
  C   C2012     1.0  0.29890  0.88026  0.76064  1.0000
  C   C2013     1.0  0.29369  0.88819  0.74681  1.0000
  C   C2014     1.0  0.30017  0.90078  0.73698  1.0000
  C   C2015     1.0  0.31207  0.90530  0.74072  1.0000
  H   H3429     1.0  0.31476  0.87881  0.77521  1.0000
  H   H3430     1.0  0.29390  0.87056  0.76830  1.0000
  H   H3431     1.0  0.29600  0.90703  0.72637  1.0000
  H   H3432     1.0  0.31708  0.91494  0.73299  1.0000
  C   C2016     1.0  0.41536  0.93218  0.72852  1.0000
  C   C2017     1.0  0.43047  0.92608  0.73172  1.0000
  C   C2018     1.0  0.44093  0.93597  0.72897  1.0000
  C   C2019     1.0  0.43637  0.95206  0.72292  1.0000
  C   C2020     1.0  0.42121  0.95821  0.71979  1.0000
  C   C2021     1.0  0.41071  0.94832  0.72263  1.0000
  H   H3433     1.0  0.43413  0.91361  0.73628  1.0000
  H   H3434     1.0  0.45255  0.93113  0.73145  1.0000
  H   H3435     1.0  0.27324  0.94490  0.75749  1.0000
  H   H3436     1.0  0.39910  0.95315  0.72017  1.0000
  S   S598      1.0  0.37005  0.90693  0.48501  1.0000
  H   H3437     1.0  0.25686  0.74628  0.78821  1.0000
  H   H3438     1.0  0.28402  0.96972  0.66330  1.0000
  H   H3439     1.0  0.28932  0.96775  0.69980  1.0000
  H   H3440     1.0  0.26517  0.88608  0.80946  1.0000
  C   C2022     1.0  0.37105  0.90750  0.54526  1.0000
  H   H3441     1.0  0.26185  0.88553  0.63565  1.0000
  C   C2023     1.0  0.38536  0.98278  0.68307  1.0000
  C   C2024     1.0  0.36544  0.92369  0.58207  1.0000
  H   H3442     1.0  0.35329  0.96165  0.53718  1.0000
  C   C2025     1.0  0.31679  0.91599  0.67398  1.0000
  C   C2026     1.0  0.32881  0.92057  0.66144  1.0000
  C   C2027     1.0  0.34041  0.92655  0.66399  1.0000
  C   C2028     1.0  0.34007  0.92798  0.67908  1.0000
  C   C2029     1.0  0.32793  0.92361  0.69161  1.0000
  C   C2030     1.0  0.31625  0.91775  0.68901  1.0000
  H   H3443     1.0  0.32944  0.91914  0.64985  1.0000
  H   H3444     1.0  0.34979  0.92991  0.65425  1.0000
  H   H3445     1.0  0.32756  0.92473  0.70328  1.0000
  H   H3446     1.0  0.30680  0.91450  0.69866  1.0000
  H   H3447     1.0  0.36008  0.90157  0.56965  1.0000
  C   C2031     1.0  0.34127  0.88980  0.54790  1.0000
  C   C2032     1.0  0.33069  0.90309  0.55269  1.0000
  C   C2033     1.0  0.32443  0.90282  0.56892  1.0000
  C   C2034     1.0  0.32910  0.88943  0.58023  1.0000
  C   C2035     1.0  0.33951  0.87629  0.57529  1.0000
  C   C2036     1.0  0.34543  0.87644  0.55929  1.0000
  H   H3448     1.0  0.32731  0.91344  0.54392  1.0000
  H   H3449     1.0  0.31617  0.91295  0.57265  1.0000
  H   H3450     1.0  0.34307  0.86586  0.58390  1.0000
  H   H3451     1.0  0.35349  0.86612  0.55572  1.0000
  H   H3452     1.0  0.33651  0.95181  0.52627  1.0000
  C   C2037     1.0  0.43145  0.92568  0.51022  1.0000
  S   S599      1.0  0.24272  0.86930  0.74880  1.0000
  H   H3453     1.0  0.34353  0.91433  0.59221  1.0000
  C   C2038     1.0  0.24795  0.81051  0.84101  1.0000
  H   H3454     1.0  0.44382  0.94185  0.49236  1.0000
  H   H3455     1.0  0.25323  0.87010  0.66908  1.0000
  H   H3456     1.0  0.29091  0.85881  0.69034  1.0000
  H   H3457     1.0  0.32839  0.95234  0.56560  1.0000
  C   C2039     1.0  0.28074  0.97815  0.62774  1.0000
  H   H3458     1.0  0.25841  0.84421  0.84861  1.0000
  C   C2040     1.0  0.28009  0.93275  0.75725  1.0000
  H   H3459     1.0  0.27688  0.87705  0.66910  1.0000
  C   C2041     1.0  0.27895  0.88090  0.57674  1.0000
  N   N148      1.0  0.34184  0.87141  0.71250  1.0000
  C   C2042     1.0  0.32680  0.87814  0.70652  1.0000
  C   C2043     1.0  0.35098  0.88426  0.70747  1.0000
  C   C2044     1.0  0.33735  0.86664  0.73025  1.0000
  C   C2045     1.0  0.35064  0.85734  0.70553  1.0000
  C   C2046     1.0  0.31477  0.86751  0.71156  1.0000
  C   C2047     1.0  0.35764  0.88905  0.68964  1.0000
  C   C2048     1.0  0.34932  0.86634  0.73965  1.0000
  C   C2049     1.0  0.36710  0.84946  0.70899  1.0000
  H   H3460     1.0  0.32051  0.88921  0.71054  1.0000
  H   H3461     1.0  0.32921  0.88135  0.69345  1.0000
  H   H3462     1.0  0.36128  0.88111  0.71293  1.0000
  H   H3463     1.0  0.34355  0.89500  0.71163  1.0000
  H   H3464     1.0  0.32648  0.87475  0.73493  1.0000
  H   H3465     1.0  0.33436  0.85485  0.73403  1.0000
  H   H3466     1.0  0.34384  0.84790  0.70992  1.0000
  H   H3467     1.0  0.35164  0.86005  0.69256  1.0000
  H   H3468     1.0  0.31922  0.85701  0.70631  1.0000
  H   H3469     1.0  0.31097  0.86394  0.72451  1.0000
  H   H3470     1.0  0.30398  0.87427  0.70716  1.0000
  H   H3471     1.0  0.36381  0.89873  0.68749  1.0000
  H   H3472     1.0  0.36648  0.87928  0.68503  1.0000
  H   H3473     1.0  0.34837  0.89356  0.68273  1.0000
  H   H3474     1.0  0.34497  0.86125  0.75226  1.0000
  H   H3475     1.0  0.35030  0.87843  0.73912  1.0000
  H   H3476     1.0  0.36110  0.85914  0.73582  1.0000
  H   H3477     1.0  0.36627  0.84058  0.72025  1.0000
  H   H3478     1.0  0.37380  0.85786  0.70923  1.0000
  H   H3479     1.0  0.37436  0.84353  0.69932  1.0000
  C   C2050     1.0  0.26946  0.73709  0.80730  1.0000
  H   H3480     1.0  0.28066  0.89187  0.79368  1.0000
  S   S600      1.0  0.47669  0.94078  0.52486  1.0000
  H   H3481     1.0  0.39744  0.91741  0.50842  1.0000
  S   S601      1.0  0.24708  0.91901  0.63263  1.0000
  H   H3482     1.0  0.26536  0.90982  0.56736  1.0000
  S   S602      1.0  0.30506  0.96294  0.60756  1.0000
  C   C2051     1.0  0.37524  0.93508  0.55429  1.0000
  H   H3483     1.0  0.30263  0.94881  0.70039  1.0000
  C   C2052     1.0  0.42293  0.94054  0.48619  1.0000
  H   H3484     1.0  0.26908  0.74963  0.80621  1.0000
  C   C2053     1.0  0.34002  0.97422  0.65881  1.0000
  H   H3485     1.0  0.28053  0.91224  0.57452  1.0000
  C   C2054     1.0  0.30921  0.96565  0.66317  1.0000
  H   H3486     1.0  0.36924  0.95138  0.79859  1.0000
  C   C2055     1.0  0.38949  0.93456  0.80535  1.0000
  C   C2056     1.0  0.26904  0.90856  0.57847  1.0000
  H   H3487     1.0  0.41758  0.97066  0.71518  1.0000
  C   C2057     1.0  0.39298  0.92883  0.55402  1.0000
  H   H3488     1.0  0.29273  0.93316  0.75470  1.0000
  H   H3489     1.0  0.31854  0.97592  0.69293  1.0000
  C   C2058     1.0  0.36904  0.90850  0.56242  1.0000
  H   H3490     1.0  0.38632  0.95926  0.75705  1.0000
  H   H3491     1.0  0.29642  0.74652  0.82494  1.0000
  S   S603      1.0  0.47774  0.93893  0.48849  1.0000
  H   H3492     1.0  0.44031  0.94706  0.53537  1.0000
  H   H3493     1.0  0.38015  0.90182  0.56625  1.0000
  H   H3494     1.0  0.27182  0.84516  0.82996  1.0000
  H   H3495     1.0  0.37213  0.94692  0.55706  1.0000
  C   C2059     1.0  0.44041  0.97107  0.50869  1.0000
  H   H3496     1.0  0.26557  0.89758  0.70236  1.0000
  C   C2060     1.0  0.28065  0.89000  0.59962  1.0000
  C   C2061     1.0  0.43371  0.93657  0.49594  1.0000
  H   H3497     1.0  0.34779  0.93548  0.55025  1.0000
  H   H3498     1.0  0.27403  0.89710  0.60856  1.0000
  H   H3499     1.0  0.29527  0.95083  0.66073  1.0000
  H   H3500     1.0  0.46384  0.89097  0.50171  1.0000
  C   C2062     1.0  0.26355  0.83822  0.83862  1.0000
  Fe  Fe301     1.0  0.29716  0.93998  0.61767  1.0000
  H   H3501     1.0  0.30982  0.75059  0.78480  1.0000
  H   H3502     1.0  0.27607  0.85163  0.68670  1.0000
  H   H3503     1.0  0.27850  0.88538  0.68371  1.0000
  H   H3504     1.0  0.41141  0.95782  0.78539  1.0000
  H   H3505     1.0  0.42208  0.97784  0.54558  1.0000
  C   C2063     1.0  0.27624  0.92116  0.77314  1.0000
  C   C2064     1.0  0.33745  0.96393  0.52243  1.0000
  H   H3506     1.0  0.37377  0.93733  0.54199  1.0000
  H   H3507     1.0  0.39959  0.92919  0.77055  1.0000
  C   C2065     1.0  0.28603  0.87310  0.60880  1.0000
  H   H3508     1.0  0.25925  0.73446  0.81701  1.0000
  S   S604      1.0  0.48436  0.97848  0.71784  1.0000
  H   H3509     1.0  0.37358  0.89495  0.54463  1.0000
  Fe  Fe302     1.0  0.37431  0.92987  0.48585  1.0000
  H   H3510     1.0  0.43540  0.96067  0.51070  1.0000
  H   H3511     1.0  0.40092  0.93434  0.80780  1.0000
  H   H3512     1.0  0.27234  0.85936  0.70404  1.0000
  C   C2066     1.0  0.34663  0.96955  0.52886  1.0000
  H   H3513     1.0  0.39370  0.97388  0.68979  1.0000
  H   H3514     1.0  0.34015  0.92377  0.56808  1.0000
  C   C2067     1.0  0.29616  0.97730  0.61890  1.0000
  H   H3515     1.0  0.35062  0.98183  0.70008  1.0000
  H   H3516     1.0  0.24555  0.78620  0.84837  1.0000
  S   S605      1.0  0.32210  0.96596  0.49971  1.0000
  H   H3517     1.0  0.26083  0.91499  0.80299  1.0000
  H   H3518     1.0  0.24559  0.90804  0.80060  1.0000
  H   H3519     1.0  0.36995  0.95575  0.77197  1.0000
  H   H3520     1.0  0.34664  0.95614  0.56587  1.0000
  C   C2068     1.0  0.31437  0.96836  0.68783  1.0000
  H   H3521     1.0  0.24931  0.89488  0.60580  1.0000
  H   H3522     1.0  0.37892  0.92863  0.77821  1.0000
  H   H3523     1.0  0.25048  0.91636  0.68694  1.0000
  C   C2069     1.0  0.42939  0.95471  0.54064  1.0000
  C   C2070     1.0  0.25082  0.83763  0.83061  1.0000
  H   H3524     1.0  0.27602  0.86773  0.61600  1.0000
  H   H3525     1.0  0.30605  0.94927  0.48712  1.0000
  H   H3526     1.0  0.36333  0.93548  0.58471  1.0000
  H   H3527     1.0  0.27967  0.92520  0.78204  1.0000
  C   C2071     1.0  0.40707  0.95285  0.77783  1.0000
  H   H3528     1.0  0.35145  0.91847  0.60598  1.0000
  H   H3529     1.0  0.25348  0.92320  0.66622  1.0000
  C   C2072     1.0  0.36602  0.98234  0.73630  1.0000
  C   C2073     1.0  0.40990  0.93353  0.49057  1.0000
  H   H3530     1.0  0.31613  0.98066  0.57309  1.0000
  H   H3531     1.0  0.25722  0.83367  0.81947  1.0000
  C   C2074     1.0  0.41609  0.95752  0.76073  1.0000
  H   H3532     1.0  0.39585  0.92904  0.56508  1.0000
  Fe  Fe303     1.0  0.46897  0.92633  0.51311  1.0000
  H   H3533     1.0  0.38183  0.95894  0.80518  1.0000
  C   C2075     1.0  0.35478  0.91382  0.59511  1.0000
  H   H3534     1.0  0.31863  0.95485  0.66456  1.0000
  C   C2076     1.0  0.26785  0.89223  0.79691  1.0000
  H   H3535     1.0  0.44119  0.97904  0.74858  1.0000
  N   N149      1.0  0.25460  0.88354  0.68495  1.0000
  Fe  Fe304     1.0  0.33905  0.94346  0.49548  1.0000
  C   C2077     1.0  0.27221  0.87744  0.68176  1.0000
  H   H3536     1.0  0.30406  0.87913  0.57573  1.0000
  H   H3537     1.0  0.24492  0.87811  0.58320  1.0000
  H   H3538     1.0  0.37091  0.97104  0.73313  1.0000
  C   C2078     1.0  0.27802  0.86088  0.69137  1.0000
  H   H3539     1.0  0.38714  0.93373  0.75752  1.0000
  H   H3540     1.0  0.27060  0.82639  0.84263  1.0000
  H   H3541     1.0  0.29142  0.89476  0.59387  1.0000
  C   C2079     1.0  0.38186  0.95126  0.79744  1.0000
  H   H3542     1.0  0.45274  0.96610  0.51014  1.0000
  C   C2080     1.0  0.24949  0.79492  0.78793  1.0000
  H   H3543     1.0  0.29003  0.95483  0.67985  1.0000
  H   H3544     1.0  0.46695  0.91011  0.49230  1.0000
  C   C2081     1.0  0.24736  0.77403  0.81721  1.0000
  H   H3545     1.0  0.26949  0.91034  0.67415  1.0000
  Fe  Fe305     1.0  0.48711  0.95204  0.50027  1.0000
  C   C2082     1.0  0.25639  0.91128  0.76743  1.0000
  H   H3546     1.0  0.30264  0.96168  0.71235  1.0000
  C   C2083     1.0  0.44106  0.97921  0.49122  1.0000
  H   H3547     1.0  0.25045  0.86217  0.64060  1.0000
  H   H3548     1.0  0.26004  0.92043  0.59852  1.0000
  H   H3549     1.0  0.27205  0.88290  0.56765  1.0000
  H   H3550     1.0  0.29005  0.75303  0.78331  1.0000
  H   H3551     1.0  0.24481  0.89866  0.57550  1.0000
  H   H3552     1.0  0.44418  0.90678  0.48599  1.0000
  C   C2084     1.0  0.25738  0.92104  0.58712  1.0000
  H   H3553     1.0  0.24502  0.92001  0.58912  1.0000
  C   C2085     1.0  0.46737  0.89860  0.49002  1.0000
  H   H3554     1.0  0.37602  0.96969  0.49926  1.0000
  C   C2086     1.0  0.24754  0.87211  0.68115  1.0000
  C   C2087     1.0  0.38029  0.97703  0.48761  1.0000
  S   S606      1.0  0.24645  0.84031  0.72382  1.0000
  H   H3555     1.0  0.25822  0.93293  0.57978  1.0000
  H   H3556     1.0  0.41020  0.96825  0.51365  1.0000
  C   C2088     1.0  0.40427  0.97841  0.51918  1.0000
  C   C2089     1.0  0.29797  0.74886  0.79171  1.0000
  H   H3557     1.0  0.38169  0.93087  0.81691  1.0000
  H   H3558     1.0  0.34016  0.96505  0.65279  1.0000
  H   H3559     1.0  0.24702  0.94115  0.76648  1.0000
  C   C2090     1.0  0.25081  0.89914  0.67380  1.0000
  H   H3560     1.0  0.28336  0.74200  0.84339  1.0000
  H   H3561     1.0  0.34834  0.98144  0.65077  1.0000
  H   H3562     1.0  0.24977  0.86038  0.68921  1.0000
  H   H3563     1.0  0.36088  0.98072  0.77337  1.0000
  H   H3564     1.0  0.39824  0.97434  0.53154  1.0000
  H   H3565     1.0  0.39051  0.97968  0.78471  1.0000
  S   S607      1.0  0.24303  0.73887  0.85030  1.0000
  C   C2091     1.0  0.24279  0.87369  0.64048  1.0000
  H   H3566     1.0  0.37546  0.97741  0.68413  1.0000
  H   H3567     1.0  0.47961  0.89329  0.48491  1.0000
  H   H3568     1.0  0.24282  0.82601  0.86359  1.0000
  H   H3569     1.0  0.41388  0.97036  0.75603  1.0000
  H   H3570     1.0  0.36135  0.97884  0.79372  1.0000
  H   H3571     1.0  0.44347  0.98192  0.76668  1.0000
  C   C2092     1.0  0.36714  0.98279  0.78129  1.0000
  H   H3572     1.0  0.48993  0.97830  0.58007  1.0000
  H   H3573     1.0  0.44757  0.97047  0.48388  1.0000
  Fe  Fe306     1.0  0.49078  0.96948  0.74124  1.0000
  H   H3574     1.0  0.35971  0.97534  0.48156  1.0000
  H   H3575     1.0  0.42915  0.98370  0.48860  1.0000
  H   H3576     1.0  0.24181  0.89635  0.76627  1.0000
  H   H3577     1.0  0.38999  0.96937  0.48092  1.0000
  S   S608      1.0  0.49111  0.90764  0.51369  1.0000
  S   S609      1.0  0.52350  0.07891  0.46525  1.0000
  Fe  Fe307     1.0  0.57897  0.04255  0.39392  1.0000
  C   C2093     1.0  0.61546  0.04867  0.23869  1.0000
  S   S610      1.0  0.57376  0.03737  0.42053  1.0000
  Fe  Fe308     1.0  0.56811  0.04861  0.36335  1.0000
  H   H3578     1.0  0.56618  0.10531  0.32440  1.0000
  S   S611      1.0  0.54765  0.05722  0.35125  1.0000
  H   H3579     1.0  0.55679  0.10532  0.30162  1.0000
  Fe  Fe309     1.0  0.59823  0.05754  0.36274  1.0000
  S   S612      1.0  0.61198  0.07578  0.34741  1.0000
  C   C2094     1.0  0.56670  0.10399  0.29134  1.0000
  S   S613      1.0  0.57317  0.06451  0.37565  1.0000
  S   S614      1.0  0.57153  0.02731  0.38280  1.0000
  H   H3580     1.0  0.59138  0.17093  0.27287  1.0000
  C   C2095     1.0  0.67528  0.07938  0.31155  1.0000
  Fe  Fe310     1.0  0.52156  0.01182  0.26727  1.0000
  H   H3581     1.0  0.59447  0.07075  0.28672  1.0000
  Fe  Fe311     1.0  0.51764  0.04616  0.26770  1.0000
  S   S615      1.0  0.52321  0.06947  0.25313  1.0000
  H   H3582     1.0  0.58463  0.10695  0.30109  1.0000
  H   H3583     1.0  0.57350  0.99488  0.37864  1.0000
  C   C2096     1.0  0.67072  0.06333  0.33840  1.0000
  H   H3584     1.0  0.71654  0.16231  0.00789  1.0000
  H   H3585     1.0  0.62396  0.15134  0.26022  1.0000
  H   H3586     1.0  0.60420  0.03239  0.19299  1.0000
  N   N150      1.0  0.71571  0.05940  0.21971  1.0000
  H   H3587     1.0  0.53436  0.04213  0.41239  1.0000
  H   H3588     1.0  0.68035  0.99567  0.15572  1.0000
  H   H3589     1.0  0.57161  0.08123  0.21263  1.0000
  H   H3590     1.0  0.60138  0.06922  0.32236  1.0000
  C   C2097     1.0  0.68668  0.06154  0.34241  1.0000
  C   C2098     1.0  0.64669  0.05126  0.33076  1.0000
  H   H3591     1.0  0.64024  0.20935  0.08767  1.0000
  H   H3592     1.0  0.73724  0.23039  0.99632  1.0000
  C   C2099     1.0  0.68861  0.20590  0.03796  1.0000
  C   C2100     1.0  0.55366  0.98993  0.37326  1.0000
  Fe  Fe312     1.0  0.71806  0.15495  0.07021  1.0000
  S   S616      1.0  0.69502  0.17163  0.06827  1.0000
  C   C2101     1.0  0.52578  0.03550  0.42097  1.0000
  Fe  Fe313     1.0  0.70414  0.12638  0.07772  1.0000
  S   S617      1.0  0.67987  0.14083  0.07606  1.0000
  S   S618      1.0  0.70751  0.10006  0.08251  1.0000
  Fe  Fe314     1.0  0.69209  0.15579  0.05473  1.0000
  S   S619      1.0  0.68313  0.16838  0.03275  1.0000
  Fe  Fe315     1.0  0.68491  0.15531  0.08980  1.0000
  S   S620      1.0  0.66640  0.16306  0.11027  1.0000
  S   S621      1.0  0.71599  0.14019  0.05500  1.0000
  S   S622      1.0  0.70832  0.13981  0.09309  1.0000
  C   C2102     1.0  0.58406  0.07861  0.20613  1.0000
  H   H3593     1.0  0.57001  0.05945  0.27466  1.0000
  S   S623      1.0  0.63965  0.21153  0.19182  1.0000
  Fe  Fe316     1.0  0.70754  0.01026  0.15548  1.0000
  C   C2103     1.0  0.71256  0.04436  0.21836  1.0000
  H   H3594     1.0  0.59183  0.09797  0.28477  1.0000
  Fe  Fe317     1.0  0.68515  0.03301  0.17515  1.0000
  S   S624      1.0  0.70492  0.03808  0.18188  1.0000
  S   S625      1.0  0.66014  0.04483  0.18460  1.0000
  Fe  Fe318     1.0  0.71663  0.03972  0.15644  1.0000
  C   C2104     1.0  0.50660  0.99985  0.46201  1.0000
  S   S626      1.0  0.61003  0.99840  0.36803  1.0000
  H   H3595     1.0  0.55597  0.99983  0.36313  1.0000
  S   S627      1.0  0.69626  0.03603  0.14935  1.0000
  S   S628      1.0  0.69427  0.00686  0.18061  1.0000
  C   C2105     1.0  0.56369  0.98888  0.38493  1.0000
  H   H3596     1.0  0.69828  0.03552  0.24168  1.0000
  S   S629      1.0  0.60457  0.03691  0.38197  1.0000
  H   H3597     1.0  0.73840  0.13718  0.30815  1.0000
  Fe  Fe319     1.0  0.60627  0.13583  0.22967  1.0000
  S   S630      1.0  0.62870  0.13053  0.23787  1.0000
  S   S631      1.0  0.59857  0.15948  0.21399  1.0000
  Fe  Fe320     1.0  0.59974  0.10287  0.24553  1.0000
  S   S632      1.0  0.62238  0.09527  0.25397  1.0000
  S   S633      1.0  0.58749  0.08246  0.25634  1.0000
  Fe  Fe321     1.0  0.61551  0.11846  0.26071  1.0000
  S   S634      1.0  0.61551  0.11942  0.28521  1.0000
  Fe  Fe322     1.0  0.63322  0.10791  0.23034  1.0000
  S   S635      1.0  0.65729  0.09971  0.21629  1.0000
  S   S636      1.0  0.59238  0.12572  0.25343  1.0000
  S   S637      1.0  0.61145  0.11353  0.22091  1.0000
  Fe  Fe323     1.0  0.70598  0.10545  0.33390  1.0000
  S   S638      1.0  0.70648  0.12827  0.31673  1.0000
  H   H3598     1.0  0.71822  0.22572  0.06574  1.0000
  Fe  Fe324     1.0  0.67288  0.11679  0.35117  1.0000
  S   S639      1.0  0.67056  0.14108  0.33539  1.0000
  S   S640      1.0  0.65466  0.10592  0.37053  1.0000
  Fe  Fe325     1.0  0.68214  0.12814  0.31585  1.0000
  S   S641      1.0  0.67786  0.13275  0.29152  1.0000
  Fe  Fe326     1.0  0.69536  0.13926  0.33762  1.0000
  S   S642      1.0  0.70654  0.15944  0.33587  1.0000
  S   S643      1.0  0.68255  0.10426  0.33138  1.0000
  S   S644      1.0  0.69669  0.11611  0.35507  1.0000
  C   C2106     1.0  0.63352  0.12109  0.28753  1.0000
  C   C2107     1.0  0.64657  0.12114  0.27493  1.0000
  C   C2108     1.0  0.66038  0.12421  0.27644  1.0000
  C   C2109     1.0  0.66123  0.12704  0.29058  1.0000
  C   C2110     1.0  0.64844  0.12629  0.30341  1.0000
  C   C2111     1.0  0.63454  0.12343  0.30183  1.0000
  H   H3599     1.0  0.64593  0.11917  0.26391  1.0000
  H   H3600     1.0  0.67033  0.12468  0.26654  1.0000
  H   H3601     1.0  0.64902  0.12859  0.31431  1.0000
  H   H3602     1.0  0.62439  0.12358  0.31153  1.0000
  C   C2112     1.0  0.71961  0.20658  0.36802  1.0000
  H   H3603     1.0  0.60281  0.15454  0.28460  1.0000
  H   H3604     1.0  0.71475  0.14649  0.00168  1.0000
  H   H3605     1.0  0.54122  0.02437  0.43673  1.0000
  C   C2113     1.0  0.71791  0.08656  0.30466  1.0000
  C   C2114     1.0  0.71938  0.08135  0.29102  1.0000
  H   H3606     1.0  0.66611  0.05310  0.34632  1.0000
  H   H3607     1.0  0.70627  0.03780  0.31330  1.0000
  H   H3608     1.0  0.70976  0.09741  0.30656  1.0000
  H   H3609     1.0  0.71225  0.08814  0.28260  1.0000
  C   C2115     1.0  0.65923  0.06024  0.19330  1.0000
  C   C2116     1.0  0.64556  0.06551  0.20395  1.0000
  C   C2117     1.0  0.64483  0.07764  0.21116  1.0000
  C   C2118     1.0  0.65780  0.08452  0.20764  1.0000
  C   C2119     1.0  0.67133  0.07945  0.19681  1.0000
  C   C2120     1.0  0.67198  0.06746  0.18955  1.0000
  H   H3610     1.0  0.63564  0.06010  0.20669  1.0000
  H   H3611     1.0  0.63432  0.08155  0.21953  1.0000
  H   H3612     1.0  0.68120  0.08501  0.19384  1.0000
  H   H3613     1.0  0.68213  0.06421  0.18065  1.0000
  H   H3614     1.0  0.55910  0.09127  0.34121  1.0000
  H   H3615     1.0  0.60723  0.06905  0.21097  1.0000
  H   H3616     1.0  0.57964  0.02523  0.22849  1.0000
  C   C2121     1.0  0.72057  0.21344  0.33992  1.0000
  H   H3617     1.0  0.70337  0.09200  0.22243  1.0000
  H   H3618     1.0  0.70313  0.18259  0.99384  1.0000
  C   C2122     1.0  0.55116  0.01980  0.33322  1.0000
  S   S645      1.0  0.53404  0.99354  0.25290  1.0000
  C   C2123     1.0  0.59512  0.99695  0.34598  1.0000
  H   H3619     1.0  0.73123  0.21224  0.00130  1.0000
  C   C2124     1.0  0.62813  0.19724  0.19742  1.0000
  C   C2125     1.0  0.63232  0.18355  0.20853  1.0000
  C   C2126     1.0  0.62338  0.17194  0.21365  1.0000
  C   C2127     1.0  0.61015  0.17385  0.20765  1.0000
  C   C2128     1.0  0.60603  0.18751  0.19637  1.0000
  C   C2129     1.0  0.61501  0.19916  0.19123  1.0000
  H   H3620     1.0  0.64268  0.18188  0.21305  1.0000
  H   H3621     1.0  0.62674  0.16154  0.22223  1.0000
  H   H3622     1.0  0.59580  0.18914  0.19166  1.0000
  H   H3623     1.0  0.61163  0.20970  0.18267  1.0000
  C   C2130     1.0  0.71524  0.08871  0.09891  1.0000
  C   C2131     1.0  0.71437  0.07285  0.10404  1.0000
  C   C2132     1.0  0.71854  0.06402  0.11824  1.0000
  C   C2133     1.0  0.72392  0.07094  0.12718  1.0000
  C   C2134     1.0  0.72558  0.08654  0.12163  1.0000
  C   C2135     1.0  0.72107  0.09547  0.10762  1.0000
  H   H3624     1.0  0.70997  0.06752  0.09729  1.0000
  H   H3625     1.0  0.71758  0.05188  0.12224  1.0000
  C   C2136     1.0  0.51687  0.00953  0.44843  1.0000
  H   H3626     1.0  0.72211  0.10756  0.10358  1.0000
  C   C2137     1.0  0.66558  0.18234  0.11133  1.0000
  C   C2138     1.0  0.67711  0.19044  0.10177  1.0000
  C   C2139     1.0  0.67616  0.20592  0.10248  1.0000
  C   C2140     1.0  0.66392  0.21322  0.11313  1.0000
  C   C2141     1.0  0.65260  0.20500  0.12303  1.0000
  C   C2142     1.0  0.65333  0.18964  0.12203  1.0000
  H   H3627     1.0  0.68692  0.18473  0.09399  1.0000
  H   H3628     1.0  0.68511  0.21212  0.09496  1.0000
  H   H3629     1.0  0.64314  0.21051  0.13127  1.0000
  H   H3630     1.0  0.64441  0.18342  0.12952  1.0000
  C   C2143     1.0  0.73855  0.17863  0.07452  1.0000
  C   C2144     1.0  0.72429  0.19413  0.09410  1.0000
  C   C2145     1.0  0.72519  0.18254  0.08610  1.0000
  H   H3631     1.0  0.51558  0.00484  0.39200  1.0000
  H   H3632     1.0  0.61372  0.06043  0.40309  1.0000
  H   H3633     1.0  0.61329  0.16768  0.24881  1.0000
  H   H3634     1.0  0.71397  0.19710  0.10310  1.0000
  H   H3635     1.0  0.71566  0.17652  0.08903  1.0000
  C   C2146     1.0  0.52255  0.02299  0.46609  1.0000
  H   H3636     1.0  0.58372  0.99528  0.32871  1.0000
  H   H3637     1.0  0.65267  0.15321  0.25710  1.0000
  C   C2147     1.0  0.73507  0.16272  0.36906  1.0000
  C   C2148     1.0  0.73029  0.16768  0.34285  1.0000
  C   C2149     1.0  0.71811  0.15941  0.34870  1.0000
  C   C2150     1.0  0.71477  0.15236  0.36469  1.0000
  C   C2151     1.0  0.72315  0.15413  0.37485  1.0000
  C   C2152     1.0  0.69929  0.04988  0.30984  1.0000
  S   S646      1.0  0.50374  0.04318  0.29272  1.0000
  H   H3638     1.0  0.70534  0.14606  0.36933  1.0000
  C   C2153     1.0  0.52851  0.00417  0.38811  1.0000
  C   C2154     1.0  0.60074  0.16010  0.27260  1.0000
  N   N151      1.0  0.51752  0.02504  0.45097  1.0000
  C   C2155     1.0  0.57210  0.08085  0.32123  1.0000
  C   C2156     1.0  0.68646  0.13943  0.99750  1.0000
  C   C2157     1.0  0.68060  0.15566  0.99450  1.0000
  C   C2158     1.0  0.67896  0.16426  0.00574  1.0000
  C   C2159     1.0  0.68328  0.15674  0.02008  1.0000
  C   C2160     1.0  0.68861  0.14040  0.02348  1.0000
  C   C2161     1.0  0.69017  0.13175  0.01218  1.0000
  C   C2162     1.0  0.73450  0.14185  0.01232  1.0000
  H   H3639     1.0  0.67471  0.17687  0.00311  1.0000
  H   H3640     1.0  0.69192  0.13449  0.03459  1.0000
  H   H3641     1.0  0.69465  0.11917  0.01465  1.0000
  H   H3642     1.0  0.70688  0.07212  0.19880  1.0000
  H   H3643     1.0  0.53104  0.00470  0.35725  1.0000
  H   H3644     1.0  0.57948  0.09168  0.33626  1.0000
  H   H3645     1.0  0.63554  0.05221  0.32731  1.0000
  H   H3646     1.0  0.68099  0.09257  0.28752  1.0000
  C   C2163     1.0  0.54038  0.07394  0.25483  1.0000
  C   C2164     1.0  0.54569  0.08720  0.24481  1.0000
  C   C2165     1.0  0.55984  0.09043  0.24547  1.0000
  C   C2166     1.0  0.56872  0.08037  0.25616  1.0000
  C   C2167     1.0  0.56320  0.06734  0.26638  1.0000
  C   C2168     1.0  0.54910  0.06416  0.26577  1.0000
  H   H3647     1.0  0.53898  0.09484  0.23634  1.0000
  H   H3648     1.0  0.56402  0.10047  0.23750  1.0000
  H   H3649     1.0  0.56643  0.11584  0.28351  1.0000
  H   H3650     1.0  0.54505  0.05404  0.27368  1.0000
  C   C2169     1.0  0.62427  0.08345  0.35403  1.0000
  C   C2170     1.0  0.62817  0.07707  0.36872  1.0000
  C   C2171     1.0  0.63761  0.08393  0.37372  1.0000
  C   C2172     1.0  0.64347  0.09694  0.36389  1.0000
  C   C2173     1.0  0.64004  0.10290  0.34897  1.0000
  C   C2174     1.0  0.63038  0.09624  0.34413  1.0000
  H   H3651     1.0  0.62389  0.06691  0.37616  1.0000
  H   H3652     1.0  0.64049  0.07909  0.38516  1.0000
  H   H3653     1.0  0.64447  0.11293  0.34135  1.0000
  H   H3654     1.0  0.62750  0.10112  0.33271  1.0000
  C   C2175     1.0  0.54514  0.04501  0.34040  1.0000
  C   C2176     1.0  0.55440  0.02983  0.34073  1.0000
  S   S647      1.0  0.53428  0.01144  0.31729  1.0000
  C   C2177     1.0  0.53899  0.02497  0.32502  1.0000
  C   C2178     1.0  0.53020  0.04039  0.32407  1.0000
  C   C2179     1.0  0.53319  0.05034  0.33187  1.0000
  H   H3655     1.0  0.56374  0.02565  0.34716  1.0000
  H   H3656     1.0  0.65427  0.03965  0.32925  1.0000
  H   H3657     1.0  0.52073  0.04447  0.31783  1.0000
  H   H3658     1.0  0.52601  0.06209  0.33155  1.0000
  C   C2180     1.0  0.53753  0.06749  0.45276  1.0000
  C   C2181     1.0  0.53981  0.07291  0.43637  1.0000
  C   C2182     1.0  0.55099  0.06388  0.42622  1.0000
  C   C2183     1.0  0.56004  0.04950  0.43251  1.0000
  C   C2184     1.0  0.55798  0.04429  0.44888  1.0000
  C   C2185     1.0  0.54666  0.05316  0.45898  1.0000
  H   H3659     1.0  0.53278  0.08403  0.43153  1.0000
  H   H3660     1.0  0.55250  0.06797  0.41361  1.0000
  H   H3661     1.0  0.56508  0.03324  0.45379  1.0000
  H   H3662     1.0  0.61579  0.08541  0.28864  1.0000
  S   S648      1.0  0.53660  0.02481  0.27256  1.0000
  N   N152      1.0  0.59347  0.05152  0.22413  1.0000
  H   H3663     1.0  0.62587  0.07562  0.30413  1.0000
  H   H3664     1.0  0.59778  0.19166  0.25042  1.0000
  H   H3665     1.0  0.68986  0.20085  0.36834  1.0000
  H   H3666     1.0  0.69350  0.22861  0.02549  1.0000
  C   C2186     1.0  0.50130  0.03564  0.45196  1.0000
  H   H3667     1.0  0.73249  0.21224  0.05520  1.0000
  C   C2187     1.0  0.73887  0.16917  0.35294  1.0000
  H   H3668     1.0  0.64332  0.05178  0.34338  1.0000
  C   C2188     1.0  0.62888  0.21671  0.09265  1.0000
  H   H3669     1.0  0.64463  0.16607  0.29442  1.0000
  H   H3670     1.0  0.52437  0.03425  0.46714  1.0000
  H   H3671     1.0  0.59709  0.04983  0.31477  1.0000
  H   H3672     1.0  0.50653  0.05494  0.45900  1.0000
  H   H3673     1.0  0.73525  0.19698  0.03896  1.0000
  H   H3674     1.0  0.70746  0.18772  0.36177  1.0000
  C   C2189     1.0  0.71771  0.06975  0.20339  1.0000
  N   N153      1.0  0.73110  0.15976  0.98494  1.0000
  C   C2190     1.0  0.59956  0.04351  0.19725  1.0000
  C   C2191     1.0  0.57301  0.03395  0.23577  1.0000
  C   C2192     1.0  0.56922  0.09311  0.33116  1.0000
  H   H3675     1.0  0.69299  0.98496  0.21312  1.0000
  C   C2193     1.0  0.67495  0.08278  0.29399  1.0000
  H   H3676     1.0  0.70273  0.21333  0.01546  1.0000
  S   S649      1.0  0.72538  0.99911  0.20581  1.0000
  H   H3677     1.0  0.73823  0.22575  0.32382  1.0000
  H   H3678     1.0  0.71982  0.19803  0.39286  1.0000
  H   H3679     1.0  0.57113  0.05470  0.21756  1.0000
  H   H3680     1.0  0.51124  0.99626  0.47283  1.0000
  H   H3681     1.0  0.58484  0.07332  0.19625  1.0000
  C   C2194     1.0  0.58852  0.05253  0.30726  1.0000
  H   H3682     1.0  0.60493  0.02838  0.21905  1.0000
  H   H3683     1.0  0.59519  0.00927  0.34129  1.0000
  H   H3684     1.0  0.72264  0.03831  0.21044  1.0000
  H   H3685     1.0  0.71909  0.08151  0.20330  1.0000
  C   C2195     1.0  0.57643  0.05042  0.22803  1.0000
  H   H3686     1.0  0.69308  0.07076  0.33517  1.0000
  H   H3687     1.0  0.60101  0.08945  0.31608  1.0000
  C   C2196     1.0  0.73987  0.00809  0.20659  1.0000
  C   C2197     1.0  0.68154  0.04984  0.31591  1.0000
  H   H3688     1.0  0.69419  0.19327  0.03897  1.0000
  H   H3689     1.0  0.68710  0.08010  0.31207  1.0000
  C   C2198     1.0  0.59908  0.04609  0.23939  1.0000
  C   C2199     1.0  0.59492  0.06841  0.21732  1.0000
  H   H3690     1.0  0.58678  0.04614  0.19785  1.0000
  N   N154      1.0  0.53627  0.99085  0.37969  1.0000
  N   N155      1.0  0.58529  0.08189  0.30685  1.0000
  H   H3691     1.0  0.72962  0.19676  0.36506  1.0000
  C   C2200     1.0  0.70974  0.03189  0.23378  1.0000
  H   H3692     1.0  0.52743  0.02448  0.41709  1.0000
  H   H3693     1.0  0.69428  0.04976  0.34158  1.0000
  H   H3694     1.0  0.51314  0.01979  0.47649  1.0000
  C   C2201     1.0  0.61605  0.16310  0.26070  1.0000
  C   C2202     1.0  0.72366  0.19759  0.03658  1.0000
  H   H3695     1.0  0.54360  0.02098  0.37461  1.0000
  N   N156      1.0  0.62426  0.17364  0.26429  1.0000
  H   H3696     1.0  0.49328  0.03163  0.46330  1.0000
  H   H3697     1.0  0.56863  0.07546  0.44728  1.0000
  H   H3698     1.0  0.73979  0.22164  0.34370  1.0000
  H   H3699     1.0  0.57730  0.04945  0.31466  1.0000
  H   H3700     1.0  0.72863  0.11208  0.27604  1.0000
  H   H3701     1.0  0.49413  0.00620  0.46459  1.0000
  H   H3702     1.0  0.64151  0.23286  0.09367  1.0000
  C   C2203     1.0  0.73057  0.06782  0.28791  1.0000
  H   H3703     1.0  0.53678  0.99860  0.46937  1.0000
  C   C2204     1.0  0.58852  0.98907  0.33896  1.0000
  C   C2205     1.0  0.72745  0.07810  0.31534  1.0000
  C   C2206     1.0  0.53096  0.02061  0.37861  1.0000
  C   C2207     1.0  0.70165  0.08283  0.23332  1.0000
  H   H3704     1.0  0.70404  0.19495  0.33481  1.0000
  H   H3705     1.0  0.71696  0.23069  0.99873  1.0000
  C   C2208     1.0  0.65042  0.16238  0.24659  1.0000
  H   H3706     1.0  0.69005  0.08735  0.24062  1.0000
  H   H3707     1.0  0.54510  0.04899  0.47160  1.0000
  C   C2209     1.0  0.73675  0.20177  0.09053  1.0000
  C   C2210     1.0  0.70814  0.18407  0.98104  1.0000
  C   C2211     1.0  0.71123  0.20093  0.38523  1.0000
  H   H3708     1.0  0.49966  0.08947  0.27661  1.0000
  S   S650      1.0  0.73998  0.16437  0.06418  1.0000
  H   H3709     1.0  0.61523  0.21923  0.12930  1.0000
  C   C2212     1.0  0.69874  0.22746  0.35843  1.0000
  H   H3710     1.0  0.73844  0.23119  0.16073  1.0000
  H   H3711     1.0  0.73255  0.08066  0.21979  1.0000
  H   H3712     1.0  0.51547  0.99611  0.37006  1.0000
  H   H3713     1.0  0.53252  0.00230  0.39910  1.0000
  C   C2213     1.0  0.70129  0.06709  0.23024  1.0000
  H   H3714     1.0  0.73919  0.18786  0.01658  1.0000
  S   S651      1.0  0.72782  0.06060  0.14568  1.0000
  H   H3715     1.0  0.71758  0.19099  0.04785  1.0000
  C   C2214     1.0  0.73164  0.06324  0.19093  1.0000
  H   H3716     1.0  0.52891  0.00202  0.44596  1.0000
  H   H3717     1.0  0.66263  0.07391  0.34237  1.0000
  C   C2215     1.0  0.73978  0.05914  0.29880  1.0000
  S   S652      1.0  0.71369  0.99115  0.14199  1.0000
  H   H3718     1.0  0.61973  0.19706  0.26836  1.0000
  C   C2216     1.0  0.61327  0.18908  0.26663  1.0000
  H   H3719     1.0  0.61600  0.06126  0.23508  1.0000
  H   H3720     1.0  0.64713  0.15710  0.23859  1.0000
  C   C2217     1.0  0.65428  0.06507  0.32046  1.0000
  H   H3721     1.0  0.60403  0.18740  0.27761  1.0000
  N   N157      1.0  0.59260  0.08385  0.41981  1.0000
  C   C2218     1.0  0.57582  0.09225  0.42509  1.0000
  C   C2219     1.0  0.59862  0.09137  0.40291  1.0000
  C   C2220     1.0  0.60306  0.08499  0.42964  1.0000
  C   C2221     1.0  0.59282  0.06678  0.42156  1.0000
  C   C2222     1.0  0.56860  0.08813  0.44290  1.0000
  C   C2223     1.0  0.59087  0.08918  0.39069  1.0000
  C   C2224     1.0  0.60322  0.10180  0.43020  1.0000
  C   C2225     1.0  0.60889  0.05636  0.41574  1.0000
  H   H3722     1.0  0.57456  0.10523  0.42158  1.0000
  H   H3723     1.0  0.56788  0.08971  0.41911  1.0000
  H   H3724     1.0  0.61155  0.08708  0.39925  1.0000
  H   H3725     1.0  0.59693  0.10428  0.40143  1.0000
  H   H3726     1.0  0.59999  0.07822  0.44193  1.0000
  H   H3727     1.0  0.61554  0.07951  0.42510  1.0000
  H   H3728     1.0  0.58875  0.06113  0.43406  1.0000
  H   H3729     1.0  0.58442  0.06567  0.41523  1.0000
  H   H3730     1.0  0.57449  0.09185  0.45003  1.0000
  H   H3731     1.0  0.55607  0.09447  0.44512  1.0000
  H   H3732     1.0  0.59558  0.09607  0.37893  1.0000
  H   H3733     1.0  0.59377  0.07678  0.38959  1.0000
  H   H3734     1.0  0.57793  0.09353  0.39326  1.0000
  H   H3735     1.0  0.59138  0.10866  0.43456  1.0000
  H   H3736     1.0  0.60860  0.10832  0.41855  1.0000
  H   H3737     1.0  0.61064  0.10106  0.43842  1.0000
  H   H3738     1.0  0.57436  0.07194  0.29461  1.0000
  H   H3739     1.0  0.60730  0.04426  0.41732  1.0000
  H   H3740     1.0  0.61616  0.04258  0.21022  1.0000
  H   H3741     1.0  0.70366  0.05755  0.31442  1.0000
  S   S653      1.0  0.73335  0.06252  0.26999  1.0000
  H   H3742     1.0  0.49570  0.03506  0.44270  1.0000
  H   H3743     1.0  0.70125  0.21004  0.38958  1.0000
  H   H3744     1.0  0.50671  0.98887  0.45875  1.0000
  H   H3745     1.0  0.70242  0.05277  0.29678  1.0000
  H   H3746     1.0  0.52548  0.02925  0.38624  1.0000
  H   H3747     1.0  0.61318  0.20266  0.24220  1.0000
  C   C2226     1.0  0.60382  0.04105  0.21322  1.0000
  H   H3748     1.0  0.64347  0.18567  0.25192  1.0000
  H   H3749     1.0  0.72740  0.11912  0.36334  1.0000
  H   H3750     1.0  0.57270  0.99081  0.27832  1.0000
  H   H3751     1.0  0.59963  0.03331  0.24418  1.0000
  H   H3752     1.0  0.71056  0.08128  0.24024  1.0000
  Fe  Fe327     1.0  0.71507  0.01243  0.18493  1.0000
  H   H3753     1.0  0.71185  0.22506  0.14034  1.0000
  N   N158      1.0  0.67028  0.09735  0.13817  1.0000
  C   C2227     1.0  0.65989  0.11092  0.12932  1.0000
  C   C2228     1.0  0.66012  0.08986  0.15300  1.0000
  C   C2229     1.0  0.67868  0.08523  0.12844  1.0000
  C   C2230     1.0  0.68250  0.10349  0.14174  1.0000
  C   C2231     1.0  0.66791  0.11868  0.11273  1.0000
  C   C2232     1.0  0.65195  0.10020  0.16519  1.0000
  C   C2233     1.0  0.66815  0.07815  0.12277  1.0000
  C   C2234     1.0  0.69214  0.09195  0.15355  1.0000
  H   H3754     1.0  0.64949  0.10738  0.12820  1.0000
  H   H3755     1.0  0.65492  0.12052  0.13590  1.0000
  H   H3756     1.0  0.66693  0.07866  0.15894  1.0000
  H   H3757     1.0  0.65051  0.08638  0.15022  1.0000
  H   H3758     1.0  0.68690  0.09020  0.11788  1.0000
  H   H3759     1.0  0.68625  0.07513  0.13495  1.0000
  H   H3760     1.0  0.69115  0.10712  0.13075  1.0000
  H   H3761     1.0  0.67686  0.11427  0.14649  1.0000
  H   H3762     1.0  0.67805  0.12320  0.11286  1.0000
  H   H3763     1.0  0.67171  0.11069  0.10442  1.0000
  H   H3764     1.0  0.65928  0.12897  0.10788  1.0000
  H   H3765     1.0  0.64348  0.11073  0.16056  1.0000
  H   H3766     1.0  0.64505  0.09329  0.17558  1.0000
  H   H3767     1.0  0.66044  0.10376  0.16953  1.0000
  H   H3768     1.0  0.67586  0.07011  0.11507  1.0000
  H   H3769     1.0  0.66038  0.08718  0.11562  1.0000
  H   H3770     1.0  0.66112  0.07095  0.13271  1.0000
  H   H3771     1.0  0.70448  0.09349  0.14981  1.0000
  H   H3772     1.0  0.69275  0.07939  0.15453  1.0000
  H   H3773     1.0  0.68777  0.09485  0.16532  1.0000
  C   C2235     1.0  0.60192  0.98878  0.35886  1.0000
  C   C2236     1.0  0.73819  0.06424  0.31254  1.0000
  H   H3774     1.0  0.69062  0.06908  0.22543  1.0000
  H   H3775     1.0  0.70927  0.02095  0.23081  1.0000
  C   C2237     1.0  0.70009  0.21614  0.02719  1.0000
  C   C2238     1.0  0.53786  0.01071  0.46842  1.0000
  H   H3776     1.0  0.64626  0.07608  0.32352  1.0000
  H   H3777     1.0  0.73405  0.17866  0.99343  1.0000
  H   H3778     1.0  0.67773  0.16173  0.98337  1.0000
  H   H3779     1.0  0.60062  0.22444  0.11792  1.0000
  H   H3780     1.0  0.73294  0.17315  0.33047  1.0000
  H   H3781     1.0  0.62624  0.21141  0.10535  1.0000
  S   S654      1.0  0.50366  0.03357  0.26009  1.0000
  H   H3782     1.0  0.72507  0.21612  0.36814  1.0000
  H   H3783     1.0  0.73003  0.09185  0.12835  1.0000
  H   H3784     1.0  0.72709  0.17520  0.03036  1.0000
  H   H3785     1.0  0.73719  0.22147  0.02340  1.0000
  C   C2239     1.0  0.56173  0.98674  0.28493  1.0000
  H   H3786     1.0  0.62003  0.21566  0.08686  1.0000
  H   H3787     1.0  0.50531  0.05916  0.43871  1.0000
  H   H3788     1.0  0.72846  0.20181  0.33865  1.0000
  H   H3789     1.0  0.71425  0.21671  0.33024  1.0000
  H   H3790     1.0  0.67693  0.23225  0.35010  1.0000
  H   H3791     1.0  0.72831  0.23288  0.04619  1.0000
  C   C2240     1.0  0.74044  0.17132  0.98465  1.0000
  Fe  Fe328     1.0  0.59670  0.02301  0.36969  1.0000
  H   H3792     1.0  0.59062  0.05205  0.24856  1.0000
  H   H3793     1.0  0.68108  0.07257  0.28856  1.0000
  C   C2241     1.0  0.58574  0.06979  0.29812  1.0000
  H   H3794     1.0  0.60491  0.05285  0.18838  1.0000
  H   H3795     1.0  0.61792  0.04447  0.25068  1.0000
  H   H3796     1.0  0.55783  0.00785  0.33405  1.0000
  H   H3797     1.0  0.66717  0.08958  0.31625  1.0000
  H   H3798     1.0  0.58753  0.09010  0.20099  1.0000
  H   H3799     1.0  0.61766  0.05549  0.42256  1.0000
  N   N159      1.0  0.66190  0.15369  0.17507  1.0000
  C   C2242     1.0  0.65085  0.16866  0.16912  1.0000
  C   C2243     1.0  0.65474  0.13997  0.17677  1.0000
  C   C2244     1.0  0.67770  0.15167  0.16381  1.0000
  C   C2245     1.0  0.66428  0.15444  0.19065  1.0000
  C   C2246     1.0  0.65715  0.18385  0.16466  1.0000
  C   C2247     1.0  0.63930  0.13907  0.18931  1.0000
  C   C2248     1.0  0.67740  0.15272  0.14661  1.0000
  C   C2249     1.0  0.67375  0.13933  0.19951  1.0000
  H   H3800     1.0  0.64711  0.16780  0.15872  1.0000
  H   H3801     1.0  0.63975  0.17073  0.17814  1.0000
  H   H3802     1.0  0.66326  0.12861  0.17941  1.0000
  H   H3803     1.0  0.65194  0.14019  0.16550  1.0000
  H   H3804     1.0  0.68426  0.16045  0.16373  1.0000
  H   H3805     1.0  0.68528  0.14001  0.16759  1.0000
  H   H3806     1.0  0.67051  0.16392  0.18916  1.0000
  H   H3807     1.0  0.65280  0.15759  0.19873  1.0000
  H   H3808     1.0  0.62502  0.04185  0.23098  1.0000
  H   H3809     1.0  0.66752  0.18382  0.15470  1.0000
  H   H3810     1.0  0.64080  0.13786  0.20134  1.0000
  H   H3811     1.0  0.62963  0.14930  0.18664  1.0000
  H   H3812     1.0  0.63537  0.12844  0.18950  1.0000
  H   H3813     1.0  0.67109  0.16439  0.14122  1.0000
  H   H3814     1.0  0.67223  0.14351  0.14539  1.0000
  H   H3815     1.0  0.68966  0.15107  0.13949  1.0000
  H   H3816     1.0  0.66774  0.12941  0.20291  1.0000
  H   H3817     1.0  0.67484  0.14150  0.21061  1.0000
  H   H3818     1.0  0.68585  0.13579  0.19267  1.0000
  C   C2250     1.0  0.52928  0.03213  0.43746  1.0000
  S   S655      1.0  0.72899  0.01434  0.16022  1.0000
  H   H3819     1.0  0.70221  0.04687  0.21295  1.0000
  S   S656      1.0  0.50839  0.00604  0.29218  1.0000
  C   C2251     1.0  0.72728  0.18760  0.02419  1.0000
  N   N160      1.0  0.71482  0.21444  0.03280  1.0000
  Fe  Fe329     1.0  0.52188  0.02090  0.29706  1.0000
  H   H3820     1.0  0.63323  0.18265  0.23971  1.0000
  H   H3821     1.0  0.56028  0.03460  0.23705  1.0000
  S   S657      1.0  0.72672  0.08533  0.33162  1.0000
  H   H3822     1.0  0.53052  0.04326  0.43933  1.0000
  C   C2252     1.0  0.70023  0.19969  0.35834  1.0000
  C   C2253     1.0  0.73005  0.05543  0.22667  1.0000
  C   C2254     1.0  0.63770  0.17688  0.25060  1.0000
  H   H3823     1.0  0.64781  0.19397  0.16085  1.0000
  H   H3824     1.0  0.57526  0.02977  0.24782  1.0000
  C   C2255     1.0  0.60051  0.07912  0.31197  1.0000
  H   H3825     1.0  0.68048  0.03914  0.32545  1.0000
  H   H3826     1.0  0.55748  0.99497  0.39461  1.0000
  N   N161      1.0  0.70954  0.21199  0.35590  1.0000
  H   H3827     1.0  0.71854  0.19086  0.01680  1.0000
  C   C2256     1.0  0.69420  0.19906  0.34423  1.0000
  H   H3828     1.0  0.61759  0.06445  0.29631  1.0000
  H   H3829     1.0  0.59617  0.15176  0.26900  1.0000
  H   H3830     1.0  0.54819  0.01333  0.45905  1.0000
  C   C2257     1.0  0.60667  0.22921  0.12394  1.0000
  H   H3831     1.0  0.69905  0.05935  0.24212  1.0000
  H   H3832     1.0  0.66268  0.08679  0.29223  1.0000
  H   H3833     1.0  0.71945  0.02874  0.24009  1.0000
  H   H3834     1.0  0.63514  0.15290  0.27957  1.0000
  H   H3835     1.0  0.66183  0.16591  0.24086  1.0000
  C   C2258     1.0  0.72360  0.15287  0.00156  1.0000
  S   S658      1.0  0.59270  0.04301  0.34931  1.0000
  H   H3836     1.0  0.56471  0.09652  0.28455  1.0000
  H   H3837     1.0  0.65370  0.17036  0.27411  1.0000
  C   C2259     1.0  0.60485  0.19840  0.25309  1.0000
  H   H3838     1.0  0.59376  0.04470  0.29877  1.0000
  H   H3839     1.0  0.68456  0.06253  0.35482  1.0000
  H   H3840     1.0  0.65997  0.18625  0.17479  1.0000
  Fe  Fe330     1.0  0.63669  0.23197  0.17101  1.0000
  N   N162      1.0  0.67090  0.06422  0.32146  1.0000
  C   C2260     1.0  0.73118  0.22530  0.33605  1.0000
  H   H3841     1.0  0.68399  0.20860  0.04981  1.0000
  H   H3842     1.0  0.56082  0.08146  0.31817  1.0000
  H   H3843     1.0  0.63807  0.18501  0.28273  1.0000
  H   H3844     1.0  0.70724  0.18995  0.38690  1.0000
  H   H3845     1.0  0.67770  0.04798  0.30601  1.0000
  H   H3846     1.0  0.59654  0.20903  0.25662  1.0000
  C   C2261     1.0  0.58283  0.09788  0.29599  1.0000
  H   H3847     1.0  0.57442  0.06919  0.32932  1.0000
  C   C2262     1.0  0.62998  0.16554  0.27927  1.0000
  H   H3848     1.0  0.69048  0.22581  0.37010  1.0000
  H   H3849     1.0  0.65376  0.06557  0.30821  1.0000
  H   H3850     1.0  0.52525  0.02480  0.36840  1.0000
  C   C2263     1.0  0.61570  0.07595  0.29937  1.0000
  H   H3851     1.0  0.59227  0.07488  0.22687  1.0000
  S   S659      1.0  0.66268  0.23280  0.11342  1.0000
  C   C2264     1.0  0.64226  0.17235  0.28262  1.0000
  H   H3852     1.0  0.61998  0.16562  0.28970  1.0000
  H   H3853     1.0  0.56928  0.05834  0.23607  1.0000
  H   H3854     1.0  0.51207  0.01129  0.43787  1.0000
  H   H3855     1.0  0.54041  0.01085  0.47970  1.0000
  H   H3856     1.0  0.73350  0.07272  0.18025  1.0000
  H   H3857     1.0  0.73193  0.12314  0.33762  1.0000
  H   H3858     1.0  0.67833  0.20803  0.03264  1.0000
  H   H3859     1.0  0.51385  0.04278  0.42027  1.0000
  H   H3860     1.0  0.68671  0.19023  0.34819  1.0000
  C   C2265     1.0  0.52853  0.99393  0.36602  1.0000
  H   H3861     1.0  0.52789  0.99228  0.22396  1.0000
  H   H3862     1.0  0.73882  0.04547  0.22219  1.0000
  H   H3863     1.0  0.74063  0.13932  0.33225  1.0000
  H   H3864     1.0  0.68693  0.21031  0.33927  1.0000
  H   H3865     1.0  0.55515  0.98699  0.27618  1.0000
  S   S660      1.0  0.62687  0.23102  0.15128  1.0000
  H   H3866     1.0  0.55496  0.99536  0.29229  1.0000
  H   H3867     1.0  0.73666  0.11767  0.37879  1.0000
  H   H3868     1.0  0.72777  0.12856  0.98691  1.0000
  C   C2266     1.0  0.70977  0.22053  0.04779  1.0000
  H   H3869     1.0  0.72809  0.13311  0.02093  1.0000
  C   C2267     1.0  0.72765  0.22426  0.00339  1.0000
  C   C2268     1.0  0.72308  0.22293  0.05390  1.0000
  H   H3870     1.0  0.72917  0.05377  0.18704  1.0000
  S   S661      1.0  0.69023  0.12877  0.98274  1.0000
  H   H3871     1.0  0.72016  0.14909  0.38731  1.0000
  H   H3872     1.0  0.74056  0.10103  0.37038  1.0000
  H   H3873     1.0  0.73788  0.14854  0.01899  1.0000
  C   C2269     1.0  0.73912  0.06857  0.22346  1.0000
  S   S662      1.0  0.73549  0.21630  0.10052  1.0000
  H   H3874     1.0  0.70356  0.21243  0.05764  1.0000
  C   C2270     1.0  0.72527  0.22458  0.02081  1.0000
  H   H3875     1.0  0.52673  0.98457  0.34713  1.0000
  C   C2271     1.0  0.73849  0.11403  0.36756  1.0000
  H   H3876     1.0  0.70120  0.23204  0.04637  1.0000
  H   H3877     1.0  0.72687  0.05117  0.23967  1.0000
  C   C2272     1.0  0.50042  0.05317  0.45082  1.0000
  H   H3878     1.0  0.74111  0.12124  0.28093  1.0000
  C   C2273     1.0  0.74092  0.11364  0.27331  1.0000
  Fe  Fe331     1.0  0.49133  0.02871  0.28556  1.0000
  H   H3879     1.0  0.59757  0.23355  0.13378  1.0000
  H   H3880     1.0  0.74093  0.99602  0.23045  1.0000
  C   C2274     1.0  0.63092  0.23372  0.08926  1.0000
  H   H3881     1.0  0.59979  0.23393  0.09413  1.0000
  C   C2275     1.0  0.49138  0.99496  0.55816  1.0000
  S   S663      1.0  0.52923  0.05207  0.50790  1.0000
  C   C2276     1.0  0.71801  0.16854  0.97637  1.0000
  Fe  Fe332     1.0  0.56929  0.06616  0.59642  1.0000
  S   S664      1.0  0.59062  0.05658  0.60727  1.0000
  S   S665      1.0  0.57104  0.06744  0.57062  1.0000
  Fe  Fe333     1.0  0.54723  0.07161  0.62741  1.0000
  S   S666      1.0  0.56627  0.06250  0.64105  1.0000
  C   C2277     1.0  0.58388  0.13297  0.72882  1.0000
  Fe  Fe334     1.0  0.58081  0.07626  0.62032  1.0000
  S   S667      1.0  0.59330  0.09365  0.62308  1.0000
  Fe  Fe335     1.0  0.57456  0.04366  0.62709  1.0000
  S   S668      1.0  0.57963  0.01829  0.63942  1.0000
  S   S669      1.0  0.56080  0.08702  0.60769  1.0000
  S   S670      1.0  0.55417  0.05156  0.61527  1.0000
  N   N163      1.0  0.58476  0.11791  0.72419  1.0000
  H   H3882     1.0  0.70518  0.10070  0.76121  1.0000
  Fe  Fe336     1.0  0.68827  0.17069  0.93296  1.0000
  S   S671      1.0  0.69695  0.19318  0.92647  1.0000
  Fe  Fe337     1.0  0.68748  0.14033  0.92534  1.0000
  S   S672      1.0  0.69661  0.12774  0.90522  1.0000
  Fe  Fe338     1.0  0.65778  0.15921  0.94205  1.0000
  S   S673      1.0  0.63143  0.16639  0.94717  1.0000
  S   S674      1.0  0.67432  0.16529  0.91898  1.0000
  Fe  Fe339     1.0  0.67036  0.06677  0.88036  1.0000
  S   S675      1.0  0.65107  0.07004  0.86782  1.0000
  S   S676      1.0  0.66618  0.07331  0.90376  1.0000
  Fe  Fe340     1.0  0.69564  0.05265  0.85514  1.0000
  S   S677      1.0  0.67876  0.05470  0.84031  1.0000
  S   S678      1.0  0.72159  0.04400  0.84686  1.0000
  Fe  Fe341     1.0  0.66833  0.07842  0.84606  1.0000
  S   S679      1.0  0.66364  0.10048  0.82771  1.0000
  Fe  Fe342     1.0  0.66315  0.04594  0.86324  1.0000
  S   S680      1.0  0.64978  0.02787  0.86445  1.0000
  S   S681      1.0  0.68658  0.07712  0.85893  1.0000
  S   S682      1.0  0.68101  0.04184  0.87773  1.0000
  H   H3883     1.0  0.69626  0.05734  0.76796  1.0000
  C   C2278     1.0  0.60918  0.14299  0.90252  1.0000
  S   S683      1.0  0.52165  0.07992  0.63802  1.0000
  C   C2279     1.0  0.55516  0.01830  0.59667  1.0000
  C   C2280     1.0  0.65626  0.16627  0.66560  1.0000
  H   H3884     1.0  0.56122  0.03357  0.67615  1.0000
  C   C2281     1.0  0.60285  0.20241  0.80179  1.0000
  H   H3885     1.0  0.54162  0.98932  0.54334  1.0000
  H   H3886     1.0  0.74042  0.04913  0.89757  1.0000
  H   H3887     1.0  0.68973  0.11820  0.76351  1.0000
  S   S684      1.0  0.59215  0.22803  0.85767  1.0000
  Fe  Fe343     1.0  0.57991  0.16052  0.79621  1.0000
  S   S685      1.0  0.60527  0.15003  0.78748  1.0000
  S   S686      1.0  0.57346  0.17201  0.81701  1.0000
  S   S687      1.0  0.59343  0.13745  0.76277  1.0000
  Fe  Fe344     1.0  0.59655  0.12917  0.78757  1.0000
  S   S688      1.0  0.60827  0.10416  0.79642  1.0000
  Fe  Fe345     1.0  0.59986  0.15925  0.76359  1.0000
  S   S689      1.0  0.61652  0.17030  0.74306  1.0000
  Fe  Fe346     1.0  0.65630  0.09785  0.66507  1.0000
  S   S690      1.0  0.65405  0.12384  0.65562  1.0000
  S   S691      1.0  0.65112  0.07932  0.65593  1.0000
  Fe  Fe347     1.0  0.66604  0.09869  0.69437  1.0000
  S   S692      1.0  0.66375  0.12471  0.68807  1.0000
  S   S693      1.0  0.67322  0.08350  0.71655  1.0000
  Fe  Fe348     1.0  0.64197  0.12557  0.68043  1.0000
  S   S694      1.0  0.61997  0.14407  0.68447  1.0000
  Fe  Fe349     1.0  0.67620  0.12105  0.66390  1.0000
  S   S695      1.0  0.69535  0.13435  0.65016  1.0000
  S   S696      1.0  0.64278  0.09987  0.68947  1.0000
  S   S697      1.0  0.67992  0.09473  0.67062  1.0000
  C   C2282     1.0  0.61718  0.16274  0.72707  1.0000
  C   C2283     1.0  0.62593  0.14762  0.72582  1.0000
  C   C2284     1.0  0.62685  0.14181  0.71269  1.0000
  C   C2285     1.0  0.61880  0.15106  0.70098  1.0000
  C   C2286     1.0  0.60977  0.16602  0.70243  1.0000
  C   C2287     1.0  0.60905  0.17190  0.71542  1.0000
  H   H3888     1.0  0.63210  0.14049  0.73491  1.0000
  H   H3889     1.0  0.63360  0.13012  0.71175  1.0000
  H   H3890     1.0  0.60347  0.17313  0.69343  1.0000
  H   H3891     1.0  0.60216  0.18353  0.71649  1.0000
  C   C2288     1.0  0.72677  0.07005  0.70924  1.0000
  C   C2289     1.0  0.71961  0.08212  0.69832  1.0000
  C   C2290     1.0  0.70315  0.08657  0.70076  1.0000
  C   C2291     1.0  0.69379  0.07872  0.71393  1.0000
  C   C2292     1.0  0.70092  0.06654  0.72475  1.0000
  C   C2293     1.0  0.71739  0.06226  0.72245  1.0000
  C   C2294     1.0  0.57652  0.99338  0.62992  1.0000
  H   H3892     1.0  0.69775  0.09608  0.69240  1.0000
  H   H3893     1.0  0.69373  0.06021  0.73477  1.0000
  H   H3894     1.0  0.72281  0.05258  0.73061  1.0000
  C   C2295     1.0  0.64837  0.10118  0.81907  1.0000
  C   C2296     1.0  0.63992  0.08925  0.82418  1.0000
  C   C2297     1.0  0.62765  0.09013  0.81710  1.0000
  C   C2298     1.0  0.62379  0.10296  0.80501  1.0000
  C   C2299     1.0  0.63250  0.11465  0.79970  1.0000
  C   C2300     1.0  0.64474  0.11380  0.80675  1.0000
  H   H3895     1.0  0.64279  0.07939  0.83361  1.0000
  H   H3896     1.0  0.62102  0.08097  0.82113  1.0000
  H   H3897     1.0  0.63007  0.12416  0.78990  1.0000
  H   H3898     1.0  0.65143  0.12291  0.80261  1.0000
  C   C2301     1.0  0.72651  0.05442  0.82741  1.0000
  C   C2302     1.0  0.71567  0.06747  0.82148  1.0000
  C   C2303     1.0  0.71886  0.07506  0.80564  1.0000
  H   H3899     1.0  0.50515  0.07792  0.78091  1.0000
  C   C2304     1.0  0.69764  0.21747  0.88208  1.0000
  H   H3900     1.0  0.72273  0.17146  0.96348  1.0000
  H   H3901     1.0  0.70473  0.07178  0.82903  1.0000
  H   H3902     1.0  0.71048  0.08525  0.80124  1.0000
  N   N164      1.0  0.66203  0.17897  0.68518  1.0000
  H   H3903     1.0  0.49911  0.99711  0.54634  1.0000
  C   C2305     1.0  0.59438  0.19139  0.80215  1.0000
  H   H3904     1.0  0.59528  0.18763  0.79153  1.0000
  H   H3905     1.0  0.65550  0.13049  0.84841  1.0000
  C   C2306     1.0  0.68728  0.11318  0.90515  1.0000
  C   C2307     1.0  0.68106  0.10352  0.91912  1.0000
  C   C2308     1.0  0.67447  0.09138  0.91860  1.0000
  C   C2309     1.0  0.67396  0.08895  0.90413  1.0000
  C   C2310     1.0  0.67969  0.09900  0.89021  1.0000
  C   C2311     1.0  0.68656  0.11090  0.89070  1.0000
  H   H3906     1.0  0.66996  0.08372  0.92943  1.0000
  H   H3907     1.0  0.67876  0.09769  0.87907  1.0000
  H   H3908     1.0  0.69122  0.11847  0.87987  1.0000
  C   C2312     1.0  0.62248  0.17391  0.93105  1.0000
  C   C2313     1.0  0.60622  0.17554  0.93353  1.0000
  C   C2314     1.0  0.59884  0.18095  0.92075  1.0000
  C   C2315     1.0  0.60764  0.18527  0.90556  1.0000
  C   C2316     1.0  0.62383  0.18407  0.90308  1.0000
  C   C2317     1.0  0.63131  0.17801  0.91580  1.0000
  H   H3909     1.0  0.59936  0.17234  0.94531  1.0000
  H   H3910     1.0  0.63066  0.18726  0.89128  1.0000
  H   H3911     1.0  0.64386  0.17650  0.91378  1.0000
  H   H3912     1.0  0.54295  0.10655  0.68066  1.0000
  H   H3913     1.0  0.53070  0.13089  0.66737  1.0000
  H   H3914     1.0  0.59340  0.11189  0.66529  1.0000
  H   H3915     1.0  0.67947  0.07737  0.75467  1.0000
  C   C2318     1.0  0.52063  0.00867  0.72855  1.0000
  C   C2319     1.0  0.65109  0.17927  0.67517  1.0000
  S   S698      1.0  0.57510  0.17168  0.77210  1.0000
  C   C2320     1.0  0.71406  0.15263  0.65229  1.0000
  C   C2321     1.0  0.70434  0.14197  0.66055  1.0000
  H   H3916     1.0  0.71207  0.98526  0.79974  1.0000
  H   H3917     1.0  0.70561  0.02641  0.80003  1.0000
  H   H3918     1.0  0.60697  0.12040  0.70766  1.0000
  C   C2322     1.0  0.65021  0.14502  0.89583  1.0000
  H   H3919     1.0  0.64059  0.15545  0.89377  1.0000
  H   H3920     1.0  0.60898  0.11377  0.74164  1.0000
  S   S699      1.0  0.52677  0.03788  0.72162  1.0000
  C   C2323     1.0  0.51159  0.99734  0.73603  1.0000
  H   H3921     1.0  0.68436  0.16369  0.70470  1.0000
  C   C2324     1.0  0.65509  0.00241  0.85145  1.0000
  C   C2325     1.0  0.66183  0.01218  0.85601  1.0000
  C   C2326     1.0  0.67814  0.00900  0.85434  1.0000
  H   H3922     1.0  0.64249  0.00503  0.85249  1.0000
  H   H3923     1.0  0.68341  0.01646  0.85787  1.0000
  C   C2327     1.0  0.60937  0.08922  0.63234  1.0000
  C   C2328     1.0  0.61658  0.07379  0.63839  1.0000
  C   C2329     1.0  0.62933  0.07090  0.64565  1.0000
  C   C2330     1.0  0.63472  0.08339  0.64724  1.0000
  C   C2331     1.0  0.62728  0.09881  0.64151  1.0000
  C   C2332     1.0  0.61482  0.10169  0.63391  1.0000
  H   H3924     1.0  0.61253  0.06409  0.63722  1.0000
  H   H3925     1.0  0.63507  0.05893  0.64997  1.0000
  H   H3926     1.0  0.63144  0.10852  0.64248  1.0000
  H   H3927     1.0  0.60954  0.11366  0.62902  1.0000
  H   H3928     1.0  0.64173  0.13142  0.83022  1.0000
  H   H3929     1.0  0.55714  0.11349  0.68476  1.0000
  H   H3930     1.0  0.57583  0.18597  0.84076  1.0000
  H   H3931     1.0  0.60601  0.00142  0.59001  1.0000
  H   H3932     1.0  0.64144  0.14178  0.92715  1.0000
  C   C2333     1.0  0.67922  0.19267  0.66006  1.0000
  H   H3933     1.0  0.72708  0.00176  0.85319  1.0000
  C   C2334     1.0  0.59425  0.00912  0.61160  1.0000
  C   C2335     1.0  0.58380  0.00611  0.62610  1.0000
  H   H3934     1.0  0.49421  0.05076  0.66888  1.0000
  H   H3935     1.0  0.65407  0.20401  0.68388  1.0000
  H   H3936     1.0  0.65250  0.20872  0.96054  1.0000
  H   H3937     1.0  0.59996  0.01889  0.60864  1.0000
  H   H3938     1.0  0.66211  0.99296  0.91157  1.0000
  H   H3939     1.0  0.70867  0.01629  0.69263  1.0000
  C   C2336     1.0  0.55371  0.06980  0.56407  1.0000
  C   C2337     1.0  0.55470  0.07058  0.54813  1.0000
  C   C2338     1.0  0.54135  0.07078  0.54288  1.0000
  H   H3940     1.0  0.68169  0.10514  0.93031  1.0000
  C   C2339     1.0  0.53912  0.07001  0.57460  1.0000
  H   H3941     1.0  0.56593  0.07056  0.53990  1.0000
  H   H3942     1.0  0.54228  0.07109  0.53064  1.0000
  H   H3943     1.0  0.67637  0.10319  0.78928  1.0000
  S   S700      1.0  0.59853  0.19125  0.88963  1.0000
  C   C2340     1.0  0.63369  0.13605  0.84044  1.0000
  H   H3944     1.0  0.54992  0.03083  0.65692  1.0000
  H   H3945     1.0  0.73136  0.10970  0.71650  1.0000
  H   H3946     1.0  0.52622  0.04709  0.65688  1.0000
  H   H3947     1.0  0.54017  0.01677  0.55121  1.0000
  C   C2341     1.0  0.67214  0.16211  0.70990  1.0000
  H   H3948     1.0  0.66351  0.22094  0.94493  1.0000
  H   H3949     1.0  0.71563  0.01598  0.83145  1.0000
  C   C2342     1.0  0.74086  0.04931  0.81751  1.0000
  Fe  Fe350     1.0  0.51915  0.08361  0.74688  1.0000
  H   H3950     1.0  0.68402  0.06082  0.79365  1.0000
  H   H3951     1.0  0.56622  0.02088  0.59729  1.0000
  H   H3952     1.0  0.62147  0.20740  0.92559  1.0000
  H   H3953     1.0  0.72122  0.20619  0.90059  1.0000
  H   H3954     1.0  0.64590  0.11295  0.75211  1.0000
  C   C2343     1.0  0.64167  0.21844  0.94028  1.0000
  H   H3955     1.0  0.62574  0.11570  0.95053  1.0000
  C   C2344     1.0  0.50594  0.01293  0.69252  1.0000
  H   H3956     1.0  0.72106  0.06595  0.91620  1.0000
  C   C2345     1.0  0.53454  0.01934  0.64254  1.0000
  H   H3957     1.0  0.51662  0.01115  0.66158  1.0000
  H   H3958     1.0  0.55122  0.22567  0.82775  1.0000
  S   S701      1.0  0.49640  0.07910  0.50747  1.0000
  C   C2346     1.0  0.53305  0.13168  0.75513  1.0000
  S   S702      1.0  0.50778  0.11403  0.69387  1.0000
  H   H3959     1.0  0.72217  0.98506  0.82165  1.0000
  S   S703      1.0  0.49571  0.07671  0.72040  1.0000
  H   H3960     1.0  0.50395  0.00550  0.68571  1.0000
  H   H3961     1.0  0.60866  0.22302  0.93447  1.0000
  C   C2347     1.0  0.66553  0.08015  0.78425  1.0000
  H   H3962     1.0  0.50336  0.10603  0.80837  1.0000
  H   H3963     1.0  0.55332  0.01201  0.66961  1.0000
  C   C2348     1.0  0.60483  0.13127  0.83243  1.0000
  H   H3964     1.0  0.61285  0.12002  0.83637  1.0000
  H   H3965     1.0  0.59481  0.13406  0.84223  1.0000
  H   H3966     1.0  0.59978  0.12932  0.82343  1.0000
  Fe  Fe351     1.0  0.51661  0.06084  0.72916  1.0000
  H   H3967     1.0  0.72859  0.16727  0.65392  1.0000
  H   H3968     1.0  0.69569  0.22401  0.90369  1.0000
  C   C2349     1.0  0.49642  0.00828  0.50909  1.0000
  S   S704      1.0  0.61137  0.22217  0.81448  1.0000
  C   C2350     1.0  0.49266  0.98622  0.50144  1.0000
  C   C2351     1.0  0.59764  0.99923  0.60107  1.0000
  H   H3969     1.0  0.53157  0.00577  0.72024  1.0000
  C   C2352     1.0  0.65633  0.21205  0.94754  1.0000
  C   C2353     1.0  0.67263  0.06846  0.79778  1.0000
  H   H3970     1.0  0.64024  0.20901  0.89816  1.0000
  H   H3971     1.0  0.49186  0.01987  0.51154  1.0000
  H   H3972     1.0  0.73808  0.20540  0.94374  1.0000
  H   H3973     1.0  0.65113  0.16151  0.70333  1.0000
  H   H3974     1.0  0.71719  0.04501  0.90741  1.0000
  H   H3975     1.0  0.73949  0.02742  0.79959  1.0000
  S   S705      1.0  0.54869  0.14953  0.76265  1.0000
  Fe  Fe352     1.0  0.50854  0.09576  0.71616  1.0000
  H   H3976     1.0  0.65107  0.00050  0.89664  1.0000
  H   H3977     1.0  0.63998  0.12821  0.89198  1.0000
  C   C2354     1.0  0.67835  0.18006  0.67548  1.0000
  S   S706      1.0  0.72664  0.16273  0.68769  1.0000
  S   S707      1.0  0.67039  0.16697  0.95549  1.0000
  N   N165      1.0  0.73212  0.00580  0.81253  1.0000
  S   S708      1.0  0.62872  0.20699  0.85210  1.0000
  C   C2355     1.0  0.54906  0.03152  0.68049  1.0000
  C   C2356     1.0  0.58414  0.12245  0.66229  1.0000
  H   H3978     1.0  0.66378  0.20134  0.94359  1.0000
  H   H3979     1.0  0.66895  0.16072  0.66382  1.0000
  H   H3980     1.0  0.71181  0.21123  0.93740  1.0000
  H   H3981     1.0  0.72993  0.06931  0.85769  1.0000
  H   H3982     1.0  0.59345  0.01144  0.54585  1.0000
  C   C2357     1.0  0.50837  0.11305  0.66385  1.0000
  C   C2358     1.0  0.59007  0.98674  0.60467  1.0000
  S   S709      1.0  0.49813  0.10147  0.73995  1.0000
  H   H3983     1.0  0.66151  0.07321  0.77830  1.0000
  H   H3984     1.0  0.58870  0.03263  0.54330  1.0000
  H   H3985     1.0  0.54234  0.11734  0.63103  1.0000
  C   C2359     1.0  0.57286  0.09290  0.66750  1.0000
  H   H3986     1.0  0.55049  0.99992  0.57142  1.0000
  C   C2360     1.0  0.54987  0.12044  0.63704  1.0000
  H   H3987     1.0  0.60824  0.13972  0.92697  1.0000
  C   C2361     1.0  0.59166  0.02124  0.55159  1.0000
  C   C2362     1.0  0.49265  0.01580  0.75052  1.0000
  Fe  Fe353     1.0  0.51465  0.06625  0.49014  1.0000
  H   H3988     1.0  0.50807  0.11189  0.64046  1.0000
  C   C2363     1.0  0.62829  0.10447  0.90833  1.0000
  H   H3989     1.0  0.52674  0.14275  0.74929  1.0000
  H   H3990     1.0  0.69156  0.09080  0.74933  1.0000
  H   H3991     1.0  0.54100  0.04299  0.68163  1.0000
  C   C2364     1.0  0.61025  0.16472  0.85829  1.0000
  C   C2365     1.0  0.73266  0.06928  0.79549  1.0000
  C   C2366     1.0  0.60173  0.20738  0.81549  1.0000
  S   S710      1.0  0.66988  0.13381  0.94757  1.0000
  C   C2367     1.0  0.63966  0.19305  0.70471  1.0000
  C   C2368     1.0  0.68638  0.08240  0.75970  1.0000
  H   H3992     1.0  0.53084  0.00389  0.69089  1.0000
  C   C2369     1.0  0.68761  0.99590  0.84849  1.0000
  H   H3993     1.0  0.68209  0.02520  0.70262  1.0000
  C   C2370     1.0  0.52686  0.07060  0.55352  1.0000
  H   H3994     1.0  0.57692  0.12657  0.67302  1.0000
  C   C2371     1.0  0.52575  0.07047  0.56932  1.0000
  C   C2372     1.0  0.73486  0.19696  0.93952  1.0000
  H   H3995     1.0  0.57250  0.09405  0.71809  1.0000
  H   H3996     1.0  0.68330  0.04836  0.64420  1.0000
  H   H3997     1.0  0.69496  0.12903  0.68341  1.0000
  H   H3998     1.0  0.62270  0.14102  0.81473  1.0000
  H   H3999     1.0  0.57566  0.15828  0.72401  1.0000
  H   H4000     1.0  0.63647  0.10352  0.92839  1.0000
  H   H4001     1.0  0.66411  0.06653  0.68408  1.0000
  H   H4002     1.0  0.54737  0.13983  0.66341  1.0000
  H   H4003     1.0  0.59133  0.20481  0.84025  1.0000
  H   H4004     1.0  0.65459  0.11991  0.90310  1.0000
  C   C2373     1.0  0.67984  0.04338  0.65700  1.0000
  H   H4005     1.0  0.68738  0.06435  0.69182  1.0000
  H   H4006     1.0  0.56481  0.09428  0.73865  1.0000
  H   H4007     1.0  0.65056  0.12149  0.92984  1.0000
  H   H4008     1.0  0.65459  0.08734  0.79017  1.0000
  H   H4009     1.0  0.56502  0.12464  0.71272  1.0000
  H   H4010     1.0  0.68409  0.03046  0.65875  1.0000
  H   H4011     1.0  0.64051  0.10091  0.90172  1.0000
  H   H4012     1.0  0.57909  0.09378  0.67610  1.0000
  H   H4013     1.0  0.60072  0.16526  0.86906  1.0000
  H   H4014     1.0  0.58227  0.11497  0.64246  1.0000
  H   H4015     1.0  0.66435  0.06070  0.80461  1.0000
  H   H4016     1.0  0.70235  0.10986  0.77710  1.0000
  H   H4017     1.0  0.62107  0.11197  0.89991  1.0000
  H   H4018     1.0  0.67187  0.11230  0.75470  1.0000
  C   C2374     1.0  0.72121  0.15899  0.66036  1.0000
  C   C2375     1.0  0.65263  0.10158  0.75782  1.0000
  C   C2376     1.0  0.57566  0.14833  0.71909  1.0000
  H   H4019     1.0  0.71111  0.06088  0.67202  1.0000
  C   C2377     1.0  0.56827  0.11741  0.72394  1.0000
  H   H4020     1.0  0.66682  0.04629  0.66004  1.0000
  N   N166      1.0  0.56313  0.01855  0.56679  1.0000
  C   C2378     1.0  0.55133  0.02500  0.58017  1.0000
  C   C2379     1.0  0.55853  0.02826  0.55168  1.0000
  C   C2380     1.0  0.57918  0.02024  0.56716  1.0000
  C   C2381     1.0  0.56270  0.00155  0.56924  1.0000
  C   C2382     1.0  0.50324  0.04221  0.66256  1.0000
  C   C2383     1.0  0.54191  0.02866  0.55006  1.0000
  C   C2384     1.0  0.62883  0.12737  0.94648  1.0000
  H   H4021     1.0  0.49736  0.03898  0.74502  1.0000
  H   H4022     1.0  0.54991  0.03796  0.57787  1.0000
  H   H4023     1.0  0.53948  0.02293  0.58131  1.0000
  H   H4024     1.0  0.56681  0.02451  0.54119  1.0000
  H   H4025     1.0  0.55936  0.04054  0.55021  1.0000
  H   H4026     1.0  0.57821  0.03115  0.57113  1.0000
  C   C2385     1.0  0.70738  0.05321  0.90243  1.0000
  H   H4027     1.0  0.51553  0.98588  0.73327  1.0000
  H   H4028     1.0  0.62564  0.98623  0.89789  1.0000
  H   H4029     1.0  0.51482  0.11507  0.79050  1.0000
  H   H4030     1.0  0.56781  0.13124  0.64713  1.0000
  C   C2386     1.0  0.72001  0.20028  0.93586  1.0000
  H   H4031     1.0  0.65955  0.19681  0.89617  1.0000
  H   H4032     1.0  0.54039  0.03545  0.53814  1.0000
  H   H4033     1.0  0.64652  0.15051  0.84652  1.0000
  H   H4034     1.0  0.67393  0.07467  0.80618  1.0000
  H   H4035     1.0  0.60313  0.02078  0.55413  1.0000
  C   C2387     1.0  0.63898  0.12989  0.92957  1.0000
  H   H4036     1.0  0.65374  0.17128  0.65368  1.0000
  H   H4037     1.0  0.62156  0.16101  0.86205  1.0000
  H   H4038     1.0  0.62998  0.19407  0.69898  1.0000
  C   C2388     1.0  0.49768  0.00081  0.74714  1.0000
  H   H4039     1.0  0.72338  0.16695  0.92385  1.0000
  H   H4040     1.0  0.53255  0.03485  0.55848  1.0000
  H   H4041     1.0  0.63928  0.17794  0.68260  1.0000
  C   C2389     1.0  0.57321  0.99267  0.55645  1.0000
  H   H4042     1.0  0.68493  0.21736  0.88500  1.0000
  H   H4043     1.0  0.57249  0.06843  0.67866  1.0000
  H   H4044     1.0  0.67291  0.15007  0.71741  1.0000
  C   C2390     1.0  0.66305  0.16371  0.69723  1.0000
  H   H4045     1.0  0.72673  0.08803  0.68794  1.0000
  H   H4046     1.0  0.55683  0.07775  0.66867  1.0000
  H   H4047     1.0  0.71602  0.15603  0.63959  1.0000
  H   H4048     1.0  0.70714  0.02248  0.67225  1.0000
  C   C2391     1.0  0.72620  0.08049  0.89198  1.0000
  H   H4049     1.0  0.55588  0.22018  0.84663  1.0000
  H   H4050     1.0  0.61712  0.14497  0.89078  1.0000
  C   C2392     1.0  0.55139  0.11440  0.67506  1.0000
  C   C2393     1.0  0.50888  0.10506  0.79604  1.0000
  C   C2394     1.0  0.73234  0.99725  0.84222  1.0000
  H   H4051     1.0  0.62025  0.15260  0.91451  1.0000
  H   H4052     1.0  0.54867  0.02352  0.69227  1.0000
  H   H4053     1.0  0.49856  0.03152  0.66534  1.0000
  H   H4054     1.0  0.53229  0.01193  0.63582  1.0000
  N   N167      1.0  0.67571  0.09066  0.77238  1.0000
  H   H4055     1.0  0.70001  0.04560  0.90165  1.0000
  Fe  Fe354     1.0  0.68403  0.14208  0.95936  1.0000
  H   H4056     1.0  0.61122  0.09307  0.74727  1.0000
  C   C2395     1.0  0.59836  0.10355  0.70123  1.0000
  S   S711      1.0  0.57138  0.13881  0.79819  1.0000
  H   H4057     1.0  0.58858  0.10416  0.69578  1.0000
  H   H4058     1.0  0.60040  0.09235  0.70991  1.0000
  H   H4059     1.0  0.60936  0.10310  0.69198  1.0000
  H   H4060     1.0  0.61675  0.10184  0.72693  1.0000
  H   H4061     1.0  0.61715  0.17370  0.82242  1.0000
  H   H4062     1.0  0.56315  0.14859  0.71989  1.0000
  H   H4063     1.0  0.62866  0.12580  0.84772  1.0000
  H   H4064     1.0  0.66596  0.05483  0.71294  1.0000
  C   C2396     1.0  0.56459  0.10113  0.72647  1.0000
  H   H4065     1.0  0.59119  0.09293  0.73459  1.0000
  C   C2397     1.0  0.65237  0.20709  0.91683  1.0000
  C   C2398     1.0  0.65228  0.20788  0.89962  1.0000
  H   H4066     1.0  0.64683  0.19726  0.92440  1.0000
  H   H4067     1.0  0.66491  0.20304  0.91784  1.0000
  H   H4068     1.0  0.70773  0.09291  0.86447  1.0000
  H   H4069     1.0  0.56647  0.99469  0.58027  1.0000
  C   C2399     1.0  0.51717  0.98486  0.50823  1.0000
  N   N168      1.0  0.52856  0.02335  0.67090  1.0000
  C   C2400     1.0  0.54554  0.02400  0.66884  1.0000
  C   C2401     1.0  0.52843  0.01322  0.66025  1.0000
  C   C2402     1.0  0.52287  0.01555  0.68778  1.0000
  C   C2403     1.0  0.51918  0.03995  0.66700  1.0000
  H   H4070     1.0  0.64001  0.18266  0.71460  1.0000
  S   S712      1.0  0.50075  0.04821  0.49328  1.0000
  H   H4071     1.0  0.70013  0.99327  0.84765  1.0000
  H   H4072     1.0  0.50410  0.04765  0.64984  1.0000
  H   H4073     1.0  0.73231  0.98593  0.79231  1.0000
  S   S713      1.0  0.50690  0.06342  0.75412  1.0000
  H   H4074     1.0  0.60380  0.13291  0.90428  1.0000
  C   C2404     1.0  0.62954  0.23001  0.91757  1.0000
  H   H4075     1.0  0.56201  0.09689  0.64374  1.0000
  H   H4076     1.0  0.52316  0.02268  0.69586  1.0000
  H   H4077     1.0  0.51682  0.04581  0.67697  1.0000
  H   H4078     1.0  0.63568  0.12805  0.95465  1.0000
  H   H4079     1.0  0.61617  0.11249  0.92977  1.0000
  H   H4080     1.0  0.63453  0.22890  0.94505  1.0000
  C   C2405     1.0  0.51133  0.10542  0.65148  1.0000
  C   C2406     1.0  0.68468  0.09651  0.78055  1.0000
  H   H4081     1.0  0.54743  0.01837  0.63962  1.0000
  C   C2407     1.0  0.70019  0.22857  0.89093  1.0000
  H   H4082     1.0  0.71578  0.04196  0.79030  1.0000
  C   C2408     1.0  0.71495  0.03187  0.80054  1.0000
  H   H4083     1.0  0.71446  0.08868  0.89267  1.0000
  H   H4084     1.0  0.66807  0.22711  0.91800  1.0000
  H   H4085     1.0  0.58225  0.08861  0.65777  1.0000
  C   C2409     1.0  0.62795  0.11223  0.92166  1.0000
  H   H4086     1.0  0.73505  0.01742  0.78780  1.0000
  S   S714      1.0  0.73536  0.07780  0.77534  1.0000
  H   H4087     1.0  0.61804  0.13679  0.94777  1.0000
  C   C2410     1.0  0.55461  0.10624  0.65010  1.0000
  C   C2411     1.0  0.71253  0.06321  0.88593  1.0000
  C   C2412     1.0  0.54452  0.13162  0.76290  1.0000
  H   H4088     1.0  0.52862  0.03164  0.63830  1.0000
  H   H4089     1.0  0.65729  0.21762  0.89126  1.0000
  H   H4090     1.0  0.50561  0.07512  0.80094  1.0000
  N   N169      1.0  0.56302  0.10865  0.66127  1.0000
  H   H4091     1.0  0.51830  0.09425  0.79570  1.0000
  H   H4092     1.0  0.56843  0.99103  0.64113  1.0000
  C   C2413     1.0  0.72838  0.01053  0.82809  1.0000
  H   H4093     1.0  0.70090  0.22145  0.86914  1.0000
  C   C2414     1.0  0.73117  0.02042  0.79960  1.0000
  H   H4094     1.0  0.70258  0.07343  0.88454  1.0000
  H   H4095     1.0  0.71246  0.05679  0.87711  1.0000
  H   H4096     1.0  0.53658  0.13538  0.68277  1.0000
  N   N170      1.0  0.64491  0.22215  0.92256  1.0000
  C   C2415     1.0  0.56384  0.07964  0.67599  1.0000
  H   H4097     1.0  0.65686  0.14645  0.90377  1.0000
  H   H4098     1.0  0.66418  0.19396  0.69913  1.0000
  H   H4099     1.0  0.70478  0.07006  0.77380  1.0000
  H   H4100     1.0  0.69186  0.08677  0.78768  1.0000
  H   H4101     1.0  0.69178  0.19296  0.65465  1.0000
  H   H4102     1.0  0.64963  0.15683  0.67147  1.0000
  H   H4103     1.0  0.70014  0.06080  0.91074  1.0000
  H   H4104     1.0  0.72286  0.09678  0.84747  1.0000
  C   C2416     1.0  0.72745  0.21433  0.89087  1.0000
  H   H4105     1.0  0.50378  0.00648  0.70499  1.0000
  C   C2417     1.0  0.52991  0.11750  0.75465  1.0000
  H   H4106     1.0  0.58201  0.15070  0.70662  1.0000
  H   H4107     1.0  0.55241  0.10280  0.72498  1.0000
  H   H4108     1.0  0.59654  0.15908  0.84582  1.0000
  H   H4109     1.0  0.65811  0.09458  0.74866  1.0000
  C   C2418     1.0  0.71007  0.05154  0.68293  1.0000
  H   H4110     1.0  0.57749  0.13255  0.74131  1.0000
  H   H4111     1.0  0.69244  0.04541  0.70355  1.0000
  H   H4112     1.0  0.71665  0.04004  0.68027  1.0000
  C   C2419     1.0  0.71854  0.15480  0.67678  1.0000
  C   C2420     1.0  0.69603  0.10692  0.76974  1.0000
  H   H4113     1.0  0.61017  0.20719  0.79082  1.0000
  C   C2421     1.0  0.61737  0.14117  0.91589  1.0000
  H   H4114     1.0  0.65835  0.11259  0.77307  1.0000
  H   H4115     1.0  0.60967  0.22280  0.91434  1.0000
  C   C2422     1.0  0.59540  0.11809  0.70813  1.0000
  C   C2423     1.0  0.60796  0.10348  0.73796  1.0000
  H   H4116     1.0  0.59581  0.13461  0.72803  1.0000
  H   H4117     1.0  0.59054  0.12815  0.69931  1.0000
  H   H4118     1.0  0.55958  0.12280  0.73337  1.0000
  C   C2424     1.0  0.71565  0.18925  0.93065  1.0000
  S   S715      1.0  0.70295  0.14619  0.93756  1.0000
  Fe  Fe355     1.0  0.63534  0.22728  0.85656  1.0000
  C   C2425     1.0  0.70100  0.01794  0.68435  1.0000
  H   H4119     1.0  0.69951  0.00625  0.68415  1.0000
  C   C2426     1.0  0.74115  0.17185  0.93222  1.0000
  C   C2427     1.0  0.59108  0.10450  0.73654  1.0000
  C   C2428     1.0  0.57406  0.11954  0.65259  1.0000
  S   S716      1.0  0.49568  0.04484  0.53132  1.0000
  H   H4120     1.0  0.49716  0.02420  0.69198  1.0000
  H   H4121     1.0  0.65816  0.04957  0.68390  1.0000
  H   H4122     1.0  0.53819  0.06962  0.58686  1.0000
  C   C2429     1.0  0.70201  0.13755  0.67693  1.0000
  C   C2430     1.0  0.68471  0.02832  0.68954  1.0000
  H   H4123     1.0  0.67568  0.02411  0.68651  1.0000
  H   H4124     1.0  0.65813  0.03878  0.71203  1.0000
  H   H4125     1.0  0.64416  0.17319  0.80606  1.0000
  C   C2431     1.0  0.65914  0.05112  0.70669  1.0000
  Fe  Fe356     1.0  0.56888  0.14894  0.77318  1.0000
  H   H4126     1.0  0.64086  0.99208  0.88201  1.0000
  C   C2432     1.0  0.58449  0.18556  0.81617  1.0000
  N   N171      1.0  0.63192  0.12828  0.91694  1.0000
  C   C2433     1.0  0.61361  0.14482  0.82481  1.0000
  H   H4127     1.0  0.58317  0.10509  0.74834  1.0000
  H   H4128     1.0  0.68555  0.18243  0.68239  1.0000
  H   H4129     1.0  0.62379  0.09352  0.91357  1.0000
  H   H4130     1.0  0.63658  0.20349  0.70999  1.0000
  H   H4131     1.0  0.50294  0.12543  0.66232  1.0000
  H   H4132     1.0  0.59048  0.13179  0.65499  1.0000
  H   H4133     1.0  0.71141  0.03683  0.81123  1.0000
  H   H4134     1.0  0.60512  0.15500  0.81954  1.0000
  C   C2434     1.0  0.51869  0.08949  0.65326  1.0000
  C   C2435     1.0  0.72637  0.17519  0.92854  1.0000
  H   H4135     1.0  0.59940  0.15358  0.90262  1.0000
  N   N172      1.0  0.68305  0.04581  0.68373  1.0000
  C   C2436     1.0  0.69265  0.05187  0.69112  1.0000
  H   H4136     1.0  0.64704  0.05851  0.70875  1.0000
  H   H4137     1.0  0.71601  0.05413  0.69084  1.0000
  H   H4138     1.0  0.67449  0.18982  0.65136  1.0000
  H   H4139     1.0  0.54306  0.13102  0.64157  1.0000
  H   H4140     1.0  0.71506  0.19336  0.97707  1.0000
  C   C2437     1.0  0.66498  0.10490  0.76463  1.0000
  C   C2438     1.0  0.51552  0.02373  0.73169  1.0000
  C   C2439     1.0  0.65564  0.19288  0.69289  1.0000
  C   C2440     1.0  0.54100  0.13102  0.67168  1.0000
  H   H4141     1.0  0.64864  0.19091  0.66703  1.0000
  C   C2441     1.0  0.58344  0.19048  0.82987  1.0000
  C   C2442     1.0  0.70896  0.14403  0.68500  1.0000
  H   H4142     1.0  0.70700  0.14058  0.69769  1.0000
  C   C2443     1.0  0.66597  0.05360  0.68878  1.0000
  H   H4143     1.0  0.71007  0.06830  0.75421  1.0000
  Fe  Fe357     1.0  0.60831  0.21088  0.87225  1.0000
  H   H4144     1.0  0.68498  0.16872  0.67232  1.0000
  H   H4145     1.0  0.52118  0.11766  0.74849  1.0000
  H   H4146     1.0  0.60914  0.17691  0.85112  1.0000
  C   C2444     1.0  0.50146  0.02733  0.74263  1.0000
  H   H4147     1.0  0.56155  0.11716  0.77640  1.0000
  C   C2445     1.0  0.62699  0.16411  0.82609  1.0000
  H   H4148     1.0  0.60597  0.14252  0.85827  1.0000
  H   H4149     1.0  0.73927  0.12897  0.69213  1.0000
  H   H4150     1.0  0.58631  0.18189  0.92265  1.0000
  C   C2446     1.0  0.68736  0.05052  0.66599  1.0000
  H   H4151     1.0  0.70020  0.04730  0.66127  1.0000
  H   H4152     1.0  0.64386  0.09579  0.76713  1.0000
  H   H4153     1.0  0.56040  0.12318  0.62792  1.0000
  C   C2447     1.0  0.52293  0.08115  0.66748  1.0000
  H   H4154     1.0  0.52875  0.06890  0.66883  1.0000
  C   C2448     1.0  0.51161  0.00012  0.51080  1.0000
  N   N173      1.0  0.62083  0.14965  0.83542  1.0000
  H   H4155     1.0  0.63527  0.16005  0.80189  1.0000
  H   H4156     1.0  0.69809  0.18841  0.97504  1.0000
  H   H4157     1.0  0.66601  0.17040  0.71776  1.0000
  Fe  Fe358     1.0  0.50976  0.06331  0.52563  1.0000
  S   S717      1.0  0.50979  0.07061  0.54768  1.0000
  H   H4158     1.0  0.55559  0.09213  0.77612  1.0000
  C   C2449     1.0  0.51944  0.08863  0.68005  1.0000
  H   H4159     1.0  0.51454  0.07053  0.57758  1.0000
  H   H4160     1.0  0.55609  0.08177  0.68738  1.0000
  H   H4161     1.0  0.63821  0.13638  0.86293  1.0000
  C   C2450     1.0  0.53798  0.10320  0.76228  1.0000
  C   C2451     1.0  0.59222  0.20115  0.82960  1.0000
  H   H4162     1.0  0.67311  0.20457  0.66205  1.0000
  H   H4163     1.0  0.68425  0.06355  0.66203  1.0000
  H   H4164     1.0  0.65867  0.14460  0.88435  1.0000
  C   C2452     1.0  0.72865  0.07412  0.90896  1.0000
  Fe  Fe359     1.0  0.51393  0.03494  0.51228  1.0000
  H   H4165     1.0  0.58539  0.98812  0.55842  1.0000
  C   C2453     1.0  0.55271  0.11731  0.77036  1.0000
  H   H4166     1.0  0.52258  0.08205  0.69107  1.0000
  C   C2454     1.0  0.60798  0.15346  0.84944  1.0000
  C   C2455     1.0  0.63989  0.16209  0.81113  1.0000
  C   C2456     1.0  0.64382  0.13872  0.85021  1.0000
  H   H4167     1.0  0.58439  0.01036  0.57586  1.0000
  C   C2457     1.0  0.64418  0.12964  0.90178  1.0000
  C   C2458     1.0  0.69993  0.06874  0.76444  1.0000
  S   S718      1.0  0.52385  0.00905  0.51577  1.0000
  C   C2459     1.0  0.54934  0.10316  0.77016  1.0000
  S   S719      1.0  0.53404  0.08517  0.76250  1.0000
  H   H4168     1.0  0.67030  0.98751  0.89305  1.0000
  H   H4169     1.0  0.65020  0.15262  0.81366  1.0000
  C   C2460     1.0  0.49747  0.07800  0.79284  1.0000
  H   H4170     1.0  0.63182  0.16901  0.83321  1.0000
  H   H4171     1.0  0.54376  0.10197  0.65666  1.0000
  H   H4172     1.0  0.66895  0.15367  0.69139  1.0000
  S   S720      1.0  0.53053  0.07956  0.72255  1.0000
  C   C2461     1.0  0.51216  0.10459  0.67823  1.0000
  C   C2462     1.0  0.55249  0.23045  0.83723  1.0000
  H   H4173     1.0  0.73411  0.03679  0.87877  1.0000
  H   H4174     1.0  0.57687  0.23212  0.82831  1.0000
  H   H4175     1.0  0.54564  0.02405  0.60531  1.0000
  H   H4176     1.0  0.57349  0.99965  0.54433  1.0000
  H   H4177     1.0  0.72282  0.10208  0.86504  1.0000
  H   H4178     1.0  0.62029  0.98739  0.87265  1.0000
  N   N174      1.0  0.72768  0.06867  0.88242  1.0000
  H   H4179     1.0  0.74101  0.21496  0.90744  1.0000
  H   H4180     1.0  0.73395  0.11271  0.68923  1.0000
  C   C2463     1.0  0.72039  0.09301  0.86050  1.0000
  H   H4181     1.0  0.53571  0.00123  0.66359  1.0000
  H   H4182     1.0  0.55569  0.00551  0.60066  1.0000
  H   H4183     1.0  0.70815  0.00269  0.81753  1.0000
  H   H4184     1.0  0.63431  0.20945  0.94526  1.0000
  C   C2464     1.0  0.73102  0.07668  0.86518  1.0000
  H   H4185     1.0  0.73040  0.20907  0.88038  1.0000
  S   S721      1.0  0.66061  0.22779  0.85454  1.0000
  H   H4186     1.0  0.73499  0.08799  0.88611  1.0000
  C   C2465     1.0  0.61670  0.22021  0.92340  1.0000
  H   H4187     1.0  0.73455  0.01980  0.82728  1.0000
  H   H4188     1.0  0.70392  0.20514  0.88574  1.0000
  C   C2466     1.0  0.65915  0.98991  0.90183  1.0000
  Fe  Fe360     1.0  0.61305  0.22543  0.83773  1.0000
  H   H4189     1.0  0.72379  0.14023  0.96809  1.0000
  C   C2467     1.0  0.49668  0.10600  0.78663  1.0000
  H   H4190     1.0  0.50314  0.10511  0.77440  1.0000
  H   H4191     1.0  0.49875  0.05307  0.79608  1.0000
  H   H4192     1.0  0.70955  0.16109  0.97795  1.0000
  N   N175      1.0  0.71687  0.23052  0.88804  1.0000
  H   H4193     1.0  0.72147  0.23201  0.86300  1.0000
  H   H4194     1.0  0.72757  0.98688  0.84346  1.0000
  C   C2468     1.0  0.72071  0.99269  0.79743  1.0000
  C   C2469     1.0  0.72041  0.99652  0.81311  1.0000
  H   H4195     1.0  0.72559  0.08418  0.91482  1.0000
  H   H4196     1.0  0.52429  0.99713  0.55637  1.0000
  C   C2470     1.0  0.53276  0.98610  0.55424  1.0000
  C   C2471     1.0  0.73297  0.13498  0.97514  1.0000
  H   H4197     1.0  0.57308  0.22533  0.80690  1.0000
  H   H4198     1.0  0.50428  0.98902  0.57662  1.0000
  C   C2472     1.0  0.66462  0.98927  0.84557  1.0000
  H   H4199     1.0  0.71712  0.00341  0.78862  1.0000
  S   S722      1.0  0.61632  0.22932  0.87835  1.0000
  H   H4200     1.0  0.73259  0.11952  0.66478  1.0000
  C   C2473     1.0  0.65621  0.23302  0.91553  1.0000
  C   C2474     1.0  0.68091  0.98596  0.84421  1.0000
  H   H4201     1.0  0.74117  0.06848  0.90915  1.0000
  H   H4202     1.0  0.71297  0.23316  0.91193  1.0000
  C   C2475     1.0  0.74128  0.14731  0.97615  1.0000
  H   H4203     1.0  0.52821  0.33118  0.09231  1.0000
  H   H4204     1.0  0.51640  0.33673  0.02039  1.0000
  S   S723      1.0  0.66287  0.38968  0.99607  1.0000
  Fe  Fe361     1.0  0.59716  0.35450  0.07016  1.0000
  S   S724      1.0  0.59169  0.33907  0.05772  1.0000
  S   S725      1.0  0.62268  0.35193  0.06982  1.0000
  Fe  Fe362     1.0  0.57467  0.36075  0.04873  1.0000
  S   S726      1.0  0.57087  0.37025  0.02404  1.0000
  Fe  Fe363     1.0  0.68873  0.41975  0.05193  1.0000
  S   S727      1.0  0.66504  0.43453  0.05939  1.0000
  S   S728      1.0  0.69844  0.42081  0.02603  1.0000
  Fe  Fe364     1.0  0.69386  0.40854  0.08519  1.0000
  S   S729      1.0  0.67035  0.42263  0.09551  1.0000
  S   S730      1.0  0.71336  0.39267  0.09716  1.0000
  Fe  Fe365     1.0  0.66121  0.41412  0.07935  1.0000
  S   S731      1.0  0.63669  0.40962  0.08573  1.0000
  Fe  Fe366     1.0  0.67586  0.44219  0.07467  1.0000
  S   S732      1.0  0.66674  0.46841  0.07326  1.0000
  S   S733      1.0  0.68419  0.39846  0.07068  1.0000
  S   S734      1.0  0.70012  0.42891  0.06556  1.0000
  H   H4205     1.0  0.72429  0.33595  0.12514  1.0000
  H   H4206     1.0  0.70375  0.27020  0.14024  1.0000
  C   C2476     1.0  0.60261  0.24566  0.09093  1.0000
  S   S735      1.0  0.58180  0.37656  0.05939  1.0000
  H   H4207     1.0  0.71464  0.39044  0.22305  1.0000
  H   H4208     1.0  0.63281  0.34109  0.03660  1.0000
  H   H4209     1.0  0.62341  0.35225  0.98391  1.0000
  H   H4210     1.0  0.69922  0.45221  0.03080  1.0000
  C   C2477     1.0  0.63316  0.35841  0.98101  1.0000
  H   H4211     1.0  0.52360  0.43140  0.08488  1.0000
  H   H4212     1.0  0.59362  0.32700  0.14141  1.0000
  Fe  Fe367     1.0  0.74018  0.30926  0.19394  1.0000
  C   C2478     1.0  0.51461  0.39639  0.10612  1.0000
  H   H4213     1.0  0.68566  0.24896  0.34597  1.0000
  H   H4214     1.0  0.64886  0.31276  0.11752  1.0000
  C   C2479     1.0  0.53500  0.33433  0.99202  1.0000
  Fe  Fe368     1.0  0.71990  0.32956  0.17090  1.0000
  S   S736      1.0  0.72804  0.31283  0.15476  1.0000
  S   S737      1.0  0.70099  0.35135  0.16652  1.0000
  H   H4215     1.0  0.49401  0.36815  0.00918  1.0000
  H   H4216     1.0  0.53030  0.31091  0.11388  1.0000
  H   H4217     1.0  0.68781  0.36889  0.21252  1.0000
  C   C2480     1.0  0.49721  0.34854  0.99876  1.0000
  H   H4218     1.0  0.65066  0.45920  0.01690  1.0000
  Fe  Fe369     1.0  0.72561  0.29395  0.17662  1.0000
  S   S738      1.0  0.71699  0.27246  0.17785  1.0000
  H   H4219     1.0  0.52614  0.30631  0.13489  1.0000
  S   S739      1.0  0.71526  0.31081  0.19268  1.0000
  H   H4220     1.0  0.50803  0.33118  0.09911  1.0000
  Fe  Fe370     1.0  0.61554  0.25645  0.15090  1.0000
  S   S740      1.0  0.62361  0.25685  0.17213  1.0000
  S   S741      1.0  0.59049  0.26455  0.14794  1.0000
  Fe  Fe371     1.0  0.64489  0.26387  0.15457  1.0000
  S   S742      1.0  0.65494  0.28470  0.15264  1.0000
  H   H4221     1.0  0.50053  0.35838  0.08436  1.0000
  S   S743      1.0  0.63554  0.26549  0.13356  1.0000
  H   H4222     1.0  0.72520  0.32979  0.06316  1.0000
  C   C2481     1.0  0.69946  0.27603  0.17132  1.0000
  C   C2482     1.0  0.69259  0.29116  0.16409  1.0000
  C   C2483     1.0  0.67888  0.29369  0.15851  1.0000
  C   C2484     1.0  0.67187  0.28115  0.16022  1.0000
  C   C2485     1.0  0.67868  0.26603  0.16752  1.0000
  C   C2486     1.0  0.69247  0.26347  0.17300  1.0000
  H   H4223     1.0  0.69783  0.30092  0.16281  1.0000
  H   H4224     1.0  0.67370  0.30542  0.15294  1.0000
  H   H4225     1.0  0.67330  0.25631  0.16904  1.0000
  H   H4226     1.0  0.69770  0.25176  0.17863  1.0000
  H   H4227     1.0  0.72121  0.38064  0.18306  1.0000
  H   H4228     1.0  0.61159  0.27077  0.09445  1.0000
  C   C2487     1.0  0.65231  0.43297  0.02281  1.0000
  H   H4229     1.0  0.66766  0.44732  0.02372  1.0000
  C   C2488     1.0  0.51309  0.35216  0.08235  1.0000
  C   C2489     1.0  0.63384  0.31202  0.10324  1.0000
  C   C2490     1.0  0.52878  0.31571  0.12434  1.0000
  H   H4230     1.0  0.53409  0.33451  0.03608  1.0000
  C   C2491     1.0  0.56429  0.28859  0.11607  1.0000
  C   C2492     1.0  0.51513  0.33027  0.12502  1.0000
  H   H4231     1.0  0.72657  0.36408  0.21900  1.0000
  N   N176      1.0  0.51673  0.34380  0.11107  1.0000
  H   H4232     1.0  0.50429  0.34381  0.98829  1.0000
  N   N177      1.0  0.62561  0.36509  0.00842  1.0000
  H   H4233     1.0  0.64899  0.33907  0.11224  1.0000
  C   C2493     1.0  0.69131  0.47466  0.08154  1.0000
  H   H4234     1.0  0.50419  0.32619  0.12643  1.0000
  H   H4235     1.0  0.51830  0.39631  0.11654  1.0000
  N   N178      1.0  0.61717  0.24554  0.09603  1.0000
  H   H4236     1.0  0.54228  0.33964  0.10422  1.0000
  S   S744      1.0  0.55456  0.35574  0.06876  1.0000
  H   H4237     1.0  0.71012  0.34969  0.11451  1.0000
  C   C2494     1.0  0.68826  0.23614  0.34649  1.0000
  C   C2495     1.0  0.52588  0.39241  0.09297  1.0000
  C   C2496     1.0  0.53530  0.35276  0.12244  1.0000
  C   C2497     1.0  0.63147  0.41945  0.02529  1.0000
  C   C2498     1.0  0.52100  0.39256  0.07950  1.0000
  H   H4238     1.0  0.69474  0.39310  0.19019  1.0000
  H   H4239     1.0  0.63799  0.26015  0.10284  1.0000
  C   C2499     1.0  0.70949  0.38208  0.11681  1.0000
  C   C2500     1.0  0.72224  0.37291  0.12353  1.0000
  C   C2501     1.0  0.71969  0.36330  0.13867  1.0000
  C   C2502     1.0  0.70436  0.36319  0.14742  1.0000
  C   C2503     1.0  0.69159  0.37276  0.14097  1.0000
  C   C2504     1.0  0.69414  0.38205  0.12560  1.0000
  Fe  Fe372     1.0  0.64770  0.24018  0.13552  1.0000
  H   H4240     1.0  0.72961  0.35608  0.14360  1.0000
  H   H4241     1.0  0.67970  0.37279  0.14774  1.0000
  H   H4242     1.0  0.68424  0.38913  0.12055  1.0000
  C   C2505     1.0  0.71734  0.34518  0.20788  1.0000
  N   N179      1.0  0.63478  0.43499  0.02509  1.0000
  H   H4243     1.0  0.54007  0.31820  0.12444  1.0000
  H   H4244     1.0  0.49737  0.43417  0.10107  1.0000
  C   C2506     1.0  0.62822  0.44693  0.01190  1.0000
  H   H4245     1.0  0.60841  0.25342  0.11805  1.0000
  H   H4246     1.0  0.69711  0.46248  0.08172  1.0000
  H   H4247     1.0  0.72942  0.34092  0.21016  1.0000
  H   H4248     1.0  0.62159  0.31120  0.10419  1.0000
  H   H4249     1.0  0.72742  0.25579  0.10556  1.0000
  S   S745      1.0  0.65871  0.23915  0.15513  1.0000
  H   H4250     1.0  0.61051  0.33713  0.10757  1.0000
  C   C2507     1.0  0.53436  0.34442  0.02564  1.0000
  C   C2508     1.0  0.58447  0.27803  0.13141  1.0000
  C   C2509     1.0  0.59346  0.28857  0.12102  1.0000
  C   C2510     1.0  0.58749  0.29955  0.10842  1.0000
  H   H4251     1.0  0.51742  0.45109  0.08771  1.0000
  H   H4252     1.0  0.60478  0.28845  0.12289  1.0000
  H   H4253     1.0  0.59424  0.30788  0.10054  1.0000
  C   C2511     1.0  0.62661  0.36838  0.07339  1.0000
  C   C2512     1.0  0.61431  0.37974  0.07950  1.0000
  C   C2513     1.0  0.61761  0.39235  0.08320  1.0000
  C   C2514     1.0  0.63319  0.39378  0.08061  1.0000
  C   C2515     1.0  0.64552  0.38257  0.07420  1.0000
  C   C2516     1.0  0.64222  0.36982  0.07069  1.0000
  H   H4254     1.0  0.60224  0.37866  0.08171  1.0000
  H   H4255     1.0  0.60804  0.40100  0.08816  1.0000
  H   H4256     1.0  0.65756  0.38364  0.07213  1.0000
  H   H4257     1.0  0.65178  0.36105  0.06592  1.0000
  C   C2517     1.0  0.67418  0.39720  0.00392  1.0000
  C   C2518     1.0  0.68292  0.40827  0.99447  1.0000
  C   C2519     1.0  0.69092  0.41498  0.00128  1.0000
  C   C2520     1.0  0.68994  0.41089  0.01756  1.0000
  C   C2521     1.0  0.68144  0.39960  0.02695  1.0000
  C   C2522     1.0  0.67371  0.39266  0.02011  1.0000
  H   H4258     1.0  0.57737  0.25523  0.09392  1.0000
  H   H4259     1.0  0.69746  0.42373  0.99399  1.0000
  H   H4260     1.0  0.68066  0.39636  0.03950  1.0000
  H   H4261     1.0  0.66704  0.38403  0.02744  1.0000
  C   C2523     1.0  0.57869  0.33368  0.99528  1.0000
  C   C2524     1.0  0.57918  0.32890  0.01125  1.0000
  H   H4262     1.0  0.71846  0.24046  0.14358  1.0000
  C   C2525     1.0  0.57365  0.35607  0.01321  1.0000
  C   C2526     1.0  0.57331  0.36087  0.99721  1.0000
  H   H4263     1.0  0.49549  0.46857  0.09455  1.0000
  H   H4264     1.0  0.57127  0.37325  0.99171  1.0000
  H   H4265     1.0  0.63717  0.32134  0.09292  1.0000
  C   C2527     1.0  0.63011  0.35938  0.11495  1.0000
  H   H4266     1.0  0.51393  0.37858  0.01486  1.0000
  H   H4267     1.0  0.52967  0.38962  0.06923  1.0000
  H   H4268     1.0  0.52521  0.32854  0.99877  1.0000
  H   H4269     1.0  0.63096  0.43352  0.99401  1.0000
  C   C2528     1.0  0.63629  0.34261  0.11185  1.0000
  C   C2529     1.0  0.61235  0.35645  0.01409  1.0000
  C   C2530     1.0  0.63849  0.35871  0.99570  1.0000
  C   C2531     1.0  0.63526  0.44329  0.99538  1.0000
  H   H4270     1.0  0.56296  0.27000  0.13676  1.0000
  H   H4271     1.0  0.63610  0.34365  0.09939  1.0000
  H   H4272     1.0  0.53563  0.35456  0.02945  1.0000
  H   H4273     1.0  0.69391  0.23496  0.33428  1.0000
  H   H4274     1.0  0.71016  0.48024  0.08778  1.0000
  S   S746      1.0  0.54583  0.38722  0.09410  1.0000
  H   H4275     1.0  0.62222  0.46535  0.03390  1.0000
  H   H4276     1.0  0.54316  0.35480  0.99038  1.0000
  H   H4277     1.0  0.61960  0.45712  0.05444  1.0000
  H   H4278     1.0  0.64608  0.35092  0.03913  1.0000
  H   H4279     1.0  0.49617  0.46187  0.04538  1.0000
  H   H4280     1.0  0.64476  0.34661  0.99996  1.0000
  N   N180      1.0  0.51912  0.35883  0.00367  1.0000
  H   H4281     1.0  0.72834  0.35668  0.05648  1.0000
  C   C2532     1.0  0.51515  0.44276  0.08210  1.0000
  H   H4282     1.0  0.54708  0.35575  0.11887  1.0000
  H   H4283     1.0  0.72219  0.24946  0.08480  1.0000
  H   H4284     1.0  0.53425  0.37230  0.00653  1.0000
  H   H4285     1.0  0.64682  0.25714  0.08310  1.0000
  H   H4286     1.0  0.70700  0.33069  0.12493  1.0000
  H   H4287     1.0  0.54577  0.32824  0.99666  1.0000
  C   C2533     1.0  0.73362  0.32197  0.07032  1.0000
  C   C2534     1.0  0.61913  0.38207  0.00139  1.0000
  H   H4288     1.0  0.65622  0.42649  0.03391  1.0000
  N   N181      1.0  0.71309  0.36288  0.20317  1.0000
  H   H4289     1.0  0.50252  0.37088  0.98864  1.0000
  H   H4290     1.0  0.70941  0.35905  0.09009  1.0000
  C   C2535     1.0  0.69621  0.36762  0.20113  1.0000
  C   C2536     1.0  0.71477  0.36935  0.21611  1.0000
  H   H4291     1.0  0.71024  0.32452  0.22419  1.0000
  C   C2537     1.0  0.64107  0.34892  0.03012  1.0000
  C   C2538     1.0  0.69167  0.38268  0.18877  1.0000
  H   H4292     1.0  0.67873  0.38541  0.18974  1.0000
  C   C2539     1.0  0.69335  0.47717  0.03048  1.0000
  H   H4293     1.0  0.68976  0.46313  0.01550  1.0000
  H   H4294     1.0  0.63716  0.27632  0.08639  1.0000
  C   C2540     1.0  0.50302  0.36243  0.00010  1.0000
  C   C2541     1.0  0.49827  0.43998  0.08841  1.0000
  H   H4295     1.0  0.60459  0.24875  0.07785  1.0000
  H   H4296     1.0  0.70615  0.36603  0.22718  1.0000
  C   C2542     1.0  0.73996  0.35081  0.09130  1.0000
  H   H4297     1.0  0.65853  0.42543  0.01424  1.0000
  H   H4298     1.0  0.62966  0.45887  0.01102  1.0000
  H   H4299     1.0  0.62505  0.40767  0.05010  1.0000
  C   C2543     1.0  0.71615  0.33723  0.11749  1.0000
  H   H4300     1.0  0.50347  0.36098  0.12507  1.0000
  C   C2544     1.0  0.52220  0.37408  0.00459  1.0000
  C   C2545     1.0  0.51662  0.33876  0.09654  1.0000
  H   H4301     1.0  0.70530  0.23581  0.35932  1.0000
  H   H4302     1.0  0.68699  0.47296  0.04269  1.0000
  H   H4303     1.0  0.49733  0.43088  0.08285  1.0000
  C   C2546     1.0  0.60711  0.39172  0.01288  1.0000
  C   C2547     1.0  0.52095  0.38761  0.99000  1.0000
  H   H4304     1.0  0.63466  0.39468  0.03704  1.0000
  C   C2548     1.0  0.63458  0.40602  0.03956  1.0000
  H   H4305     1.0  0.62075  0.26516  0.07619  1.0000
  C   C2549     1.0  0.61085  0.33493  0.12022  1.0000
  H   H4306     1.0  0.66629  0.44823  0.00441  1.0000
  Fe  Fe373     1.0  0.57224  0.33551  0.07902  1.0000
  C   C2550     1.0  0.57588  0.34968  0.98824  1.0000
  C   C2551     1.0  0.53169  0.35226  0.99080  1.0000
  H   H4307     1.0  0.61896  0.42090  0.02480  1.0000
  H   H4308     1.0  0.63090  0.43060  0.05054  1.0000
  C   C2552     1.0  0.61688  0.33834  0.01613  1.0000
  C   C2553     1.0  0.57281  0.29956  0.10602  1.0000
  H   H4309     1.0  0.73208  0.35923  0.09845  1.0000
  C   C2554     1.0  0.62081  0.26166  0.08898  1.0000
  C   C2555     1.0  0.57660  0.34008  0.02024  1.0000
  H   H4310     1.0  0.61523  0.44818  0.01420  1.0000
  C   C2556     1.0  0.64295  0.32764  0.14357  1.0000
  C   C2557     1.0  0.60012  0.32349  0.13014  1.0000
  H   H4311     1.0  0.64731  0.33867  0.13897  1.0000
  H   H4312     1.0  0.65202  0.31798  0.13907  1.0000
  H   H4313     1.0  0.64154  0.32480  0.15656  1.0000
  H   H4314     1.0  0.68331  0.41185  0.98198  1.0000
  H   H4315     1.0  0.60655  0.31114  0.13291  1.0000
  H   H4316     1.0  0.59148  0.32358  0.12345  1.0000
  N   N182      1.0  0.70375  0.26393  0.11885  1.0000
  C   C2558     1.0  0.71239  0.38731  0.21297  1.0000
  H   H4317     1.0  0.62884  0.38849  0.99561  1.0000
  C   C2559     1.0  0.68841  0.27484  0.11582  1.0000
  C   C2560     1.0  0.71548  0.26215  0.10361  1.0000
  C   C2561     1.0  0.63664  0.26371  0.09052  1.0000
  H   H4318     1.0  0.62309  0.36946  0.03148  1.0000
  C   C2562     1.0  0.67614  0.26760  0.11302  1.0000
  C   C2563     1.0  0.71122  0.25459  0.09250  1.0000
  H   H4319     1.0  0.60175  0.40317  0.00599  1.0000
  H   H4320     1.0  0.71003  0.46353  0.01378  1.0000
  H   H4321     1.0  0.69591  0.24210  0.12311  1.0000
  C   C2564     1.0  0.61499  0.24259  0.11366  1.0000
  H   H4322     1.0  0.68213  0.28031  0.12610  1.0000
  H   H4323     1.0  0.69063  0.28473  0.10561  1.0000
  C   C2565     1.0  0.56991  0.27816  0.12886  1.0000
  H   H4324     1.0  0.52052  0.36083  0.07953  1.0000
  C   C2566     1.0  0.63246  0.36491  0.02191  1.0000
  H   H4325     1.0  0.53570  0.34274  0.13270  1.0000
  H   H4326     1.0  0.71751  0.27381  0.09648  1.0000
  H   H4327     1.0  0.65118  0.34308  0.02209  1.0000
  H   H4328     1.0  0.66383  0.47098  0.03815  1.0000
  H   H4329     1.0  0.69719  0.38087  0.17664  1.0000
  H   H4330     1.0  0.68070  0.26115  0.10344  1.0000
  H   H4331     1.0  0.66609  0.27715  0.10985  1.0000
  H   H4332     1.0  0.67125  0.25969  0.12392  1.0000
  H   H4333     1.0  0.70369  0.26344  0.08493  1.0000
  H   H4334     1.0  0.70564  0.24451  0.09862  1.0000
  C   C2567     1.0  0.50332  0.35746  0.11430  1.0000
  H   H4335     1.0  0.71678  0.29220  0.12911  1.0000
  H   H4336     1.0  0.52679  0.36328  0.12592  1.0000
  H   H4337     1.0  0.61378  0.33481  0.00675  1.0000
  H   H4338     1.0  0.50929  0.35337  0.02869  1.0000
  C   C2568     1.0  0.50482  0.39677  0.07927  1.0000
  H   H4339     1.0  0.63845  0.36681  0.10741  1.0000
  H   H4340     1.0  0.64608  0.40484  0.04233  1.0000
  H   H4341     1.0  0.58477  0.25477  0.11040  1.0000
  H   H4342     1.0  0.61858  0.36496  0.11168  1.0000
  H   H4343     1.0  0.61287  0.39442  0.02086  1.0000
  H   H4344     1.0  0.53257  0.35935  0.09865  1.0000
  H   H4345     1.0  0.70015  0.48234  0.99366  1.0000
  S   S747      1.0  0.56459  0.31268  0.09052  1.0000
  H   H4346     1.0  0.50465  0.36816  0.10492  1.0000
  H   H4347     1.0  0.69402  0.34078  0.22206  1.0000
  H   H4348     1.0  0.71899  0.29058  0.10939  1.0000
  H   H4349     1.0  0.62924  0.35987  0.12724  1.0000
  C   C2569     1.0  0.71063  0.27109  0.12791  1.0000
  H   H4350     1.0  0.61305  0.38298  0.99194  1.0000
  H   H4351     1.0  0.50104  0.39699  0.06886  1.0000
  H   H4352     1.0  0.69149  0.25025  0.13977  1.0000
  H   H4353     1.0  0.70785  0.34010  0.23357  1.0000
  H   H4354     1.0  0.60433  0.36081  0.00572  1.0000
  S   S748      1.0  0.58152  0.31942  0.98448  1.0000
  H   H4355     1.0  0.71672  0.32360  0.10120  1.0000
  H   H4356     1.0  0.72427  0.23737  0.33664  1.0000
  Fe  Fe374     1.0  0.56275  0.37001  0.08018  1.0000
  H   H4357     1.0  0.70010  0.39323  0.21216  1.0000
  H   H4358     1.0  0.72624  0.37192  0.06684  1.0000
  H   H4359     1.0  0.60494  0.35911  0.02548  1.0000
  C   C2570     1.0  0.62696  0.32936  0.13960  1.0000
  H   H4360     1.0  0.55315  0.28825  0.11411  1.0000
  H   H4361     1.0  0.69965  0.29643  0.12151  1.0000
  C   C2571     1.0  0.72419  0.36779  0.18778  1.0000
  H   H4362     1.0  0.59738  0.38582  0.01983  1.0000
  H   H4363     1.0  0.60476  0.34646  0.12334  1.0000
  H   H4364     1.0  0.72069  0.39201  0.20231  1.0000
  H   H4365     1.0  0.60963  0.33291  0.02726  1.0000
  C   C2572     1.0  0.71506  0.23660  0.13463  1.0000
  H   H4366     1.0  0.61875  0.33976  0.14379  1.0000
  H   H4367     1.0  0.58813  0.26948  0.09238  1.0000
  H   H4368     1.0  0.64086  0.37287  0.01795  1.0000
  C   C2573     1.0  0.63595  0.31465  0.11859  1.0000
  H   H4369     1.0  0.64156  0.30066  0.10096  1.0000
  H   H4370     1.0  0.62204  0.31912  0.14725  1.0000
  H   H4371     1.0  0.63251  0.30473  0.12824  1.0000
  H   H4372     1.0  0.63145  0.45376  0.98636  1.0000
  C   C2574     1.0  0.65921  0.44793  0.01661  1.0000
  H   H4373     1.0  0.50848  0.39296  0.98937  1.0000
  H   H4374     1.0  0.72301  0.36236  0.17863  1.0000
  N   N183      1.0  0.62748  0.33039  0.12258  1.0000
  H   H4375     1.0  0.57683  0.33632  0.03259  1.0000
  C   C2575     1.0  0.72488  0.32969  0.10319  1.0000
  S   S749      1.0  0.57887  0.34934  0.09221  1.0000
  C   C2576     1.0  0.53202  0.34877  0.10832  1.0000
  H   H4376     1.0  0.53773  0.33214  0.97999  1.0000
  H   H4377     1.0  0.51787  0.44685  0.06913  1.0000
  H   H4378     1.0  0.62926  0.33279  0.01661  1.0000
  C   C2577     1.0  0.51901  0.34814  0.01973  1.0000
  H   H4379     1.0  0.58139  0.31651  0.01672  1.0000
  H   H4380     1.0  0.71732  0.33997  0.19812  1.0000
  C   C2578     1.0  0.58750  0.25700  0.09738  1.0000
  H   H4381     1.0  0.49791  0.46987  0.06719  1.0000
  H   H4382     1.0  0.70965  0.36909  0.06198  1.0000
  H   H4383     1.0  0.51553  0.34716  0.07181  1.0000
  H   H4384     1.0  0.70445  0.47875  0.03226  1.0000
  H   H4385     1.0  0.72284  0.26452  0.12875  1.0000
  H   H4386     1.0  0.72529  0.23459  0.12480  1.0000
  C   C2579     1.0  0.72078  0.36277  0.06587  1.0000
  C   C2580     1.0  0.62620  0.43932  0.04066  1.0000
  H   H4387     1.0  0.49679  0.44344  0.05856  1.0000
  H   H4388     1.0  0.51366  0.33397  0.13617  1.0000
  H   H4389     1.0  0.69314  0.35827  0.19747  1.0000
  C   C2581     1.0  0.49856  0.40008  0.10607  1.0000
  H   H4390     1.0  0.54493  0.34090  0.01665  1.0000
  C   C2582     1.0  0.70657  0.33749  0.22279  1.0000
  H   H4391     1.0  0.63869  0.41489  0.01469  1.0000
  C   C2583     1.0  0.70075  0.24833  0.12901  1.0000
  C   C2584     1.0  0.71146  0.28856  0.12137  1.0000
  H   H4392     1.0  0.63905  0.45559  0.04301  1.0000
  H   H4393     1.0  0.62658  0.24004  0.11688  1.0000
  C   C2585     1.0  0.69835  0.46348  0.02192  1.0000
  N   N184      1.0  0.73081  0.34079  0.08826  1.0000
  C   C2586     1.0  0.71687  0.35141  0.08188  1.0000
  H   H4394     1.0  0.64830  0.44045  0.99265  1.0000
  H   H4395     1.0  0.63421  0.23761  0.07622  1.0000
  H   H4396     1.0  0.49677  0.33913  0.00956  1.0000
  H   H4397     1.0  0.72772  0.31351  0.07987  1.0000
  H   H4398     1.0  0.61351  0.43905  0.04299  1.0000
  H   H4399     1.0  0.73487  0.32023  0.10684  1.0000
  H   H4400     1.0  0.72057  0.23717  0.02147  1.0000
  C   C2587     1.0  0.67640  0.48037  0.07799  1.0000
  H   H4401     1.0  0.52592  0.39709  0.99106  1.0000
  H   H4402     1.0  0.70894  0.34447  0.08088  1.0000
  C   C2588     1.0  0.62697  0.45534  0.04275  1.0000
  H   H4403     1.0  0.73415  0.37309  0.11691  1.0000
  C   C2589     1.0  0.49358  0.40040  0.09266  1.0000
  H   H4404     1.0  0.64784  0.36564  0.99172  1.0000
  H   H4405     1.0  0.64836  0.48188  0.02818  1.0000
  C   C2590     1.0  0.65816  0.48298  0.03266  1.0000
  Fe  Fe375     1.0  0.54767  0.34022  0.94396  1.0000
  S   S750      1.0  0.55935  0.31587  0.95497  1.0000
  S   S751      1.0  0.52133  0.34768  0.95258  1.0000
  Fe  Fe376     1.0  0.57889  0.34974  0.92891  1.0000
  H   H4406     1.0  0.66114  0.44725  0.96378  1.0000
  S   S752      1.0  0.59256  0.36806  0.91412  1.0000
  Fe  Fe377     1.0  0.57657  0.31625  0.93174  1.0000
  S   S753      1.0  0.58978  0.29380  0.92356  1.0000
  S   S754      1.0  0.56374  0.33974  0.91993  1.0000
  H   H4407     1.0  0.66991  0.34499  0.91879  1.0000
  Fe  Fe378     1.0  0.67487  0.39268  0.93716  1.0000
  S   S755      1.0  0.65633  0.41230  0.92750  1.0000
  S   S756      1.0  0.69438  0.37609  0.92407  1.0000
  H   H4408     1.0  0.64199  0.32044  0.91835  1.0000
  H   H4409     1.0  0.63686  0.31041  0.89956  1.0000
  C   C2591     1.0  0.63455  0.34834  0.89785  1.0000
  S   S757      1.0  0.65786  0.38324  0.95845  1.0000
  H   H4410     1.0  0.62537  0.33416  0.85488  1.0000
  S   S758      1.0  0.66624  0.45064  0.93000  1.0000
  H   H4411     1.0  0.64014  0.24654  0.87634  1.0000
  C   C2592     1.0  0.61065  0.38983  0.94368  1.0000
  H   H4412     1.0  0.67722  0.32184  0.91125  1.0000
  H   H4413     1.0  0.55834  0.39607  0.90447  1.0000
  H   H4414     1.0  0.61708  0.32197  0.89877  1.0000
  H   H4415     1.0  0.62259  0.34747  0.90484  1.0000
  S   S759      1.0  0.56182  0.35210  0.95183  1.0000
  H   H4416     1.0  0.62029  0.30291  0.91094  1.0000
  C   C2593     1.0  0.65452  0.36067  0.93311  1.0000
  H   H4417     1.0  0.58795  0.25261  0.80996  1.0000
  C   C2594     1.0  0.62351  0.28819  0.85956  1.0000
  H   H4418     1.0  0.59692  0.37660  0.96364  1.0000
  C   C2595     1.0  0.64467  0.35210  0.90696  1.0000
  C   C2596     1.0  0.59565  0.37217  0.94190  1.0000
  S   S760      1.0  0.73844  0.25303  0.94567  1.0000
  H   H4419     1.0  0.61356  0.38936  0.90548  1.0000
  H   H4420     1.0  0.56580  0.42238  0.90164  1.0000
  H   H4421     1.0  0.56042  0.26057  0.79446  1.0000
  H   H4422     1.0  0.53431  0.28960  0.81921  1.0000
  H   H4423     1.0  0.69082  0.41022  0.91514  1.0000
  C   C2597     1.0  0.65160  0.32417  0.92083  1.0000
  H   H4424     1.0  0.72521  0.43794  0.88944  1.0000
  H   H4425     1.0  0.52755  0.38379  0.97896  1.0000
  H   H4426     1.0  0.50989  0.39264  0.90906  1.0000
  S   S761      1.0  0.59287  0.32645  0.93877  1.0000
  H   H4427     1.0  0.68631  0.24343  0.84640  1.0000
  C   C2598     1.0  0.57316  0.23668  0.79829  1.0000
  H   H4428     1.0  0.65630  0.35269  0.89887  1.0000
  H   H4429     1.0  0.71048  0.25363  0.79290  1.0000
  Fe  Fe379     1.0  0.69040  0.29418  0.86703  1.0000
  S   S762      1.0  0.71370  0.28458  0.85263  1.0000
  S   S763      1.0  0.67020  0.28218  0.87969  1.0000
  Fe  Fe380     1.0  0.69846  0.32543  0.86421  1.0000
  S   S764      1.0  0.72275  0.31880  0.84932  1.0000
  S   S765      1.0  0.68484  0.34878  0.87062  1.0000
  Fe  Fe381     1.0  0.71149  0.30839  0.83659  1.0000
  H   H4430     1.0  0.53918  0.43177  0.92601  1.0000
  Fe  Fe382     1.0  0.72371  0.29534  0.86606  1.0000
  N   N185      1.0  0.73672  0.26088  0.76695  1.0000
  S   S766      1.0  0.68701  0.31721  0.84975  1.0000
  S   S767      1.0  0.70059  0.30272  0.88218  1.0000
  Fe  Fe383     1.0  0.60188  0.24643  0.86179  1.0000
  S   S768      1.0  0.62146  0.24555  0.84027  1.0000
  S   S769      1.0  0.58571  0.26968  0.86576  1.0000
  Fe  Fe384     1.0  0.57469  0.32787  0.96101  1.0000
  H   H4431     1.0  0.64033  0.33748  0.89342  1.0000
  N   N186      1.0  0.56285  0.25440  0.81867  1.0000
  H   H4432     1.0  0.56594  0.42428  0.92985  1.0000
  H   H4433     1.0  0.53841  0.39441  0.91379  1.0000
  H   H4434     1.0  0.61728  0.29360  0.89133  1.0000
  H   H4435     1.0  0.62957  0.37038  0.97405  1.0000
  C   C2599     1.0  0.65131  0.24881  0.92077  1.0000
  H   H4436     1.0  0.61190  0.29153  0.85625  1.0000
  H   H4437     1.0  0.71144  0.26396  0.88622  1.0000
  C   C2600     1.0  0.57722  0.26138  0.81383  1.0000
  C   C2601     1.0  0.55313  0.39142  0.93068  1.0000
  H   H4438     1.0  0.71730  0.39695  0.90975  1.0000
  H   H4439     1.0  0.66258  0.33545  0.93817  1.0000
  C   C2602     1.0  0.73833  0.40592  0.90257  1.0000
  C   C2603     1.0  0.66756  0.26758  0.87193  1.0000
  C   C2604     1.0  0.65351  0.26222  0.87773  1.0000
  C   C2605     1.0  0.65107  0.25047  0.87193  1.0000
  H   H4440     1.0  0.70723  0.46124  0.88549  1.0000
  C   C2606     1.0  0.67712  0.24874  0.85510  1.0000
  C   C2607     1.0  0.67929  0.26098  0.86043  1.0000
  H   H4441     1.0  0.64445  0.26709  0.88677  1.0000
  H   H4442     1.0  0.66494  0.36237  0.93610  1.0000
  H   H4443     1.0  0.65817  0.23597  0.90251  1.0000
  H   H4444     1.0  0.69008  0.26518  0.85577  1.0000
  H   H4445     1.0  0.62409  0.24092  0.92210  1.0000
  C   C2608     1.0  0.73909  0.26020  0.92547  1.0000
  C   C2609     1.0  0.73575  0.28790  0.74755  1.0000
  H   H4446     1.0  0.62181  0.34011  0.92992  1.0000
  H   H4447     1.0  0.71657  0.44803  0.91414  1.0000
  H   H4448     1.0  0.54096  0.23733  0.84239  1.0000
  C   C2610     1.0  0.50548  0.38631  0.92076  1.0000
  H   H4449     1.0  0.72734  0.29376  0.89936  1.0000
  C   C2611     1.0  0.58100  0.26705  0.82671  1.0000
  H   H4450     1.0  0.64953  0.24723  0.93366  1.0000
  H   H4451     1.0  0.73989  0.31445  0.77966  1.0000
  H   H4452     1.0  0.54439  0.41957  0.95240  1.0000
  H   H4453     1.0  0.59411  0.32033  0.89525  1.0000
  C   C2612     1.0  0.66257  0.45908  0.95811  1.0000
  H   H4454     1.0  0.67865  0.41493  0.89266  1.0000
  H   H4455     1.0  0.51695  0.42178  0.94317  1.0000
  C   C2613     1.0  0.63064  0.33330  0.95089  1.0000
  H   H4456     1.0  0.72265  0.25142  0.73928  1.0000
  H   H4457     1.0  0.65265  0.32007  0.85226  1.0000
  H   H4458     1.0  0.73477  0.27458  0.78386  1.0000
  H   H4459     1.0  0.57636  0.40437  0.93245  1.0000
  C   C2614     1.0  0.69365  0.41984  0.90487  1.0000
  H   H4460     1.0  0.62319  0.40142  0.92161  1.0000
  C   C2615     1.0  0.57407  0.41476  0.90904  1.0000
  H   H4461     1.0  0.65390  0.31619  0.93211  1.0000
  H   H4462     1.0  0.68429  0.43032  0.90731  1.0000
  H   H4463     1.0  0.69755  0.43164  0.92480  1.0000
  C   C2616     1.0  0.56537  0.24011  0.83168  1.0000
  H   H4464     1.0  0.59781  0.33818  0.88087  1.0000
  H   H4465     1.0  0.54628  0.28284  0.80205  1.0000
  S   S770      1.0  0.64369  0.41961  0.96321  1.0000
  H   H4466     1.0  0.70854  0.26192  0.90685  1.0000
  C   C2617     1.0  0.53911  0.41973  0.92524  1.0000
  C   C2618     1.0  0.52206  0.41740  0.93213  1.0000
  H   H4467     1.0  0.56915  0.40184  0.95823  1.0000
  H   H4468     1.0  0.64998  0.33517  0.86245  1.0000
  C   C2619     1.0  0.51540  0.37306  0.92809  1.0000
  C   C2620     1.0  0.55085  0.39003  0.91487  1.0000
  H   H4469     1.0  0.72243  0.40535  0.88932  1.0000
  H   H4470     1.0  0.69209  0.24005  0.88766  1.0000
  C   C2621     1.0  0.54676  0.40748  0.95034  1.0000
  S   S771      1.0  0.71889  0.31152  0.81010  1.0000
  N   N187      1.0  0.62214  0.31206  0.87081  1.0000
  H   H4471     1.0  0.73301  0.43140  0.91387  1.0000
  C   C2622     1.0  0.69165  0.36864  0.90916  1.0000
  C   C2623     1.0  0.67992  0.37654  0.90071  1.0000
  C   C2624     1.0  0.67829  0.37050  0.88867  1.0000
  C   C2625     1.0  0.68807  0.35632  0.88522  1.0000
  C   C2626     1.0  0.69974  0.34835  0.89374  1.0000
  C   C2627     1.0  0.70163  0.35461  0.90554  1.0000
  H   H4472     1.0  0.67221  0.38738  0.90335  1.0000
  H   H4473     1.0  0.66928  0.37675  0.88207  1.0000
  H   H4474     1.0  0.70736  0.33744  0.89117  1.0000
  H   H4475     1.0  0.71077  0.34846  0.91199  1.0000
  C   C2628     1.0  0.62477  0.31013  0.89931  1.0000
  C   C2629     1.0  0.70120  0.45125  0.89034  1.0000
  H   H4476     1.0  0.72908  0.24047  0.89924  1.0000
  H   H4477     1.0  0.71262  0.26631  0.80375  1.0000
  H   H4478     1.0  0.58943  0.25765  0.83282  1.0000
  H   H4479     1.0  0.63932  0.36430  0.90859  1.0000
  H   H4480     1.0  0.71951  0.24740  0.76951  1.0000
  H   H4481     1.0  0.54449  0.38528  0.93990  1.0000
  H   H4482     1.0  0.72985  0.29540  0.75625  1.0000
  H   H4483     1.0  0.64276  0.29827  0.85786  1.0000
  C   C2630     1.0  0.58721  0.28690  0.90828  1.0000
  C   C2631     1.0  0.57597  0.29507  0.89928  1.0000
  C   C2632     1.0  0.57535  0.28956  0.88641  1.0000
  C   C2633     1.0  0.58591  0.27588  0.88254  1.0000
  C   C2634     1.0  0.59691  0.26765  0.89175  1.0000
  C   C2635     1.0  0.59750  0.27309  0.90458  1.0000
  H   H4484     1.0  0.56793  0.30569  0.90212  1.0000
  H   H4485     1.0  0.56677  0.29596  0.87935  1.0000
  H   H4486     1.0  0.60519  0.25726  0.88884  1.0000
  H   H4487     1.0  0.60622  0.26675  0.91148  1.0000
  C   C2636     1.0  0.59998  0.37600  0.92549  1.0000
  C   C2637     1.0  0.66527  0.46374  0.94172  1.0000
  H   H4488     1.0  0.66893  0.30768  0.90787  1.0000
  C   C2638     1.0  0.55866  0.39685  0.96033  1.0000
  C   C2639     1.0  0.61563  0.39315  0.92728  1.0000
  C   C2640     1.0  0.61010  0.38640  0.91818  1.0000
  H   H4489     1.0  0.64488  0.36105  0.94374  1.0000
  N   N188      1.0  0.64653  0.34101  0.92248  1.0000
  H   H4490     1.0  0.71770  0.27892  0.77618  1.0000
  C   C2641     1.0  0.60473  0.31663  0.87123  1.0000
  C   C2642     1.0  0.60074  0.37926  0.95095  1.0000
  H   H4491     1.0  0.52735  0.36908  0.92202  1.0000
  H   H4492     1.0  0.62913  0.31035  0.84626  1.0000
  H   H4493     1.0  0.58205  0.32974  0.88146  1.0000
  C   C2643     1.0  0.72143  0.40726  0.90121  1.0000
  C   C2644     1.0  0.64667  0.32395  0.86344  1.0000
  H   H4494     1.0  0.63314  0.35803  0.88737  1.0000
  Fe  Fe385     1.0  0.66206  0.42616  0.94167  1.0000
  S   S772      1.0  0.61526  0.39974  0.95535  1.0000
  H   H4495     1.0  0.62260  0.28055  0.87148  1.0000
  H   H4496     1.0  0.59970  0.30603  0.87441  1.0000
  N   N189      1.0  0.70978  0.42233  0.90378  1.0000
  H   H4497     1.0  0.71487  0.43229  0.87888  1.0000
  Fe  Fe386     1.0  0.63978  0.40393  0.94997  1.0000
  C   C2645     1.0  0.65895  0.34478  0.92813  1.0000
  H   H4498     1.0  0.65133  0.31526  0.87325  1.0000
  H   H4499     1.0  0.51452  0.42432  0.92367  1.0000
  C   C2646     1.0  0.70947  0.42544  0.91948  1.0000
  C   C2647     1.0  0.73138  0.27560  0.91990  1.0000
  C   C2648     1.0  0.72135  0.23915  0.87124  1.0000
  H   H4500     1.0  0.53558  0.40338  0.95569  1.0000
  C   C2649     1.0  0.73606  0.29867  0.80233  1.0000
  H   H4501     1.0  0.63169  0.28099  0.85127  1.0000
  C   C2650     1.0  0.73302  0.28175  0.90364  1.0000
  H   H4502     1.0  0.66587  0.32716  0.89630  1.0000
  C   C2651     1.0  0.69114  0.41565  0.89048  1.0000
  H   H4503     1.0  0.55403  0.37742  0.91435  1.0000
  H   H4504     1.0  0.69445  0.25714  0.89962  1.0000
  S   S773      1.0  0.68166  0.40697  0.94997  1.0000
  H   H4505     1.0  0.72781  0.24940  0.80103  1.0000
  C   C2652     1.0  0.62993  0.30274  0.85813  1.0000
  H   H4506     1.0  0.62351  0.33433  0.87464  1.0000
  H   H4507     1.0  0.66091  0.25533  0.91520  1.0000
  C   C2653     1.0  0.56061  0.25025  0.80452  1.0000
  C   C2654     1.0  0.63090  0.34312  0.93398  1.0000
  H   H4508     1.0  0.63129  0.23425  0.90458  1.0000
  C   C2655     1.0  0.54600  0.28266  0.81439  1.0000
  H   H4509     1.0  0.58519  0.23898  0.79475  1.0000
  H   H4510     1.0  0.72701  0.28610  0.74210  1.0000
  H   H4511     1.0  0.63740  0.29428  0.88441  1.0000
  H   H4512     1.0  0.69423  0.45251  0.90226  1.0000
  H   H4513     1.0  0.60257  0.32293  0.85932  1.0000
  H   H4514     1.0  0.58829  0.36383  0.94767  1.0000
  H   H4515     1.0  0.69830  0.40393  0.88872  1.0000
  H   H4516     1.0  0.73889  0.40493  0.91489  1.0000
  C   C2656     1.0  0.59439  0.32685  0.88292  1.0000
  H   H4517     1.0  0.54898  0.24713  0.80692  1.0000
  Fe  Fe387     1.0  0.66280  0.39930  0.97038  1.0000
  H   H4518     1.0  0.71172  0.41416  0.92822  1.0000
  H   H4519     1.0  0.56616  0.24354  0.84228  1.0000
  C   C2657     1.0  0.62538  0.30182  0.88632  1.0000
  H   H4520     1.0  0.57682  0.27110  0.80321  1.0000
  C   C2658     1.0  0.70720  0.25655  0.89778  1.0000
  H   H4521     1.0  0.52888  0.35821  0.97908  1.0000
  H   H4522     1.0  0.64066  0.25643  0.91675  1.0000
  C   C2659     1.0  0.62865  0.32671  0.86603  1.0000
  H   H4523     1.0  0.71228  0.24996  0.86830  1.0000
  C   C2660     1.0  0.73758  0.24351  0.86595  1.0000
  C   C2661     1.0  0.66673  0.32024  0.90830  1.0000
  H   H4524     1.0  0.72443  0.28287  0.92814  1.0000
  C   C2662     1.0  0.50963  0.36467  0.94310  1.0000
  C   C2663     1.0  0.56701  0.41288  0.92680  1.0000
  H   H4525     1.0  0.58429  0.42036  0.90611  1.0000
  H   H4526     1.0  0.54155  0.42015  0.91246  1.0000
  H   H4527     1.0  0.56486  0.38406  0.93222  1.0000
  H   H4528     1.0  0.57060  0.27078  0.83574  1.0000
  C   C2664     1.0  0.71705  0.23956  0.89967  1.0000
  N   N190      1.0  0.55153  0.40771  0.93293  1.0000
  H   H4529     1.0  0.57893  0.40316  0.90582  1.0000
  H   H4530     1.0  0.73539  0.28036  0.82329  1.0000
  H   H4531     1.0  0.55495  0.28876  0.81471  1.0000
  C   C2665     1.0  0.72724  0.26908  0.78013  1.0000
  H   H4532     1.0  0.62639  0.35563  0.93471  1.0000
  H   H4533     1.0  0.57045  0.23515  0.78764  1.0000
  H   H4534     1.0  0.56241  0.38471  0.95837  1.0000
  C   C2666     1.0  0.66173  0.46976  0.96717  1.0000
  C   C2667     1.0  0.49399  0.36968  0.95077  1.0000
  H   H4535     1.0  0.61883  0.33688  0.95838  1.0000
  C   C2668     1.0  0.71358  0.43562  0.89017  1.0000
  H   H4536     1.0  0.69333  0.42471  0.87957  1.0000
  H   H4537     1.0  0.65131  0.37072  0.92353  1.0000
  C   C2669     1.0  0.66297  0.24351  0.86081  1.0000
  H   H4538     1.0  0.58638  0.27744  0.82129  1.0000
  H   H4539     1.0  0.55307  0.39606  0.97300  1.0000
  H   H4540     1.0  0.63235  0.32059  0.95139  1.0000
  H   H4541     1.0  0.73652  0.23625  0.74905  1.0000
  H   H4542     1.0  0.72044  0.43516  0.93206  1.0000
  H   H4543     1.0  0.64325  0.35214  0.97324  1.0000
  C   C2670     1.0  0.72065  0.43552  0.91964  1.0000
  H   H4544     1.0  0.63939  0.33519  0.95623  1.0000
  H   H4545     1.0  0.52122  0.40496  0.93450  1.0000
  C   C2671     1.0  0.54822  0.26585  0.82460  1.0000
  H   H4546     1.0  0.69318  0.45267  0.88248  1.0000
  H   H4547     1.0  0.53747  0.26159  0.82564  1.0000
  H   H4548     1.0  0.73737  0.25383  0.85592  1.0000
  C   C2672     1.0  0.72536  0.25632  0.76047  1.0000
  H   H4549     1.0  0.71532  0.26631  0.75806  1.0000
  H   H4550     1.0  0.65958  0.46611  0.97983  1.0000
  C   C2673     1.0  0.73211  0.24916  0.74576  1.0000
  H   H4551     1.0  0.54760  0.26672  0.83678  1.0000
  C   C2674     1.0  0.71918  0.25878  0.79517  1.0000
  H   H4552     1.0  0.57588  0.35343  0.97587  1.0000
  C   C2675     1.0  0.66730  0.47910  0.93447  1.0000
  H   H4553     1.0  0.74068  0.24736  0.87501  1.0000
  H   H4554     1.0  0.66940  0.48279  0.92179  1.0000
  S   S774      1.0  0.66123  0.53314  0.98533  1.0000
  H   H4555     1.0  0.51407  0.64075  0.02136  1.0000
  N   N191      1.0  0.71304  0.72348  0.12067  1.0000
  H   H4556     1.0  0.67804  0.61552  0.12512  1.0000
  Fe  Fe388     1.0  0.53899  0.61879  0.08387  1.0000
  S   S775      1.0  0.54954  0.63949  0.06984  1.0000
  S   S776      1.0  0.51341  0.61870  0.08599  1.0000
  Fe  Fe389     1.0  0.56974  0.60015  0.09283  1.0000
  S   S777      1.0  0.58305  0.61892  0.07939  1.0000
  S   S778      1.0  0.58121  0.57592  0.10393  1.0000
  Fe  Fe390     1.0  0.56167  0.63540  0.08974  1.0000
  S   S779      1.0  0.56231  0.65666  0.09810  1.0000
  Fe  Fe391     1.0  0.57012  0.62154  0.06068  1.0000
  S   S780      1.0  0.58300  0.62123  0.03566  1.0000
  S   S781      1.0  0.54913  0.61622  0.10476  1.0000
  S   S782      1.0  0.55876  0.60125  0.07319  1.0000
  Fe  Fe392     1.0  0.69994  0.56938  0.08393  1.0000
  S   S783      1.0  0.67692  0.58424  0.07915  1.0000
  S   S784      1.0  0.71875  0.58141  0.08385  1.0000
  Fe  Fe393     1.0  0.66628  0.56626  0.09839  1.0000
  S   S785      1.0  0.64617  0.57706  0.11580  1.0000
  Fe  Fe394     1.0  0.67862  0.56848  0.06335  1.0000
  S   S786      1.0  0.67000  0.57908  0.04082  1.0000
  H   H4557     1.0  0.53620  0.54467  0.12889  1.0000
  H   H4558     1.0  0.53170  0.59080  0.07426  1.0000
  C   C2676     1.0  0.50865  0.63433  0.04667  1.0000
  Fe  Fe395     1.0  0.71557  0.64067  0.16408  1.0000
  S   S787      1.0  0.69292  0.65323  0.17714  1.0000
  Fe  Fe396     1.0  0.73969  0.64415  0.13350  1.0000
  Fe  Fe397     1.0  0.64107  0.70941  0.12615  1.0000
  S   S788      1.0  0.63500  0.70418  0.10611  1.0000
  S   S789      1.0  0.66663  0.70759  0.12441  1.0000
  Fe  Fe398     1.0  0.60714  0.71852  0.14268  1.0000
  S   S790      1.0  0.59802  0.71379  0.12403  1.0000
  N   N192      1.0  0.73862  0.53009  0.10423  1.0000
  Fe  Fe399     1.0  0.61738  0.69198  0.12453  1.0000
  S   S791      1.0  0.61793  0.66774  0.12135  1.0000
  H   H4559     1.0  0.57217  0.73356  0.10212  1.0000
  C   C2677     1.0  0.51242  0.59844  0.12746  1.0000
  S   S792      1.0  0.62501  0.69552  0.14480  1.0000
  H   H4560     1.0  0.60323  0.59492  0.02018  1.0000
  C   C2678     1.0  0.68541  0.66885  0.16299  1.0000
  C   C2679     1.0  0.69490  0.67230  0.14800  1.0000
  C   C2680     1.0  0.68895  0.68407  0.13620  1.0000
  C   C2681     1.0  0.67354  0.69273  0.13940  1.0000
  C   C2682     1.0  0.66402  0.68956  0.15447  1.0000
  C   C2683     1.0  0.66997  0.67757  0.16631  1.0000
  H   H4561     1.0  0.70694  0.66601  0.14543  1.0000
  H   H4562     1.0  0.69630  0.68631  0.12454  1.0000
  H   H4563     1.0  0.65215  0.69643  0.15706  1.0000
  H   H4564     1.0  0.66259  0.67500  0.17793  1.0000
  C   C2684     1.0  0.69585  0.64867  0.21930  1.0000
  H   H4565     1.0  0.51203  0.54354  0.12606  1.0000
  H   H4566     1.0  0.73724  0.71205  0.12162  1.0000
  H   H4567     1.0  0.61960  0.61281  0.01391  1.0000
  H   H4568     1.0  0.70938  0.52817  0.12953  1.0000
  C   C2685     1.0  0.73664  0.65712  0.21479  1.0000
  H   H4569     1.0  0.56457  0.62548  0.98828  1.0000
  H   H4570     1.0  0.72083  0.70180  0.11227  1.0000
  C   C2686     1.0  0.62264  0.60207  0.02299  1.0000
  N   N193      1.0  0.58987  0.71212  0.07253  1.0000
  C   C2687     1.0  0.59999  0.56612  0.06320  1.0000
  C   C2688     1.0  0.66698  0.62319  0.12215  1.0000
  H   H4571     1.0  0.59881  0.71744  0.03886  1.0000
  H   H4572     1.0  0.67099  0.51456  0.02927  1.0000
  C   C2689     1.0  0.49204  0.60264  0.08524  1.0000
  H   H4573     1.0  0.73903  0.60344  0.11594  1.0000
  N   N194      1.0  0.72320  0.65557  0.20896  1.0000
  H   H4574     1.0  0.61778  0.60541  0.03452  1.0000
  H   H4575     1.0  0.60238  0.56705  0.07426  1.0000
  H   H4576     1.0  0.65744  0.50067  0.07508  1.0000
  C   C2690     1.0  0.61551  0.58911  0.02138  1.0000
  C   C2691     1.0  0.72970  0.67817  0.18528  1.0000
  H   H4577     1.0  0.62445  0.68346  0.07395  1.0000
  H   H4578     1.0  0.70777  0.69530  0.15606  1.0000
  H   H4579     1.0  0.51599  0.60618  0.00726  1.0000
  H   H4580     1.0  0.61404  0.69067  0.09157  1.0000
  H   H4581     1.0  0.73916  0.64473  0.19038  1.0000
  H   H4582     1.0  0.54628  0.56202  0.14800  1.0000
  H   H4583     1.0  0.50257  0.60542  0.05122  1.0000
  C   C2692     1.0  0.50967  0.57582  0.99006  1.0000
  C   C2693     1.0  0.71858  0.58605  0.10158  1.0000
  C   C2694     1.0  0.70888  0.58024  0.11575  1.0000
  C   C2695     1.0  0.71058  0.58216  0.13002  1.0000
  C   C2696     1.0  0.72154  0.59042  0.13016  1.0000
  H   H4584     1.0  0.52072  0.62961  0.04884  1.0000
  H   H4585     1.0  0.70049  0.57376  0.11581  1.0000
  H   H4586     1.0  0.70354  0.57705  0.14101  1.0000
  H   H4587     1.0  0.73071  0.50914  0.10513  1.0000
  C   C2697     1.0  0.57778  0.65889  0.10522  1.0000
  C   C2698     1.0  0.57558  0.67227  0.11120  1.0000
  C   C2699     1.0  0.58776  0.67503  0.11623  1.0000
  C   C2700     1.0  0.60228  0.66438  0.11542  1.0000
  C   C2701     1.0  0.60444  0.65081  0.10972  1.0000
  C   C2702     1.0  0.59223  0.64807  0.10463  1.0000
  H   H4588     1.0  0.56432  0.68050  0.11204  1.0000
  H   H4589     1.0  0.58583  0.68527  0.12098  1.0000
  H   H4590     1.0  0.61556  0.64238  0.10930  1.0000
  H   H4591     1.0  0.59392  0.63756  0.10041  1.0000
  C   C2703     1.0  0.59888  0.57581  0.10835  1.0000
  C   C2704     1.0  0.60061  0.58876  0.11272  1.0000
  C   C2705     1.0  0.61500  0.58876  0.11571  1.0000
  C   C2706     1.0  0.62781  0.57608  0.11375  1.0000
  C   C2707     1.0  0.62603  0.56309  0.10949  1.0000
  C   C2708     1.0  0.61148  0.56284  0.10704  1.0000
  H   H4592     1.0  0.59083  0.59871  0.11393  1.0000
  H   H4593     1.0  0.61631  0.59873  0.11921  1.0000
  H   H4594     1.0  0.63585  0.55319  0.10817  1.0000
  H   H4595     1.0  0.61012  0.55277  0.10377  1.0000
  C   C2709     1.0  0.69169  0.55096  0.00242  1.0000
  C   C2710     1.0  0.67847  0.56806  0.02624  1.0000
  C   C2711     1.0  0.67118  0.57093  0.01367  1.0000
  C   C2712     1.0  0.67753  0.56210  0.00203  1.0000
  H   H4596     1.0  0.66061  0.57997  0.01291  1.0000
  H   H4597     1.0  0.73980  0.53820  0.06371  1.0000
  C   C2713     1.0  0.54915  0.64169  0.00228  1.0000
  C   C2714     1.0  0.56242  0.62986  0.99878  1.0000
  C   C2715     1.0  0.57298  0.62374  0.00892  1.0000
  C   C2716     1.0  0.57006  0.62918  0.02274  1.0000
  C   C2717     1.0  0.55674  0.64090  0.02623  1.0000
  C   C2718     1.0  0.54640  0.64724  0.01596  1.0000
  S   S793      1.0  0.53537  0.64926  0.99028  1.0000
  H   H4598     1.0  0.58328  0.61470  0.00612  1.0000
  H   H4599     1.0  0.55457  0.64539  0.03666  1.0000
  H   H4600     1.0  0.53619  0.65643  0.01869  1.0000
  C   C2719     1.0  0.51941  0.59055  0.07692  1.0000
  H   H4601     1.0  0.52379  0.56786  0.07140  1.0000
  C   C2720     1.0  0.66900  0.49620  0.07776  1.0000
  C   C2721     1.0  0.63609  0.55273  0.04835  1.0000
  C   C2722     1.0  0.68434  0.61647  0.15154  1.0000
  N   N195      1.0  0.61578  0.57455  0.03450  1.0000
  H   H4602     1.0  0.69909  0.63782  0.21469  1.0000
  H   H4603     1.0  0.49467  0.63772  0.03009  1.0000
  C   C2723     1.0  0.60686  0.71986  0.04471  1.0000
  H   H4604     1.0  0.73137  0.72131  0.08899  1.0000
  H   H4605     1.0  0.58424  0.57310  0.03745  1.0000
  C   C2724     1.0  0.50804  0.60292  0.08237  1.0000
  N   N196      1.0  0.51245  0.61630  0.02753  1.0000
  H   H4606     1.0  0.59175  0.57794  0.01639  1.0000
  C   C2725     1.0  0.67085  0.66135  0.11522  1.0000
  H   H4607     1.0  0.71860  0.69137  0.13738  1.0000
  C   C2726     1.0  0.67640  0.50628  0.08106  1.0000
  H   H4608     1.0  0.67161  0.56420  0.99259  1.0000
  H   H4609     1.0  0.70972  0.50895  0.12788  1.0000
  H   H4610     1.0  0.68548  0.49969  0.98814  1.0000
  H   H4611     1.0  0.73250  0.52248  0.07793  1.0000
  H   H4612     1.0  0.59650  0.71668  0.09170  1.0000
  H   H4613     1.0  0.71015  0.53972  0.01514  1.0000
  H   H4614     1.0  0.66577  0.67270  0.11901  1.0000
  H   H4615     1.0  0.61034  0.55165  0.03806  1.0000
  H   H4616     1.0  0.72750  0.72755  0.14362  1.0000
  H   H4617     1.0  0.55281  0.54206  0.14627  1.0000
  H   H4618     1.0  0.50496  0.56682  0.00012  1.0000
  C   C2727     1.0  0.53334  0.55462  0.13479  1.0000
  C   C2728     1.0  0.67158  0.63116  0.15477  1.0000
  C   C2729     1.0  0.63865  0.64982  0.16112  1.0000
  N   N197      1.0  0.63276  0.61671  0.06893  1.0000
  C   C2730     1.0  0.62369  0.60409  0.07189  1.0000
  C   C2731     1.0  0.62141  0.63234  0.06580  1.0000
  C   C2732     1.0  0.63777  0.61496  0.08401  1.0000
  C   C2733     1.0  0.64667  0.61444  0.05540  1.0000
  C   C2734     1.0  0.63345  0.58710  0.07258  1.0000
  C   C2735     1.0  0.61592  0.63677  0.05012  1.0000
  C   C2736     1.0  0.64837  0.62569  0.08382  1.0000
  C   C2737     1.0  0.65506  0.62829  0.04747  1.0000
  H   H4619     1.0  0.61466  0.60411  0.08307  1.0000
  H   H4620     1.0  0.61707  0.60625  0.06262  1.0000
  H   H4621     1.0  0.62618  0.64220  0.06611  1.0000
  H   H4622     1.0  0.61065  0.63274  0.07544  1.0000
  H   H4623     1.0  0.62722  0.61686  0.09373  1.0000
  H   H4624     1.0  0.64431  0.60285  0.08797  1.0000
  H   H4625     1.0  0.65576  0.60404  0.05923  1.0000
  H   H4626     1.0  0.64313  0.61143  0.04592  1.0000
  H   H4627     1.0  0.62533  0.57890  0.07678  1.0000
  H   H4628     1.0  0.64019  0.58539  0.06076  1.0000
  H   H4629     1.0  0.64158  0.58347  0.08067  1.0000
  H   H4630     1.0  0.62584  0.63630  0.03976  1.0000
  H   H4631     1.0  0.60800  0.62945  0.04999  1.0000
  H   H4632     1.0  0.60891  0.64904  0.04860  1.0000
  H   H4633     1.0  0.66028  0.62255  0.07642  1.0000
  H   H4634     1.0  0.65006  0.62370  0.09595  1.0000
  H   H4635     1.0  0.64314  0.63834  0.08038  1.0000
  H   H4636     1.0  0.66766  0.62441  0.04821  1.0000
  H   H4637     1.0  0.65007  0.63885  0.05248  1.0000
  H   H4638     1.0  0.65495  0.63186  0.03474  1.0000
  C   C2738     1.0  0.67685  0.64838  0.12866  1.0000
  H   H4639     1.0  0.58093  0.70674  0.09781  1.0000
  H   H4640     1.0  0.64278  0.64562  0.17231  1.0000
  H   H4641     1.0  0.63791  0.57624  0.03814  1.0000
  C   C2739     1.0  0.69916  0.54828  0.01482  1.0000
  H   H4642     1.0  0.49279  0.59407  0.00095  1.0000
  Fe  Fe400     1.0  0.61643  0.72613  0.10723  1.0000
  H   H4643     1.0  0.55808  0.55701  0.12960  1.0000
  H   H4644     1.0  0.55097  0.59271  0.02446  1.0000
  C   C2740     1.0  0.53973  0.59746  0.02038  1.0000
  H   H4645     1.0  0.66032  0.61545  0.12035  1.0000
  H   H4646     1.0  0.69371  0.61891  0.14099  1.0000
  C   C2741     1.0  0.69648  0.49518  0.99260  1.0000
  H   H4647     1.0  0.72531  0.51198  0.13448  1.0000
  C   C2742     1.0  0.54845  0.55416  0.13983  1.0000
  H   H4648     1.0  0.63345  0.64092  0.15928  1.0000
  C   C2743     1.0  0.51489  0.57760  0.07521  1.0000
  H   H4649     1.0  0.51966  0.60421  0.11659  1.0000
  H   H4650     1.0  0.69903  0.49793  0.04538  1.0000
  H   H4651     1.0  0.64637  0.63971  0.13018  1.0000
  S   S794      1.0  0.71726  0.63563  0.14078  1.0000
  S   S795      1.0  0.70035  0.54077  0.98719  1.0000
  H   H4652     1.0  0.59514  0.58827  0.04717  1.0000
  H   H4653     1.0  0.65146  0.62313  0.14498  1.0000
  H   H4654     1.0  0.61170  0.72998  0.03681  1.0000
  H   H4655     1.0  0.66255  0.62657  0.16476  1.0000
  H   H4656     1.0  0.66307  0.50263  0.01359  1.0000
  S   S796      1.0  0.62398  0.73254  0.12566  1.0000
  H   H4657     1.0  0.67906  0.60714  0.15070  1.0000
  C   C2744     1.0  0.71005  0.65220  0.22293  1.0000
  H   H4658     1.0  0.69025  0.65861  0.21090  1.0000
  H   H4659     1.0  0.73687  0.68260  0.19053  1.0000
  H   H4660     1.0  0.58873  0.55872  0.02581  1.0000
  H   H4661     1.0  0.62178  0.58600  0.00985  1.0000
  C   C2745     1.0  0.73317  0.67067  0.22335  1.0000
  H   H4662     1.0  0.71931  0.70820  0.31933  1.0000
  C   C2746     1.0  0.50417  0.58945  0.03734  1.0000
  H   H4663     1.0  0.60711  0.72678  0.06553  1.0000
  C   C2747     1.0  0.71709  0.67042  0.19785  1.0000
  H   H4664     1.0  0.70945  0.66814  0.19133  1.0000
  C   C2748     1.0  0.70552  0.71605  0.13711  1.0000
  C   C2749     1.0  0.73448  0.62587  0.21000  1.0000
  S   S797      1.0  0.49407  0.56004  0.07720  1.0000
  H   H4665     1.0  0.61698  0.70972  0.04585  1.0000
  H   H4666     1.0  0.65740  0.66231  0.15053  1.0000
  H   H4667     1.0  0.57865  0.70848  0.05597  1.0000
  H   H4668     1.0  0.64907  0.54878  0.04713  1.0000
  C   C2750     1.0  0.49556  0.62483  0.00649  1.0000
  H   H4669     1.0  0.70533  0.66236  0.22879  1.0000
  H   H4670     1.0  0.70924  0.67949  0.20431  1.0000
  H   H4671     1.0  0.63567  0.59875  0.02076  1.0000
  H   H4672     1.0  0.50932  0.60623  0.13591  1.0000
  S   S798      1.0  0.70077  0.51289  0.08916  1.0000
  N   N198      1.0  0.68427  0.49258  0.02265  1.0000
  C   C2751     1.0  0.50152  0.60648  0.03905  1.0000
  C   C2752     1.0  0.60587  0.57923  0.04955  1.0000
  C   C2753     1.0  0.69868  0.48474  0.08494  1.0000
  C   C2754     1.0  0.66972  0.49089  0.01878  1.0000
  H   H4673     1.0  0.61234  0.58505  0.05421  1.0000
  H   H4674     1.0  0.69398  0.71381  0.13732  1.0000
  H   H4675     1.0  0.67678  0.63831  0.15941  1.0000
  C   C2755     1.0  0.67886  0.50343  0.03403  1.0000
  H   H4676     1.0  0.72088  0.72156  0.30064  1.0000
  H   H4677     1.0  0.72406  0.68085  0.21941  1.0000
  C   C2756     1.0  0.69125  0.50058  0.08472  1.0000
  H   H4678     1.0  0.65270  0.49006  0.04176  1.0000
  C   C2757     1.0  0.54144  0.55364  0.98447  1.0000
  C   C2758     1.0  0.58571  0.71613  0.08844  1.0000
  H   H4679     1.0  0.53436  0.58743  0.02190  1.0000
  H   H4680     1.0  0.58699  0.56787  0.06531  1.0000
  H   H4681     1.0  0.72587  0.70158  0.14739  1.0000
  H   H4682     1.0  0.70670  0.49858  0.00985  1.0000
  H   H4683     1.0  0.50206  0.55513  0.11087  1.0000
  S   S799      1.0  0.66595  0.55158  0.08221  1.0000
  Fe  Fe401     1.0  0.69014  0.53901  0.08623  1.0000
  C   C2759     1.0  0.59832  0.72411  0.06074  1.0000
  H   H4684     1.0  0.69534  0.58833  0.99282  1.0000
  C   C2760     1.0  0.63273  0.56769  0.03562  1.0000
  H   H4685     1.0  0.59379  0.68719  0.08268  1.0000
  C   C2761     1.0  0.71515  0.70023  0.14472  1.0000
  C   C2762     1.0  0.61579  0.69336  0.07857  1.0000
  H   H4686     1.0  0.51994  0.54561  0.98889  1.0000
  H   H4687     1.0  0.66188  0.65830  0.11105  1.0000
  H   H4688     1.0  0.49652  0.62419  0.99418  1.0000
  H   H4689     1.0  0.73752  0.67007  0.17782  1.0000
  H   H4690     1.0  0.71993  0.64176  0.19442  1.0000
  H   H4691     1.0  0.68327  0.65370  0.13398  1.0000
  C   C2763     1.0  0.60967  0.56312  0.02965  1.0000
  S   S800      1.0  0.72467  0.59102  0.14829  1.0000
  H   H4692     1.0  0.71442  0.64223  0.23214  1.0000
  H   H4693     1.0  0.63192  0.54284  0.04711  1.0000
  H   H4694     1.0  0.71143  0.73181  0.08764  1.0000
  H   H4695     1.0  0.63133  0.55509  0.06034  1.0000
  H   H4696     1.0  0.68678  0.64681  0.23034  1.0000
  H   H4697     1.0  0.63987  0.56500  0.02412  1.0000
  H   H4698     1.0  0.54288  0.60294  0.00768  1.0000
  H   H4699     1.0  0.68996  0.51322  0.00539  1.0000
  H   H4700     1.0  0.60540  0.55396  0.06183  1.0000
  H   H4701     1.0  0.73374  0.53566  0.12726  1.0000
  C   C2764     1.0  0.71316  0.71367  0.10962  1.0000
  C   C2765     1.0  0.69461  0.50027  0.00803  1.0000
  C   C2766     1.0  0.56412  0.70222  0.07867  1.0000
  H   H4702     1.0  0.69817  0.55439  0.03646  1.0000
  C   C2767     1.0  0.72902  0.64242  0.20021  1.0000
  H   H4703     1.0  0.50905  0.57860  0.11043  1.0000
  H   H4704     1.0  0.56961  0.68952  0.08010  1.0000
  H   H4705     1.0  0.52439  0.55143  0.14567  1.0000
  C   C2768     1.0  0.51180  0.61765  0.01074  1.0000
  C   C2769     1.0  0.65192  0.65456  0.14708  1.0000
  C   C2770     1.0  0.59259  0.56873  0.02729  1.0000
  N   N199      1.0  0.66433  0.64124  0.14116  1.0000
  H   H4706     1.0  0.55366  0.70405  0.07370  1.0000
  H   H4707     1.0  0.60242  0.69147  0.06273  1.0000
  C   C2771     1.0  0.73205  0.73270  0.13113  1.0000
  C   C2772     1.0  0.65660  0.63198  0.13511  1.0000
  H   H4708     1.0  0.55965  0.70537  0.09033  1.0000
  H   H4709     1.0  0.52004  0.62493  0.00266  1.0000
  H   H4710     1.0  0.67052  0.51840  0.08093  1.0000
  H   H4711     1.0  0.68608  0.63937  0.12319  1.0000
  C   C2773     1.0  0.51212  0.56875  0.12032  1.0000
  C   C2774     1.0  0.51262  0.55347  0.11566  1.0000
  C   C2775     1.0  0.60008  0.69579  0.07369  1.0000
  C   C2776     1.0  0.72976  0.72409  0.11969  1.0000
  H   H4712     1.0  0.70123  0.71153  0.11122  1.0000
  H   H4713     1.0  0.52925  0.60454  0.04251  1.0000
  H   H4714     1.0  0.62902  0.66035  0.16253  1.0000
  H   H4715     1.0  0.64583  0.66220  0.13763  1.0000
  C   C2777     1.0  0.69240  0.55661  0.02688  1.0000
  H   H4716     1.0  0.62136  0.70361  0.07376  1.0000
  S   S801      1.0  0.62727  0.57079  0.98455  1.0000
  S   S802      1.0  0.70286  0.55509  0.06620  1.0000
  H   H4717     1.0  0.73513  0.73003  0.10772  1.0000
  H   H4718     1.0  0.66983  0.63144  0.11073  1.0000
  S   S803      1.0  0.68931  0.55224  0.10432  1.0000
  N   N200      1.0  0.52661  0.56996  0.12475  1.0000
  C   C2778     1.0  0.52160  0.58217  0.13467  1.0000
  C   C2779     1.0  0.53853  0.57536  0.11032  1.0000
  C   C2780     1.0  0.54732  0.56359  0.09964  1.0000
  H   H4719     1.0  0.53197  0.58444  0.13731  1.0000
  H   H4720     1.0  0.53287  0.58599  0.10263  1.0000
  H   H4721     1.0  0.54749  0.57962  0.11335  1.0000
  H   H4722     1.0  0.54061  0.56417  0.09090  1.0000
  H   H4723     1.0  0.55047  0.55134  0.10608  1.0000
  H   H4724     1.0  0.55881  0.56657  0.09309  1.0000
  H   H4725     1.0  0.69023  0.61153  0.16165  1.0000
  H   H4726     1.0  0.50013  0.62878  0.05649  1.0000
  C   C2781     1.0  0.52916  0.60976  0.02985  1.0000
  H   H4727     1.0  0.73792  0.61726  0.20236  1.0000
  H   H4728     1.0  0.72377  0.68845  0.17745  1.0000
  H   H4729     1.0  0.50168  0.56997  0.13027  1.0000
  C   C2782     1.0  0.57535  0.71248  0.06723  1.0000
  H   H4730     1.0  0.70267  0.72419  0.14521  1.0000
  H   H4731     1.0  0.53572  0.61931  0.02659  1.0000
  H   H4732     1.0  0.68089  0.66328  0.10512  1.0000
  C   C2783     1.0  0.49894  0.57716  0.07833  1.0000
  H   H4733     1.0  0.56236  0.73219  0.08813  1.0000
  H   H4734     1.0  0.71640  0.52674  0.10242  1.0000
  S   S804      1.0  0.73661  0.65138  0.15610  1.0000
  H   H4735     1.0  0.61729  0.56017  0.01841  1.0000
  H   H4736     1.0  0.51923  0.57867  0.99355  1.0000
  H   H4737     1.0  0.67180  0.49806  0.04536  1.0000
  H   H4738     1.0  0.71826  0.71207  0.08519  1.0000
  H   H4739     1.0  0.54862  0.54146  0.98651  1.0000
  H   H4740     1.0  0.72730  0.54818  0.08717  1.0000
  H   H4741     1.0  0.52298  0.55022  0.10643  1.0000
  H   H4742     1.0  0.51407  0.57795  0.14628  1.0000
  C   C2784     1.0  0.73036  0.72708  0.31826  1.0000
  H   H4743     1.0  0.53857  0.55756  0.99567  1.0000
  H   H4744     1.0  0.59863  0.59419  0.98823  1.0000
  H   H4745     1.0  0.73803  0.70751  0.30602  1.0000
  C   C2785     1.0  0.69197  0.50812  0.03847  1.0000
  C   C2786     1.0  0.71891  0.72033  0.09192  1.0000
  H   H4746     1.0  0.50617  0.58833  0.02508  1.0000
  H   H4747     1.0  0.69978  0.51395  0.02810  1.0000
  H   H4748     1.0  0.68643  0.51674  0.04613  1.0000
  H   H4749     1.0  0.73670  0.59929  0.09074  1.0000
  H   H4750     1.0  0.72505  0.62204  0.21993  1.0000
  C   C2787     1.0  0.71733  0.51728  0.12624  1.0000
  C   C2788     1.0  0.72601  0.52061  0.10880  1.0000
  H   H4751     1.0  0.62167  0.72979  0.16287  1.0000
  C   C2789     1.0  0.50724  0.63270  0.03062  1.0000
  H   H4752     1.0  0.67260  0.48407  0.00952  1.0000
  C   C2790     1.0  0.72697  0.71561  0.31041  1.0000
  C   C2791     1.0  0.72921  0.59471  0.10167  1.0000
  H   H4753     1.0  0.70565  0.50054  0.98342  1.0000
  H   H4754     1.0  0.50122  0.59795  0.12506  1.0000
  H   H4755     1.0  0.72301  0.54948  0.11391  1.0000
  H   H4756     1.0  0.56830  0.72469  0.06460  1.0000
  C   C2792     1.0  0.73054  0.59708  0.11591  1.0000
  S   S805      1.0  0.72865  0.61677  0.17372  1.0000
  H   H4757     1.0  0.71898  0.73221  0.32556  1.0000
  C   C2793     1.0  0.73866  0.53947  0.08762  1.0000
  H   H4758     1.0  0.51396  0.58166  0.04277  1.0000
  H   H4759     1.0  0.70869  0.73102  0.98362  1.0000
  C   C2794     1.0  0.57404  0.73191  0.08998  1.0000
  H   H4760     1.0  0.50568  0.64699  0.04695  1.0000
  H   H4761     1.0  0.73749  0.71931  0.32687  1.0000
  Fe  Fe402     1.0  0.73197  0.61237  0.14966  1.0000
  C   C2795     1.0  0.73477  0.54164  0.11469  1.0000
  C   C2796     1.0  0.49648  0.59088  0.98929  1.0000
  H   H4762     1.0  0.49330  0.58504  0.04344  1.0000
  S   S806      1.0  0.58996  0.72951  0.16212  1.0000
  H   H4763     1.0  0.72942  0.66649  0.23626  1.0000
  C   C2797     1.0  0.59753  0.58662  0.98140  1.0000
  H   H4764     1.0  0.71048  0.59801  0.98050  1.0000
  H   H4765     1.0  0.50050  0.60100  0.98054  1.0000
  H   H4766     1.0  0.49315  0.56341  0.98084  1.0000
  H   H4767     1.0  0.74064  0.64627  0.22332  1.0000
  H   H4768     1.0  0.49165  0.63748  0.00677  1.0000
  C   C2798     1.0  0.69993  0.59409  0.98049  1.0000
  C   C2799     1.0  0.74123  0.52989  0.07506  1.0000
  S   S807      1.0  0.73766  0.66602  0.87395  1.0000
  H   H4769     1.0  0.60566  0.59541  0.94579  1.0000
  H   H4770     1.0  0.71719  0.55008  0.95424  1.0000
  C   C2800     1.0  0.49637  0.59672  0.92840  1.0000
  H   H4771     1.0  0.73980  0.66980  0.90887  1.0000
  Fe  Fe403     1.0  0.52208  0.63026  0.94980  1.0000
  S   S808      1.0  0.52882  0.65266  0.94913  1.0000
  H   H4772     1.0  0.73248  0.55628  0.93828  1.0000
  Fe  Fe404     1.0  0.55415  0.61050  0.95450  1.0000
  S   S809      1.0  0.62985  0.73090  0.89818  1.0000
  H   H4773     1.0  0.55872  0.70666  0.90758  1.0000
  C   C2801     1.0  0.60472  0.60443  0.93475  1.0000
  Fe  Fe405     1.0  0.55223  0.64342  0.93431  1.0000
  S   S810      1.0  0.56648  0.65764  0.91324  1.0000
  C   C2802     1.0  0.63222  0.60456  0.91996  1.0000
  S   S811      1.0  0.54444  0.62227  0.93288  1.0000
  Fe  Fe406     1.0  0.73959  0.62091  0.88584  1.0000
  H   H4774     1.0  0.60669  0.63385  0.95315  1.0000
  S   S812      1.0  0.68832  0.53133  0.95251  1.0000
  H   H4775     1.0  0.57538  0.70686  0.88056  1.0000
  S   S813      1.0  0.65055  0.54503  0.95142  1.0000
  S   S814      1.0  0.69479  0.66359  0.90070  1.0000
  H   H4776     1.0  0.69307  0.57800  0.97128  1.0000
  C   C2803     1.0  0.72392  0.55952  0.94892  1.0000
  S   S815      1.0  0.59192  0.71337  0.92089  1.0000
  H   H4777     1.0  0.61880  0.62793  0.89715  1.0000
  H   H4778     1.0  0.71351  0.70999  0.89954  1.0000
  C   C2804     1.0  0.54910  0.71377  0.90153  1.0000
  S   S816      1.0  0.56676  0.58520  0.95716  1.0000
  S   S817      1.0  0.60885  0.72703  0.87527  1.0000
  S   S818      1.0  0.65501  0.71831  0.85838  1.0000
  H   H4779     1.0  0.68376  0.60180  0.90739  1.0000
  C   C2805     1.0  0.54088  0.70211  0.89904  1.0000
  C   C2806     1.0  0.68324  0.67726  0.88827  1.0000
  C   C2807     1.0  0.66777  0.68409  0.89475  1.0000
  C   C2808     1.0  0.65878  0.69621  0.88540  1.0000
  C   C2809     1.0  0.66529  0.70163  0.86955  1.0000
  C   C2810     1.0  0.68055  0.69435  0.86288  1.0000
  C   C2811     1.0  0.68954  0.68212  0.87223  1.0000
  H   H4780     1.0  0.66281  0.68019  0.90710  1.0000
  H   H4781     1.0  0.64687  0.70142  0.89050  1.0000
  H   H4782     1.0  0.68557  0.69844  0.85058  1.0000
  C   C2812     1.0  0.72381  0.57197  0.90360  1.0000
  H   H4783     1.0  0.65267  0.60967  0.92488  1.0000
  C   C2813     1.0  0.57455  0.67214  0.91601  1.0000
  C   C2814     1.0  0.58513  0.67935  0.90343  1.0000
  C   C2815     1.0  0.59101  0.69160  0.90494  1.0000
  C   C2816     1.0  0.58622  0.69688  0.91901  1.0000
  C   C2817     1.0  0.57598  0.68936  0.93173  1.0000
  C   C2818     1.0  0.57018  0.67704  0.93025  1.0000
  H   H4784     1.0  0.58866  0.67557  0.89241  1.0000
  H   H4785     1.0  0.59908  0.69709  0.89515  1.0000
  H   H4786     1.0  0.57225  0.69329  0.94269  1.0000
  H   H4787     1.0  0.56207  0.67158  0.94005  1.0000
  C   C2819     1.0  0.58272  0.58039  0.96621  1.0000
  N   N201      1.0  0.51589  0.56942  0.97524  1.0000
  C   C2820     1.0  0.67557  0.71639  0.91080  1.0000
  C   C2821     1.0  0.70779  0.70398  0.89428  1.0000
  H   H4788     1.0  0.72546  0.73146  0.95743  1.0000
  S   S819      1.0  0.72305  0.63760  0.87126  1.0000
  H   H4789     1.0  0.73373  0.58193  0.95944  1.0000
  H   H4790     1.0  0.71626  0.57987  0.93141  1.0000
  H   H4791     1.0  0.73731  0.56780  0.85955  1.0000
  C   C2822     1.0  0.60938  0.62087  0.95707  1.0000
  C   C2823     1.0  0.72684  0.59124  0.95155  1.0000
  S   S820      1.0  0.49679  0.62855  0.95230  1.0000
  C   C2824     1.0  0.52658  0.55358  0.97930  1.0000
  H   H4792     1.0  0.51432  0.55823  0.94881  1.0000
  H   H4793     1.0  0.54959  0.69256  0.89387  1.0000
  C   C2825     1.0  0.60990  0.57393  0.97807  1.0000
  H   H4794     1.0  0.65594  0.60505  0.90629  1.0000
  H   H4795     1.0  0.68461  0.70985  0.91781  1.0000
  H   H4796     1.0  0.51246  0.61067  0.92793  1.0000
  H   H4797     1.0  0.50389  0.59172  0.91862  1.0000
  H   H4798     1.0  0.66798  0.50161  0.93786  1.0000
  S   S821      1.0  0.53151  0.61708  0.97129  1.0000
  H   H4799     1.0  0.72532  0.60218  0.95564  1.0000
  H   H4800     1.0  0.70108  0.72209  0.87500  1.0000
  H   H4801     1.0  0.72420  0.61707  0.85076  1.0000
  N   N202      1.0  0.71103  0.58788  0.95289  1.0000
  C   C2826     1.0  0.59477  0.56730  0.96348  1.0000
  H   H4802     1.0  0.72974  0.58827  0.85754  1.0000
  Fe  Fe407     1.0  0.64822  0.55521  0.97211  1.0000
  Fe  Fe408     1.0  0.67312  0.55388  0.94182  1.0000
  H   H4803     1.0  0.61315  0.58450  0.92296  1.0000
  H   H4804     1.0  0.59840  0.61658  0.95983  1.0000
  C   C2827     1.0  0.73748  0.59339  0.93487  1.0000
  H   H4805     1.0  0.70058  0.61283  0.95064  1.0000
  H   H4806     1.0  0.64478  0.62404  0.90890  1.0000
  S   S822      1.0  0.66228  0.49806  0.97204  1.0000
  C   C2828     1.0  0.50126  0.60745  0.93365  1.0000
  H   H4807     1.0  0.59829  0.62791  0.90693  1.0000
  Fe  Fe409     1.0  0.68279  0.54252  0.97316  1.0000
  H   H4808     1.0  0.59230  0.59128  0.92735  1.0000
  N   N203      1.0  0.61798  0.61311  0.93002  1.0000
  N   N204      1.0  0.55532  0.72517  0.88696  1.0000
  Fe  Fe410     1.0  0.71885  0.65291  0.88827  1.0000
  H   H4809     1.0  0.70146  0.67678  0.86715  1.0000
  H   H4810     1.0  0.68903  0.70816  0.88241  1.0000
  H   H4811     1.0  0.73340  0.62852  0.83304  1.0000
  H   H4812     1.0  0.70565  0.60638  0.93285  1.0000
  Fe  Fe411     1.0  0.53995  0.63864  0.96938  1.0000
  C   C2829     1.0  0.70076  0.60282  0.94568  1.0000
  H   H4813     1.0  0.60528  0.64554  0.90119  1.0000
  C   C2830     1.0  0.60360  0.59526  0.92318  1.0000
  S   S823      1.0  0.67731  0.57083  0.91823  1.0000
  C   C2831     1.0  0.70392  0.58215  0.96996  1.0000
  C   C2832     1.0  0.60841  0.56415  0.96929  1.0000
  H   H4814     1.0  0.60172  0.63579  0.92940  1.0000
  H   H4815     1.0  0.73071  0.55935  0.95741  1.0000
  H   H4816     1.0  0.55665  0.73239  0.91703  1.0000
  H   H4817     1.0  0.66641  0.73246  0.92706  1.0000
  N   N205      1.0  0.68266  0.72640  0.89558  1.0000
  C   C2833     1.0  0.71259  0.57540  0.94421  1.0000
  C   C2834     1.0  0.70898  0.59886  0.90050  1.0000
  Fe  Fe412     1.0  0.66545  0.52334  0.96386  1.0000
  H   H4818     1.0  0.60387  0.60232  0.91107  1.0000
  H   H4819     1.0  0.49407  0.55755  0.95548  1.0000
  H   H4820     1.0  0.70858  0.61134  0.89700  1.0000
  H   H4821     1.0  0.52547  0.57928  0.93885  1.0000
  C   C2835     1.0  0.57406  0.72483  0.85951  1.0000
  H   H4822     1.0  0.68329  0.72409  0.95948  1.0000
  C   C2836     1.0  0.66213  0.72496  0.92212  1.0000
  C   C2837     1.0  0.50504  0.55611  0.95949  1.0000
  H   H4823     1.0  0.69062  0.60439  0.97710  1.0000
  H   H4824     1.0  0.67714  0.59932  0.95960  1.0000
  H   H4825     1.0  0.53937  0.56373  0.94850  1.0000
  C   C2838     1.0  0.69483  0.71542  0.88611  1.0000
  H   H4826     1.0  0.67720  0.61407  0.94190  1.0000
  H   H4827     1.0  0.68263  0.59404  0.94058  1.0000
  C   C2839     1.0  0.70973  0.56655  0.91001  1.0000
  C   C2840     1.0  0.56498  0.73358  0.89163  1.0000
  H   H4828     1.0  0.71395  0.72215  0.95174  1.0000
  H   H4829     1.0  0.66396  0.72611  0.88521  1.0000
  C   C2841     1.0  0.72348  0.58814  0.89899  1.0000
  H   H4830     1.0  0.53273  0.58459  0.96752  1.0000
  C   C2842     1.0  0.68350  0.60226  0.94720  1.0000
  H   H4831     1.0  0.70098  0.57264  0.94567  1.0000
  H   H4832     1.0  0.50790  0.54374  0.96598  1.0000
  H   H4833     1.0  0.61341  0.61808  0.96825  1.0000
  S   S824      1.0  0.66953  0.56547  0.96169  1.0000
  C   C2843     1.0  0.73904  0.57939  0.85195  1.0000
  C   C2844     1.0  0.62259  0.61308  0.94483  1.0000
  S   S825      1.0  0.56374  0.63077  0.95463  1.0000
  H   H4834     1.0  0.51601  0.59226  0.95967  1.0000
  C   C2845     1.0  0.69521  0.57727  0.91145  1.0000
  H   H4835     1.0  0.63225  0.61940  0.94213  1.0000
  H   H4836     1.0  0.55938  0.70883  0.87191  1.0000
  Fe  Fe413     1.0  0.63300  0.73061  0.87278  1.0000
  H   H4837     1.0  0.62962  0.60388  0.90893  1.0000
  H   H4838     1.0  0.53206  0.70802  0.89170  1.0000
  C   C2846     1.0  0.53334  0.57623  0.94719  1.0000
  H   H4839     1.0  0.61776  0.55416  0.96695  1.0000
  C   C2847     1.0  0.64708  0.61148  0.91488  1.0000
  H   H4840     1.0  0.73155  0.60256  0.92616  1.0000
  H   H4841     1.0  0.62154  0.63686  0.92047  1.0000
  H   H4842     1.0  0.71007  0.55407  0.91357  1.0000
  C   C2848     1.0  0.56595  0.71567  0.87524  1.0000
  H   H4843     1.0  0.59380  0.55987  0.95643  1.0000
  C   C2849     1.0  0.66365  0.48516  0.95995  1.0000
  H   H4844     1.0  0.53467  0.69626  0.91067  1.0000
  H   H4845     1.0  0.63570  0.59211  0.92626  1.0000
  H   H4846     1.0  0.65208  0.73182  0.91670  1.0000
  C   C2850     1.0  0.66649  0.48979  0.94354  1.0000
  C   C2851     1.0  0.61259  0.62997  0.92199  1.0000
  C   C2852     1.0  0.60863  0.63268  0.90589  1.0000
  C   C2853     1.0  0.69491  0.59343  0.90650  1.0000
  H   H4847     1.0  0.49582  0.57920  0.96428  1.0000
  H   H4848     1.0  0.59307  0.61251  0.93745  1.0000
  H   H4849     1.0  0.62723  0.60079  0.95086  1.0000
  H   H4850     1.0  0.54295  0.58272  0.94174  1.0000
  C   C2854     1.0  0.52439  0.58101  0.96288  1.0000
  H   H4851     1.0  0.54899  0.56087  0.97522  1.0000
  H   H4852     1.0  0.72999  0.68812  0.92717  1.0000
  H   H4853     1.0  0.57587  0.72530  0.89466  1.0000
  H   H4854     1.0  0.58065  0.73272  0.86100  1.0000
  C   C2855     1.0  0.49150  0.61430  0.94599  1.0000
  H   H4855     1.0  0.54040  0.72011  0.91030  1.0000
  S   S826      1.0  0.73396  0.63540  0.90390  1.0000
  Fe  Fe414     1.0  0.60497  0.72910  0.90020  1.0000
  H   H4856     1.0  0.71366  0.71215  0.97905  1.0000
  H   H4857     1.0  0.71708  0.69826  0.88544  1.0000
  H   H4858     1.0  0.58284  0.71632  0.85295  1.0000
  H   H4859     1.0  0.70316  0.69430  0.90332  1.0000
  H   H4860     1.0  0.69430  0.72385  0.97883  1.0000
  C   C2856     1.0  0.71307  0.73116  0.95836  1.0000
  C   C2857     1.0  0.50196  0.56764  0.97029  1.0000
  C   C2858     1.0  0.58398  0.58994  0.97538  1.0000
  H   H4861     1.0  0.53797  0.73086  0.87273  1.0000
  H   H4862     1.0  0.65746  0.71608  0.93223  1.0000
  H   H4863     1.0  0.73163  0.60917  0.83369  1.0000
  C   C2859     1.0  0.73410  0.61638  0.84033  1.0000
  H   H4864     1.0  0.73498  0.56361  0.90248  1.0000
  H   H4865     1.0  0.67101  0.70730  0.90832  1.0000
  H   H4866     1.0  0.69678  0.73167  0.90847  1.0000
  H   H4867     1.0  0.53082  0.54755  0.96934  1.0000
  H   H4868     1.0  0.71196  0.57160  0.97535  1.0000
  H   H4869     1.0  0.56555  0.73139  0.85198  1.0000
  H   H4870     1.0  0.57463  0.59998  0.97763  1.0000
  C   C2860     1.0  0.70684  0.72438  0.97593  1.0000
  H   H4871     1.0  0.73729  0.57956  0.84028  1.0000
  Fe  Fe415     1.0  0.55892  0.91445  0.35247  1.0000
  S   S827      1.0  0.58319  0.91882  0.34736  1.0000
  S   S828      1.0  0.55556  0.90257  0.33530  1.0000
  Fe  Fe416     1.0  0.54768  0.92851  0.38159  1.0000
  S   S829      1.0  0.57114  0.93392  0.37897  1.0000
  Fe  Fe417     1.0  0.57117  0.94214  0.35329  1.0000
  S   S830      1.0  0.57821  0.96405  0.33726  1.0000
  Fe  Fe418     1.0  0.58124  0.91002  0.37322  1.0000
  S   S831      1.0  0.60194  0.89407  0.38264  1.0000
  S   S832      1.0  0.54691  0.93867  0.35608  1.0000
  S   S833      1.0  0.55775  0.90374  0.37816  1.0000
  H   H4872     1.0  0.67646  0.79721  0.15679  1.0000
  H   H4873     1.0  0.72784  0.90410  0.25986  1.0000
  H   H4874     1.0  0.53881  0.96942  0.28459  1.0000
  S   S834      1.0  0.51529  0.91873  0.26951  1.0000
  H   H4875     1.0  0.50570  0.84424  0.25229  1.0000
  H   H4876     1.0  0.71490  0.80278  0.04219  1.0000
  H   H4877     1.0  0.71075  0.86351  0.25712  1.0000
  Fe  Fe419     1.0  0.51359  0.89493  0.26819  1.0000
  S   S835      1.0  0.53610  0.87618  0.26681  1.0000
  H   H4878     1.0  0.57588  0.96351  0.28749  1.0000
  H   H4879     1.0  0.70281  0.74693  0.12499  1.0000
  H   H4880     1.0  0.68100  0.75416  0.11214  1.0000
  H   H4881     1.0  0.71179  0.93388  0.09547  1.0000
  H   H4882     1.0  0.57764  0.84187  0.30191  1.0000
  H   H4883     1.0  0.63355  0.79302  0.14471  1.0000
  H   H4884     1.0  0.72458  0.80528  0.98457  1.0000
  Fe  Fe420     1.0  0.69027  0.89331  0.18623  1.0000
  S   S836      1.0  0.66723  0.91045  0.18994  1.0000
  S   S837      1.0  0.70158  0.88512  0.20716  1.0000
  Fe  Fe421     1.0  0.68605  0.88939  0.15541  1.0000
  S   S838      1.0  0.66239  0.90599  0.15691  1.0000
  S   S839      1.0  0.69811  0.87722  0.13514  1.0000
  Fe  Fe422     1.0  0.67377  0.92101  0.16434  1.0000
  S   S840      1.0  0.66581  0.94719  0.15730  1.0000
  Fe  Fe423     1.0  0.65795  0.89408  0.18233  1.0000
  S   S841      1.0  0.63546  0.88775  0.19710  1.0000
  S   S842      1.0  0.69797  0.90541  0.16104  1.0000
  S   S843      1.0  0.68047  0.87598  0.18038  1.0000
  H   H4885     1.0  0.55950  0.90116  0.46091  1.0000
  C   C2861     1.0  0.52379  0.92950  0.41932  1.0000
  H   H4886     1.0  0.73502  0.81453  0.99856  1.0000
  C   C2862     1.0  0.65487  0.80219  0.17314  1.0000
  S   S844      1.0  0.62232  0.79987  0.20547  1.0000
  Fe  Fe424     1.0  0.57808  0.81158  0.22225  1.0000
  S   S845      1.0  0.59468  0.82629  0.22124  1.0000
  S   S846      1.0  0.55210  0.82204  0.22953  1.0000
  Fe  Fe425     1.0  0.60526  0.82138  0.19717  1.0000
  S   S847      1.0  0.61331  0.83892  0.17563  1.0000
  Fe  Fe426     1.0  0.61034  0.80336  0.22975  1.0000
  H   H4887     1.0  0.60572  0.84758  0.26549  1.0000
  S   S848      1.0  0.58756  0.80840  0.19730  1.0000
  S   S849      1.0  0.59299  0.78857  0.23263  1.0000
  Fe  Fe427     1.0  0.65878  0.84611  0.32163  1.0000
  S   S850      1.0  0.65243  0.84393  0.34779  1.0000
  Fe  Fe428     1.0  0.67083  0.86593  0.29011  1.0000
  S   S851      1.0  0.67199  0.84778  0.27720  1.0000
  S   S852      1.0  0.67712  0.88856  0.27548  1.0000
  Fe  Fe429     1.0  0.64854  0.84529  0.29290  1.0000
  C   C2863     1.0  0.61007  0.78985  0.08176  1.0000
  C   C2864     1.0  0.51428  0.82624  0.27029  1.0000
  S   S853      1.0  0.64658  0.86491  0.30445  1.0000
  S   S854      1.0  0.68316  0.84898  0.30834  1.0000
  Fe  Fe430     1.0  0.67882  0.82455  0.05773  1.0000
  S   S855      1.0  0.69059  0.82621  0.07595  1.0000
  S   S856      1.0  0.68991  0.82867  0.03177  1.0000
  Fe  Fe431     1.0  0.65226  0.81173  0.08208  1.0000
  S   S857      1.0  0.66188  0.81168  0.10235  1.0000
  H   H4888     1.0  0.56568  0.86959  0.23219  1.0000
  Fe  Fe432     1.0  0.66621  0.83548  0.08892  1.0000
  S   S858      1.0  0.65702  0.85524  0.10210  1.0000
  Fe  Fe433     1.0  0.68545  0.80237  0.08786  1.0000
  H   H4889     1.0  0.63834  0.83965  0.14235  1.0000
  S   S859      1.0  0.65492  0.83616  0.06947  1.0000
  S   S860      1.0  0.67530  0.80006  0.06883  1.0000
  H   H4890     1.0  0.59846  0.87064  0.23459  1.0000
  S   S861      1.0  0.49727  0.90417  0.25138  1.0000
  H   H4891     1.0  0.72445  0.80430  0.33719  1.0000
  C   C2865     1.0  0.62715  0.81312  0.25549  1.0000
  H   H4892     1.0  0.64571  0.81207  0.17703  1.0000
  C   C2866     1.0  0.63970  0.82147  0.27148  1.0000
  C   C2867     1.0  0.62745  0.83471  0.27250  1.0000
  H   H4893     1.0  0.65005  0.79627  0.16689  1.0000
  H   H4894     1.0  0.64917  0.81936  0.27744  1.0000
  C   C2868     1.0  0.72447  0.94725  0.21115  1.0000
  H   H4895     1.0  0.73599  0.86684  0.24330  1.0000
  C   C2869     1.0  0.71933  0.89895  0.26943  1.0000
  C   C2870     1.0  0.70523  0.89772  0.26671  1.0000
  C   C2871     1.0  0.69432  0.89084  0.27907  1.0000
  C   C2872     1.0  0.69732  0.88556  0.29420  1.0000
  C   C2873     1.0  0.71123  0.88710  0.29698  1.0000
  H   H4896     1.0  0.71561  0.92742  0.22871  1.0000
  H   H4897     1.0  0.70291  0.90186  0.25500  1.0000
  H   H4898     1.0  0.68884  0.88045  0.30381  1.0000
  H   H4899     1.0  0.72666  0.74542  0.12853  1.0000
  C   C2874     1.0  0.67947  0.95879  0.15412  1.0000
  H   H4900     1.0  0.51069  0.81775  0.28126  1.0000
  H   H4901     1.0  0.69314  0.85804  0.24502  1.0000
  H   H4902     1.0  0.73363  0.82782  0.02147  1.0000
  C   C2875     1.0  0.70596  0.96336  0.14453  1.0000
  C   C2876     1.0  0.69549  0.95333  0.14823  1.0000
  C   C2877     1.0  0.72384  0.78765  0.00716  1.0000
  C   C2878     1.0  0.57392  0.93556  0.30502  1.0000
  H   H4903     1.0  0.71828  0.95932  0.13953  1.0000
  H   H4904     1.0  0.69973  0.94157  0.14613  1.0000
  C   C2879     1.0  0.68664  0.87107  0.12605  1.0000
  C   C2880     1.0  0.67022  0.87444  0.13050  1.0000
  C   C2881     1.0  0.66132  0.86977  0.12281  1.0000
  C   C2882     1.0  0.66876  0.86123  0.11100  1.0000
  C   C2883     1.0  0.68521  0.85761  0.10670  1.0000
  C   C2884     1.0  0.69411  0.86271  0.11408  1.0000
  H   H4905     1.0  0.66434  0.88066  0.13985  1.0000
  H   H4906     1.0  0.64860  0.87252  0.12625  1.0000
  H   H4907     1.0  0.69105  0.85107  0.09758  1.0000
  H   H4908     1.0  0.70683  0.86004  0.11059  1.0000
  C   C2885     1.0  0.63136  0.87335  0.19045  1.0000
  C   C2886     1.0  0.62840  0.85951  0.20107  1.0000
  C   C2887     1.0  0.62374  0.84847  0.19621  1.0000
  C   C2888     1.0  0.62131  0.85163  0.18096  1.0000
  C   C2889     1.0  0.62482  0.86521  0.17015  1.0000
  C   C2890     1.0  0.63004  0.87602  0.17486  1.0000
  H   H4909     1.0  0.62964  0.85732  0.21307  1.0000
  H   H4910     1.0  0.62177  0.83766  0.20437  1.0000
  H   H4911     1.0  0.62319  0.86753  0.15827  1.0000
  H   H4912     1.0  0.63241  0.88671  0.16662  1.0000
  C   C2891     1.0  0.71720  0.89313  0.20695  1.0000
  H   H4913     1.0  0.70572  0.93022  0.20825  1.0000
  S   S862      1.0  0.49426  0.89294  0.28990  1.0000
  H   H4914     1.0  0.63170  0.74394  0.17656  1.0000
  H   H4915     1.0  0.56753  0.88296  0.47265  1.0000
  C   C2892     1.0  0.72103  0.89193  0.22125  1.0000
  H   H4916     1.0  0.68075  0.91601  0.08367  1.0000
  H   H4917     1.0  0.68314  0.94618  0.19708  1.0000
  C   C2893     1.0  0.69060  0.95538  0.11090  1.0000
  H   H4918     1.0  0.71401  0.88666  0.23216  1.0000
  C   C2894     1.0  0.65711  0.83434  0.99926  1.0000
  C   C2895     1.0  0.65112  0.83942  0.01345  1.0000
  C   C2896     1.0  0.66114  0.83792  0.02343  1.0000
  C   C2897     1.0  0.67723  0.83154  0.01912  1.0000
  C   C2898     1.0  0.68332  0.82703  0.00463  1.0000
  C   C2899     1.0  0.67327  0.82828  0.99479  1.0000
  H   H4919     1.0  0.63866  0.84431  0.01686  1.0000
  H   H4920     1.0  0.65639  0.84168  0.03446  1.0000
  H   H4921     1.0  0.69579  0.82232  0.00110  1.0000
  C   C2900     1.0  0.50823  0.96269  0.24144  1.0000
  C   C2901     1.0  0.54015  0.86130  0.25634  1.0000
  C   C2902     1.0  0.55308  0.84875  0.25834  1.0000
  C   C2903     1.0  0.55704  0.83687  0.24986  1.0000
  C   C2904     1.0  0.54791  0.83733  0.23951  1.0000
  C   C2905     1.0  0.53505  0.84995  0.23738  1.0000
  C   C2906     1.0  0.53121  0.86197  0.24572  1.0000
  H   H4922     1.0  0.56012  0.84822  0.26645  1.0000
  H   H4923     1.0  0.56696  0.82716  0.25160  1.0000
  H   H4924     1.0  0.52814  0.85046  0.22917  1.0000
  H   H4925     1.0  0.52148  0.87182  0.24379  1.0000
  C   C2907     1.0  0.70371  0.73999  0.11627  1.0000
  C   C2908     1.0  0.68665  0.74149  0.11506  1.0000
  C   C2909     1.0  0.53937  0.94454  0.29326  1.0000
  H   H4926     1.0  0.64880  0.80023  0.26261  1.0000
  H   H4927     1.0  0.57273  0.93415  0.29369  1.0000
  H   H4928     1.0  0.73285  0.76461  0.29711  1.0000
  C   C2910     1.0  0.68183  0.94186  0.11557  1.0000
  H   H4929     1.0  0.72561  0.95422  0.16946  1.0000
  H   H4930     1.0  0.50329  0.95290  0.26638  1.0000
  S   S863      1.0  0.62699  0.79876  0.24586  1.0000
  C   C2911     1.0  0.61468  0.87958  0.37277  1.0000
  C   C2912     1.0  0.62632  0.86896  0.38009  1.0000
  C   C2913     1.0  0.63749  0.85789  0.37238  1.0000
  C   C2914     1.0  0.63744  0.85755  0.35708  1.0000
  C   C2915     1.0  0.62574  0.86805  0.34966  1.0000
  C   C2916     1.0  0.61414  0.87890  0.35762  1.0000
  H   H4931     1.0  0.62677  0.86936  0.39179  1.0000
  H   H4932     1.0  0.64646  0.84976  0.37821  1.0000
  H   H4933     1.0  0.62575  0.86785  0.33783  1.0000
  H   H4934     1.0  0.60508  0.88696  0.35194  1.0000
  H   H4935     1.0  0.71745  0.78865  0.98538  1.0000
  C   C2917     1.0  0.59469  0.96510  0.35817  1.0000
  H   H4936     1.0  0.73805  0.78650  0.98306  1.0000
  H   H4937     1.0  0.61186  0.86189  0.30987  1.0000
  C   C2918     1.0  0.61915  0.74559  0.17785  1.0000
  C   C2919     1.0  0.67406  0.97404  0.15686  1.0000
  H   H4938     1.0  0.59444  0.95287  0.36302  1.0000
  C   C2920     1.0  0.53441  0.97257  0.40771  1.0000
  C   C2921     1.0  0.59247  0.75766  0.18900  1.0000
  C   C2922     1.0  0.60196  0.97277  0.36474  1.0000
  C   C2923     1.0  0.53772  0.90928  0.32903  1.0000
  C   C2924     1.0  0.53606  0.90380  0.31670  1.0000
  C   C2925     1.0  0.52211  0.90920  0.31114  1.0000
  C   C2926     1.0  0.50974  0.92015  0.31788  1.0000
  C   C2927     1.0  0.51132  0.92555  0.33033  1.0000
  C   C2928     1.0  0.52531  0.92010  0.33593  1.0000
  H   H4939     1.0  0.54560  0.89538  0.31137  1.0000
  H   H4940     1.0  0.52092  0.90483  0.30168  1.0000
  H   H4941     1.0  0.50173  0.93394  0.33564  1.0000
  H   H4942     1.0  0.52643  0.92418  0.34562  1.0000
  C   C2929     1.0  0.71568  0.80845  0.31620  1.0000
  H   H4943     1.0  0.69106  0.96168  0.09848  1.0000
  H   H4944     1.0  0.55153  0.86106  0.34685  1.0000
  C   C2930     1.0  0.62438  0.78975  0.08492  1.0000
  H   H4945     1.0  0.58424  0.89030  0.31340  1.0000
  H   H4946     1.0  0.58789  0.87937  0.29832  1.0000
  C   C2931     1.0  0.50220  0.85186  0.29201  1.0000
  C   C2932     1.0  0.73901  0.90582  0.19315  1.0000
  N   N206      1.0  0.68809  0.92968  0.10560  1.0000
  H   H4947     1.0  0.73502  0.79213  0.28474  1.0000
  H   H4948     1.0  0.59541  0.77607  0.07915  1.0000
  N   N207      1.0  0.59118  0.85568  0.32684  1.0000
  H   H4949     1.0  0.60505  0.87227  0.32530  1.0000
  H   H4950     1.0  0.72320  0.90114  0.18180  1.0000
  H   H4951     1.0  0.57554  0.87142  0.34138  1.0000
  H   H4952     1.0  0.72447  0.91967  0.11565  1.0000
  H   H4953     1.0  0.60330  0.83950  0.31151  1.0000
  H   H4954     1.0  0.71129  0.85683  0.23106  1.0000
  H   H4955     1.0  0.54105  0.90815  0.41662  1.0000
  H   H4956     1.0  0.71922  0.93457  0.19033  1.0000
  S   S864      1.0  0.70478  0.81270  0.28923  1.0000
  N   N208      1.0  0.57726  0.88471  0.21178  1.0000
  C   C2933     1.0  0.59035  0.89328  0.20845  1.0000
  C   C2934     1.0  0.57510  0.87621  0.22882  1.0000
  C   C2935     1.0  0.56245  0.89680  0.20895  1.0000
  C   C2936     1.0  0.58201  0.87362  0.20074  1.0000
  C   C2937     1.0  0.59359  0.90410  0.19198  1.0000
  H   H4957     1.0  0.70471  0.83919  0.24272  1.0000
  C   C2938     1.0  0.54657  0.89231  0.21784  1.0000
  C   C2939     1.0  0.57103  0.86257  0.20275  1.0000
  H   H4958     1.0  0.58798  0.90061  0.21726  1.0000
  H   H4959     1.0  0.60171  0.88486  0.20962  1.0000
  H   H4960     1.0  0.57097  0.88483  0.23660  1.0000
  H   H4961     1.0  0.56204  0.90782  0.21240  1.0000
  H   H4962     1.0  0.56230  0.90025  0.19619  1.0000
  H   H4963     1.0  0.58299  0.88028  0.18834  1.0000
  H   H4964     1.0  0.59407  0.86639  0.20080  1.0000
  H   H4965     1.0  0.59815  0.89735  0.18255  1.0000
  H   H4966     1.0  0.58315  0.91341  0.18951  1.0000
  H   H4967     1.0  0.60299  0.91011  0.19135  1.0000
  H   H4968     1.0  0.58610  0.85734  0.24576  1.0000
  H   H4969     1.0  0.53686  0.90147  0.21338  1.0000
  H   H4970     1.0  0.54442  0.89195  0.23060  1.0000
  H   H4971     1.0  0.54563  0.88099  0.21625  1.0000
  H   H4972     1.0  0.56122  0.86857  0.19663  1.0000
  H   H4973     1.0  0.56634  0.85732  0.21512  1.0000
  N   N209      1.0  0.64788  0.88609  0.24367  1.0000
  C   C2940     1.0  0.64495  0.86971  0.24740  1.0000
  C   C2941     1.0  0.64010  0.89292  0.25804  1.0000
  C   C2942     1.0  0.66542  0.88459  0.24061  1.0000
  C   C2943     1.0  0.64150  0.89551  0.22935  1.0000
  C   C2944     1.0  0.65325  0.85988  0.23477  1.0000
  C   C2945     1.0  0.62239  0.89301  0.26421  1.0000
  C   C2946     1.0  0.67131  0.89988  0.23672  1.0000
  C   C2947     1.0  0.63636  0.91352  0.22755  1.0000
  H   H4974     1.0  0.64852  0.86278  0.25853  1.0000
  H   H4975     1.0  0.63218  0.87002  0.24940  1.0000
  H   H4976     1.0  0.64136  0.90517  0.25600  1.0000
  H   H4977     1.0  0.64605  0.88633  0.26794  1.0000
  H   H4978     1.0  0.67001  0.87686  0.25097  1.0000
  H   H4979     1.0  0.67168  0.87892  0.23050  1.0000
  H   H4980     1.0  0.65033  0.89322  0.21849  1.0000
  H   H4981     1.0  0.63100  0.89167  0.22886  1.0000
  H   H4982     1.0  0.66600  0.85552  0.23462  1.0000
  H   H4983     1.0  0.64817  0.84930  0.23772  1.0000
  H   H4984     1.0  0.65156  0.86640  0.22286  1.0000
  H   H4985     1.0  0.62064  0.88129  0.27132  1.0000
  H   H4986     1.0  0.61703  0.90146  0.27206  1.0000
  H   H4987     1.0  0.61591  0.89641  0.25462  1.0000
  H   H4988     1.0  0.66541  0.90743  0.24531  1.0000
  H   H4989     1.0  0.67060  0.90647  0.22456  1.0000
  H   H4990     1.0  0.68400  0.89676  0.23704  1.0000
  H   H4991     1.0  0.62549  0.91693  0.23629  1.0000
  H   H4992     1.0  0.63357  0.91879  0.21575  1.0000
  H   H4993     1.0  0.64556  0.91895  0.22829  1.0000
  N   N210      1.0  0.66879  0.82248  0.15144  1.0000
  C   C2948     1.0  0.68521  0.82505  0.14361  1.0000
  C   C2949     1.0  0.66015  0.83600  0.15935  1.0000
  C   C2950     1.0  0.66085  0.82240  0.13883  1.0000
  C   C2951     1.0  0.69521  0.81442  0.13207  1.0000
  C   C2952     1.0  0.66733  0.83802  0.17206  1.0000
  C   C2953     1.0  0.64270  0.82697  0.14216  1.0000
  H   H4994     1.0  0.68472  0.83739  0.13691  1.0000
  H   H4995     1.0  0.69224  0.82338  0.15250  1.0000
  H   H4996     1.0  0.64785  0.83523  0.16500  1.0000
  H   H4997     1.0  0.65918  0.84725  0.15044  1.0000
  H   H4998     1.0  0.66466  0.83083  0.12781  1.0000
  C   C2954     1.0  0.71321  0.85105  0.25608  1.0000
  H   H4999     1.0  0.69017  0.81651  0.12162  1.0000
  H   H5000     1.0  0.70704  0.81728  0.12752  1.0000
  H   H5001     1.0  0.69704  0.80178  0.13779  1.0000
  H   H5002     1.0  0.67895  0.84123  0.16705  1.0000
  H   H5003     1.0  0.65949  0.84791  0.17734  1.0000
  H   H5004     1.0  0.66815  0.82747  0.18177  1.0000
  H   H5005     1.0  0.73626  0.86582  0.26807  1.0000
  Fe  Fe434     1.0  0.68259  0.83049  0.29662  1.0000
  S   S865      1.0  0.64411  0.83457  0.98785  1.0000
  C   C2955     1.0  0.71588  0.79053  0.04146  1.0000
  H   H5006     1.0  0.71146  0.79338  0.01169  1.0000
  H   H5007     1.0  0.62733  0.80072  0.11965  1.0000
  H   H5008     1.0  0.60093  0.82112  0.11683  1.0000
  C   C2956     1.0  0.70574  0.92437  0.10303  1.0000
  H   H5009     1.0  0.68618  0.96483  0.20738  1.0000
  H   H5010     1.0  0.65908  0.92233  0.10485  1.0000
  H   H5011     1.0  0.49439  0.85625  0.30244  1.0000
  N   N211      1.0  0.61585  0.78480  0.13906  1.0000
  H   H5012     1.0  0.54167  0.96535  0.38564  1.0000
  N   N212      1.0  0.73858  0.73990  0.30763  1.0000
  H   H5013     1.0  0.52157  0.83336  0.27207  1.0000
  H   H5014     1.0  0.64623  0.77984  0.11740  1.0000
  H   H5015     1.0  0.62536  0.75912  0.04680  1.0000
  H   H5016     1.0  0.70849  0.97267  0.22249  1.0000
  H   H5017     1.0  0.53630  0.89618  0.44523  1.0000
  C   C2957     1.0  0.62589  0.77034  0.13321  1.0000
  C   C2958     1.0  0.70830  0.93991  0.19797  1.0000
  H   H5018     1.0  0.52215  0.81920  0.26171  1.0000
  H   H5019     1.0  0.50587  0.94925  0.42589  1.0000
  H   H5020     1.0  0.59157  0.79138  0.15181  1.0000
  C   C2959     1.0  0.61679  0.76150  0.08566  1.0000
  H   H5021     1.0  0.60343  0.79141  0.17086  1.0000
  C   C2960     1.0  0.73102  0.85618  0.27635  1.0000
  H   H5022     1.0  0.73548  0.85661  0.22987  1.0000
  C   C2961     1.0  0.52975  0.90784  0.44107  1.0000
  H   H5023     1.0  0.52428  0.98004  0.41427  1.0000
  H   H5024     1.0  0.72947  0.95696  0.21168  1.0000
  C   C2962     1.0  0.63102  0.76127  0.08922  1.0000
  N   N213      1.0  0.64561  0.78971  0.03478  1.0000
  C   C2963     1.0  0.66214  0.78007  0.03493  1.0000
  C   C2964     1.0  0.63449  0.77944  0.04508  1.0000
  C   C2965     1.0  0.64359  0.80340  0.04208  1.0000
  C   C2966     1.0  0.64363  0.79519  0.01798  1.0000
  C   C2967     1.0  0.67568  0.78866  0.02614  1.0000
  C   C2968     1.0  0.63561  0.76431  0.03981  1.0000
  C   C2969     1.0  0.62759  0.81514  0.04308  1.0000
  C   C2970     1.0  0.62661  0.79974  0.01531  1.0000
  H   H5025     1.0  0.66371  0.77508  0.04727  1.0000
  H   H5026     1.0  0.66443  0.76984  0.02949  1.0000
  H   H5027     1.0  0.62203  0.78580  0.04656  1.0000
  H   H5028     1.0  0.63659  0.77573  0.05720  1.0000
  H   H5029     1.0  0.64588  0.79916  0.05418  1.0000
  H   H5030     1.0  0.65232  0.81060  0.03540  1.0000
  H   H5031     1.0  0.64912  0.80544  0.01198  1.0000
  H   H5032     1.0  0.65014  0.78591  0.01123  1.0000
  H   H5033     1.0  0.67667  0.79689  0.03271  1.0000
  H   H5034     1.0  0.68701  0.77987  0.02518  1.0000
  H   H5035     1.0  0.67455  0.79499  0.01402  1.0000
  H   H5036     1.0  0.53039  0.96967  0.36406  1.0000
  C   C2971     1.0  0.68377  0.93690  0.08983  1.0000
  C   C2972     1.0  0.69669  0.97334  0.22077  1.0000
  H   H5037     1.0  0.62556  0.82154  0.03124  1.0000
  H   H5038     1.0  0.62776  0.82417  0.04917  1.0000
  H   H5039     1.0  0.61763  0.80964  0.05009  1.0000
  H   H5040     1.0  0.70851  0.74611  0.29836  1.0000
  H   H5041     1.0  0.61718  0.80240  0.02552  1.0000
  H   H5042     1.0  0.62427  0.79055  0.01087  1.0000
  C   C2973     1.0  0.57486  0.86401  0.33370  1.0000
  C   C2974     1.0  0.73385  0.89759  0.22152  1.0000
  C   C2975     1.0  0.61536  0.79840  0.12508  1.0000
  H   H5043     1.0  0.68332  0.93231  0.06765  1.0000
  C   C2976     1.0  0.59319  0.88221  0.30650  1.0000
  C   C2977     1.0  0.68725  0.92561  0.07867  1.0000
  S   S866      1.0  0.52627  0.93811  0.39904  1.0000
  S   S867      1.0  0.61189  0.74414  0.08550  1.0000
  H   H5044     1.0  0.68642  0.90567  0.10781  1.0000
  C   C2978     1.0  0.71248  0.91744  0.11802  1.0000
  H   H5045     1.0  0.70978  0.74637  0.10487  1.0000
  H   H5046     1.0  0.73353  0.82966  0.23713  1.0000
  H   H5047     1.0  0.64945  0.75897  0.12281  1.0000
  H   H5048     1.0  0.59391  0.81358  0.13685  1.0000
  H   H5049     1.0  0.58987  0.78631  0.12584  1.0000
  C   C2979     1.0  0.71468  0.96638  0.18907  1.0000
  H   H5050     1.0  0.70431  0.97241  0.18372  1.0000
  H   H5051     1.0  0.61199  0.79553  0.11548  1.0000
  C   C2980     1.0  0.51018  0.93112  0.44635  1.0000
  C   C2981     1.0  0.53246  0.91459  0.42486  1.0000
  C   C2982     1.0  0.64371  0.76988  0.12729  1.0000
  C   C2983     1.0  0.61267  0.79742  0.16270  1.0000
  H   H5052     1.0  0.59716  0.76556  0.13362  1.0000
  C   C2984     1.0  0.58680  0.74939  0.18143  1.0000
  C   C2985     1.0  0.49414  0.85806  0.27779  1.0000
  C   C2986     1.0  0.60488  0.81439  0.12784  1.0000
  C   C2987     1.0  0.59730  0.73940  0.17187  1.0000
  H   H5053     1.0  0.61991  0.79872  0.17018  1.0000
  H   H5054     1.0  0.62804  0.77601  0.15828  1.0000
  C   C2988     1.0  0.72240  0.78074  0.08752  1.0000
  H   H5055     1.0  0.57922  0.77594  0.14353  1.0000
  Fe  Fe435     1.0  0.49731  0.92797  0.25473  1.0000
  C   C2989     1.0  0.59123  0.77713  0.13665  1.0000
  H   H5056     1.0  0.52785  0.95339  0.32906  1.0000
  H   H5057     1.0  0.49504  0.88751  0.44426  1.0000
  C   C2990     1.0  0.51864  0.91609  0.45185  1.0000
  H   H5058     1.0  0.68878  0.97279  0.23262  1.0000
  H   H5059     1.0  0.50164  0.93758  0.45458  1.0000
  S   S868      1.0  0.61663  0.76563  0.19643  1.0000
  H   H5060     1.0  0.62471  0.75955  0.14262  1.0000
  N   N214      1.0  0.64419  0.91125  0.33801  1.0000
  C   C2991     1.0  0.64189  0.91743  0.35258  1.0000
  C   C2992     1.0  0.65134  0.89390  0.34199  1.0000
  C   C2993     1.0  0.62811  0.91371  0.33475  1.0000
  C   C2994     1.0  0.65455  0.92025  0.32454  1.0000
  C   C2995     1.0  0.63283  0.93464  0.35213  1.0000
  C   C2996     1.0  0.66810  0.88954  0.34508  1.0000
  C   C2997     1.0  0.62712  0.90709  0.32119  1.0000
  C   C2998     1.0  0.66234  0.91302  0.30985  1.0000
  H   H5061     1.0  0.63545  0.91012  0.36313  1.0000
  H   H5062     1.0  0.65340  0.91666  0.35521  1.0000
  H   H5063     1.0  0.65184  0.88771  0.33288  1.0000
  H   H5064     1.0  0.64380  0.88808  0.35269  1.0000
  H   H5065     1.0  0.62003  0.90870  0.34556  1.0000
  H   H5066     1.0  0.62268  0.92645  0.33176  1.0000
  H   H5067     1.0  0.64782  0.93230  0.32037  1.0000
  H   H5068     1.0  0.66428  0.92217  0.32862  1.0000
  H   H5069     1.0  0.63787  0.94295  0.34172  1.0000
  H   H5070     1.0  0.62013  0.93597  0.35275  1.0000
  H   H5071     1.0  0.63348  0.93819  0.36270  1.0000
  H   H5072     1.0  0.66828  0.89258  0.35606  1.0000
  H   H5073     1.0  0.67239  0.87659  0.34672  1.0000
  H   H5074     1.0  0.67657  0.89494  0.33507  1.0000
  H   H5075     1.0  0.61452  0.90925  0.32081  1.0000
  H   H5076     1.0  0.63160  0.89425  0.32278  1.0000
  H   H5077     1.0  0.63299  0.91324  0.30962  1.0000
  H   H5078     1.0  0.65869  0.92130  0.29925  1.0000
  H   H5079     1.0  0.65969  0.90169  0.31041  1.0000
  H   H5080     1.0  0.67535  0.91125  0.30758  1.0000
  C   C2999     1.0  0.53991  0.97147  0.31216  1.0000
  C   C3000     1.0  0.50855  0.96153  0.25712  1.0000
  H   H5081     1.0  0.58997  0.73561  0.05821  1.0000
  H   H5082     1.0  0.49511  0.82900  0.25933  1.0000
  H   H5083     1.0  0.70887  0.76615  0.28949  1.0000
  H   H5084     1.0  0.71002  0.91493  0.09625  1.0000
  H   H5085     1.0  0.70267  0.95121  0.11313  1.0000
  C   C3001     1.0  0.62331  0.78747  0.15084  1.0000
  H   H5086     1.0  0.65726  0.79394  0.18425  1.0000
  C   C3002     1.0  0.60643  0.77583  0.08181  1.0000
  C   C3003     1.0  0.51262  0.93772  0.43012  1.0000
  H   H5087     1.0  0.68362  0.91092  0.12581  1.0000
  H   H5088     1.0  0.64603  0.77532  0.09102  1.0000
  H   H5089     1.0  0.60720  0.96643  0.37471  1.0000
  H   H5090     1.0  0.54681  0.88846  0.47229  1.0000
  H   H5091     1.0  0.69159  0.95046  0.22351  1.0000
  H   H5092     1.0  0.58469  0.94001  0.30320  1.0000
  H   H5093     1.0  0.70563  0.92290  0.12801  1.0000
  C   C3004     1.0  0.72101  0.93722  0.22800  1.0000
  C   C3005     1.0  0.70541  0.85117  0.24285  1.0000
  H   H5094     1.0  0.73227  0.93191  0.23194  1.0000
  C   C3006     1.0  0.72233  0.89362  0.28459  1.0000
  H   H5095     1.0  0.60232  0.88882  0.29923  1.0000
  H   H5096     1.0  0.51858  0.96411  0.31255  1.0000
  H   H5097     1.0  0.69013  0.94645  0.08328  1.0000
  H   H5098     1.0  0.63912  0.75018  0.09212  1.0000
  H   H5099     1.0  0.63541  0.76652  0.02722  1.0000
  C   C3007     1.0  0.61607  0.83749  0.33616  1.0000
  C   C3008     1.0  0.66292  0.91860  0.11617  1.0000
  H   H5100     1.0  0.71924  0.81455  0.01477  1.0000
  H   H5101     1.0  0.73151  0.76016  0.33039  1.0000
  C   C3009     1.0  0.60869  0.75571  0.18726  1.0000
  H   H5102     1.0  0.55729  0.95676  0.27917  1.0000
  H   H5103     1.0  0.66449  0.81069  0.13568  1.0000
  H   H5104     1.0  0.53297  0.94154  0.30555  1.0000
  H   H5105     1.0  0.63865  0.82518  0.13241  1.0000
  C   C3010     1.0  0.68096  0.91561  0.11390  1.0000
  H   H5106     1.0  0.49236  0.89910  0.45772  1.0000
  C   C3011     1.0  0.72608  0.90024  0.19289  1.0000
  H   H5107     1.0  0.68159  0.93644  0.12822  1.0000
  H   H5108     1.0  0.71767  0.80327  0.07188  1.0000
  C   C3012     1.0  0.72636  0.79238  0.98903  1.0000
  H   H5109     1.0  0.67106  0.94274  0.09124  1.0000
  C   C3013     1.0  0.63495  0.77545  0.08858  1.0000
  C   C3014     1.0  0.51569  0.97163  0.26083  1.0000
  H   H5110     1.0  0.62189  0.76879  0.12327  1.0000
  C   C3015     1.0  0.72858  0.96149  0.17579  1.0000
  H   H5111     1.0  0.61155  0.82135  0.13083  1.0000
  H   H5112     1.0  0.64936  0.76941  0.13687  1.0000
  H   H5113     1.0  0.59552  0.85626  0.22589  1.0000
  H   H5114     1.0  0.53060  0.94713  0.28591  1.0000
  H   H5115     1.0  0.69595  0.95382  0.17901  1.0000
  H   H5116     1.0  0.71353  0.88300  0.30870  1.0000
  C   C3016     1.0  0.59975  0.78146  0.14693  1.0000
  H   H5117     1.0  0.50271  0.86313  0.26758  1.0000
  H   H5118     1.0  0.63704  0.81989  0.15318  1.0000
  H   H5119     1.0  0.66165  0.97831  0.16134  1.0000
  C   C3017     1.0  0.69594  0.95988  0.21378  1.0000
  C   C3018     1.0  0.58212  0.85133  0.30370  1.0000
  H   H5120     1.0  0.58667  0.83405  0.32473  1.0000
  H   H5121     1.0  0.56895  0.87238  0.32453  1.0000
  C   C3019     1.0  0.63947  0.81066  0.26309  1.0000
  H   H5122     1.0  0.60181  0.80088  0.07908  1.0000
  H   H5123     1.0  0.60725  0.80940  0.15714  1.0000
  S   S869      1.0  0.62814  0.80784  0.08448  1.0000
  H   H5124     1.0  0.57567  0.92372  0.31290  1.0000
  C   C3020     1.0  0.59107  0.84459  0.31717  1.0000
  H   H5125     1.0  0.59223  0.83684  0.34772  1.0000
  Fe  Fe436     1.0  0.60398  0.78675  0.20737  1.0000
  H   H5126     1.0  0.57157  0.86068  0.30609  1.0000
  C   C3021     1.0  0.73503  0.84142  0.26951  1.0000
  H   H5127     1.0  0.59009  0.85568  0.29253  1.0000
  H   H5128     1.0  0.62040  0.83170  0.34716  1.0000
  H   H5129     1.0  0.65904  0.90748  0.12237  1.0000
  C   C3022     1.0  0.67027  0.80691  0.16303  1.0000
  C   C3023     1.0  0.71856  0.80495  0.30142  1.0000
  H   H5130     1.0  0.59810  0.85368  0.34857  1.0000
  H   H5131     1.0  0.62544  0.81050  0.00580  1.0000
  C   C3024     1.0  0.56328  0.85342  0.34341  1.0000
  H   H5132     1.0  0.70474  0.81613  0.32045  1.0000
  C   C3025     1.0  0.61510  0.82660  0.25616  1.0000
  C   C3026     1.0  0.52271  0.98272  0.24889  1.0000
  H   H5133     1.0  0.50625  0.83902  0.29534  1.0000
  C   C3027     1.0  0.61349  0.73757  0.17008  1.0000
  H   H5134     1.0  0.60065  0.77158  0.15729  1.0000
  C   C3028     1.0  0.59868  0.84612  0.34048  1.0000
  H   H5135     1.0  0.60553  0.82851  0.25042  1.0000
  N   N215      1.0  0.55286  0.96143  0.30235  1.0000
  H   H5136     1.0  0.54455  0.97423  0.32107  1.0000
  C   C3029     1.0  0.55928  0.94637  0.31298  1.0000
  H   H5137     1.0  0.71845  0.75846  0.31365  1.0000
  C   C3030     1.0  0.54721  0.95874  0.28928  1.0000
  C   C3031     1.0  0.60100  0.86755  0.31735  1.0000
  H   H5138     1.0  0.54805  0.93401  0.28996  1.0000
  C   C3032     1.0  0.52517  0.96485  0.32089  1.0000
  C   C3033     1.0  0.70052  0.97864  0.14725  1.0000
  H   H5139     1.0  0.66927  0.94747  0.11532  1.0000
  C   C3034     1.0  0.69490  0.94381  0.18917  1.0000
  H   H5140     1.0  0.55036  0.93919  0.31893  1.0000
  H   H5141     1.0  0.56258  0.94903  0.32278  1.0000
  H   H5142     1.0  0.70583  0.78989  0.03715  1.0000
  C   C3035     1.0  0.53335  0.97541  0.39040  1.0000
  N   N216      1.0  0.71082  0.95338  0.20302  1.0000
  C   C3036     1.0  0.73277  0.79494  0.29611  1.0000
  H   H5143     1.0  0.62392  0.84553  0.32912  1.0000
  C   C3037     1.0  0.72687  0.80172  0.32567  1.0000
  H   H5144     1.0  0.67804  0.82454  0.98376  1.0000
  H   H5145     1.0  0.72346  0.82213  0.25649  1.0000
  H   H5146     1.0  0.72901  0.83262  0.27860  1.0000
  C   C3038     1.0  0.56605  0.97017  0.29519  1.0000
  H   H5147     1.0  0.51603  0.97063  0.27289  1.0000
  C   C3039     1.0  0.58792  0.97325  0.34529  1.0000
  N   N217      1.0  0.73061  0.84375  0.25402  1.0000
  H   H5148     1.0  0.64628  0.75534  0.04230  1.0000
  C   C3040     1.0  0.61522  0.83734  0.26474  1.0000
  S   S870      1.0  0.65899  0.82615  0.31131  1.0000
  H   H5149     1.0  0.67803  0.80594  0.17102  1.0000
  S   S871      1.0  0.70288  0.78194  0.09858  1.0000
  H   H5150     1.0  0.58433  0.76537  0.19630  1.0000
  C   C3041     1.0  0.58975  0.86451  0.23382  1.0000
  S   S872      1.0  0.62693  0.84794  0.28374  1.0000
  H   H5151     1.0  0.57794  0.85232  0.19754  1.0000
  Fe  Fe437     1.0  0.49448  0.91759  0.28963  1.0000
  H   H5152     1.0  0.61747  0.82809  0.32991  1.0000
  H   H5153     1.0  0.56672  0.84629  0.35450  1.0000
  H   H5154     1.0  0.56177  0.84577  0.33652  1.0000
  H   H5155     1.0  0.73441  0.93986  0.20425  1.0000
  H   H5156     1.0  0.51282  0.85685  0.28925  1.0000
  H   H5157     1.0  0.72355  0.75138  0.28100  1.0000
  H   H5158     1.0  0.69544  0.93350  0.18451  1.0000
  H   H5159     1.0  0.70654  0.84484  0.26727  1.0000
  H   H5160     1.0  0.71338  0.94446  0.23646  1.0000
  C   C3042     1.0  0.71650  0.75428  0.29235  1.0000
  H   H5161     1.0  0.57425  0.75081  0.18291  1.0000
  H   H5162     1.0  0.67945  0.73619  0.12629  1.0000
  H   H5163     1.0  0.51462  0.97510  0.21749  1.0000
  H   H5164     1.0  0.52135  0.97399  0.39091  1.0000
  H   H5165     1.0  0.71757  0.97575  0.19284  1.0000
  H   H5166     1.0  0.73121  0.75819  0.10129  1.0000
  H   H5167     1.0  0.65667  0.92728  0.12359  1.0000
  H   H5168     1.0  0.70001  0.92057  0.07523  1.0000
  C   C3043     1.0  0.73201  0.80935  0.01136  1.0000
  S   S873      1.0  0.51520  0.90705  0.47203  1.0000
  C   C3044     1.0  0.72642  0.79286  0.07485  1.0000
  H   H5169     1.0  0.71317  0.90458  0.12178  1.0000
  H   H5170     1.0  0.73271  0.73975  0.34056  1.0000
  C   C3045     1.0  0.72679  0.75478  0.30307  1.0000
  H   H5171     1.0  0.73658  0.89682  0.23262  1.0000
  H   H5172     1.0  0.53379  0.96020  0.41354  1.0000
  H   H5173     1.0  0.57116  0.97144  0.30456  1.0000
  H   H5174     1.0  0.68420  0.96410  0.11831  1.0000
  H   H5175     1.0  0.51709  0.97312  0.32815  1.0000
  C   C3046     1.0  0.73406  0.76739  0.09130  1.0000
  S   S874      1.0  0.49975  0.95000  0.23628  1.0000
  C   C3047     1.0  0.50028  0.83673  0.26320  1.0000
  H   H5176     1.0  0.73948  0.95529  0.18009  1.0000
  H   H5177     1.0  0.56882  0.97643  0.38981  1.0000
  H   H5178     1.0  0.71812  0.86034  0.28005  1.0000
  C   C3048     1.0  0.68461  0.98386  0.15371  1.0000
  H   H5179     1.0  0.73119  0.97224  0.16700  1.0000
  H   H5180     1.0  0.54600  0.97896  0.35082  1.0000
  H   H5181     1.0  0.54558  0.97418  0.40902  1.0000
  H   H5182     1.0  0.57876  0.74201  0.08193  1.0000
  H   H5183     1.0  0.72437  0.77475  0.01051  1.0000
  C   C3049     1.0  0.55706  0.89279  0.47238  1.0000
  H   H5184     1.0  0.73579  0.85326  0.28711  1.0000
  C   C3050     1.0  0.73337  0.82805  0.24982  1.0000
  C   C3051     1.0  0.51484  0.97412  0.22961  1.0000
  H   H5185     1.0  0.71473  0.78339  0.05367  1.0000
  S   S875      1.0  0.49244  0.92733  0.31060  1.0000
  C   C3052     1.0  0.73924  0.85480  0.24103  1.0000
  H   H5186     1.0  0.55910  0.97943  0.36801  1.0000
  C   C3053     1.0  0.53336  0.98086  0.35666  1.0000
  C   C3054     1.0  0.73944  0.74838  0.33239  1.0000
  H   H5187     1.0  0.68616  0.73626  0.10555  1.0000
  H   H5188     1.0  0.53543  0.98298  0.30478  1.0000
  N   N218      1.0  0.73510  0.79170  0.01426  1.0000
  C   C3055     1.0  0.73203  0.78404  0.03156  1.0000
  H   H5189     1.0  0.73332  0.77115  0.03319  1.0000
  S   S876      1.0  0.74007  0.89452  0.28816  1.0000
  C   C3056     1.0  0.74101  0.79152  0.32044  1.0000
  H   H5190     1.0  0.74084  0.78499  0.03745  1.0000
  C   C3057     1.0  0.74092  0.81634  0.01902  1.0000
  C   C3058     1.0  0.52227  0.98391  0.23328  1.0000
  N   N219      1.0  0.55566  0.91746  0.67299  1.0000
  Fe  Fe438     1.0  0.49979  0.92332  0.52318  1.0000
  S   S877      1.0  0.51096  0.93574  0.49936  1.0000
  S   S878      1.0  0.51119  0.91259  0.54417  1.0000
  H   H5191     1.0  0.61587  0.80421  0.82320  1.0000
  H   H5192     1.0  0.56931  0.74282  0.88176  1.0000
  H   H5193     1.0  0.54483  0.89992  0.67051  1.0000
  H   H5194     1.0  0.55963  0.92408  0.79726  1.0000
  S   S879      1.0  0.51394  0.91177  0.74875  1.0000
  Fe  Fe439     1.0  0.50698  0.96286  0.70891  1.0000
  Fe  Fe440     1.0  0.57852  0.92276  0.61313  1.0000
  S   S880      1.0  0.55587  0.92430  0.60619  1.0000
  S   S881      1.0  0.58963  0.90154  0.62984  1.0000
  Fe  Fe441     1.0  0.56652  0.93754  0.58248  1.0000
  S   S882      1.0  0.56364  0.93802  0.55816  1.0000
  Fe  Fe442     1.0  0.54832  0.94776  0.61279  1.0000
  H   H5195     1.0  0.57467  0.89978  0.50978  1.0000
  S   S883      1.0  0.59000  0.93388  0.58869  1.0000
  S   S884      1.0  0.56989  0.94516  0.62162  1.0000
  H   H5196     1.0  0.52552  0.89856  0.50273  1.0000
  Fe  Fe443     1.0  0.68863  0.81196  0.94867  1.0000
  Fe  Fe444     1.0  0.66282  0.82954  0.93091  1.0000
  S   S885      1.0  0.64405  0.81997  0.95022  1.0000
  S   S886      1.0  0.65700  0.84393  0.90777  1.0000
  Fe  Fe445     1.0  0.66164  0.79701  0.95108  1.0000
  S   S887      1.0  0.65501  0.77417  0.95324  1.0000
  H   H5197     1.0  0.62463  0.86631  0.86683  1.0000
  S   S888      1.0  0.67973  0.80613  0.93069  1.0000
  S   S889      1.0  0.58463  0.76484  0.85389  1.0000
  Fe  Fe446     1.0  0.66742  0.92310  0.86649  1.0000
  S   S890      1.0  0.65839  0.94490  0.84947  1.0000
  S   S891      1.0  0.65580  0.91641  0.89203  1.0000
  Fe  Fe447     1.0  0.69707  0.91312  0.84318  1.0000
  S   S892      1.0  0.69072  0.93375  0.82419  1.0000
  S   S893      1.0  0.71967  0.89604  0.83717  1.0000
  Fe  Fe448     1.0  0.68341  0.94788  0.84267  1.0000
  S   S894      1.0  0.69325  0.96957  0.83714  1.0000
  Fe  Fe449     1.0  0.66651  0.92889  0.83235  1.0000
  S   S895      1.0  0.65439  0.92975  0.81336  1.0000
  S   S896      1.0  0.69177  0.92746  0.86117  1.0000
  S   S897      1.0  0.67359  0.90686  0.84992  1.0000
  H   H5198     1.0  0.64174  0.93285  0.92182  1.0000
  S   S898      1.0  0.52348  0.95579  0.62550  1.0000
  H   H5199     1.0  0.50096  0.95552  0.65488  1.0000
  H   H5200     1.0  0.68378  0.75128  0.86904  1.0000
  S   S899      1.0  0.71964  0.90569  0.76592  1.0000
  H   H5201     1.0  0.57159  0.88374  0.69843  1.0000
  Fe  Fe450     1.0  0.58724  0.88363  0.78726  1.0000
  S   S900      1.0  0.61156  0.88188  0.79037  1.0000
  S   S901      1.0  0.57804  0.90424  0.76880  1.0000
  Fe  Fe451     1.0  0.58357  0.85364  0.81199  1.0000
  S   S902      1.0  0.60724  0.84952  0.81727  1.0000
  S   S903      1.0  0.56673  0.83744  0.82301  1.0000
  Fe  Fe452     1.0  0.60152  0.87543  0.81622  1.0000
  S   S904      1.0  0.60835  0.88260  0.83497  1.0000
  Fe  Fe453     1.0  0.61541  0.85628  0.79117  1.0000
  S   S905      1.0  0.63911  0.84355  0.78008  1.0000
  S   S906      1.0  0.57676  0.87918  0.81325  1.0000
  S   S907      1.0  0.59216  0.85840  0.78567  1.0000
  Fe  Fe454     1.0  0.66078  0.88705  0.67000  1.0000
  S   S908      1.0  0.66609  0.86192  0.66813  1.0000
  S   S909      1.0  0.64608  0.90730  0.65555  1.0000
  Fe  Fe455     1.0  0.67978  0.87941  0.69553  1.0000
  S   S910      1.0  0.68627  0.85365  0.69588  1.0000
  S   S911      1.0  0.68642  0.88771  0.71361  1.0000
  Fe  Fe456     1.0  0.69079  0.86118  0.66957  1.0000
  S   S912      1.0  0.71290  0.85163  0.65284  1.0000
  Fe  Fe457     1.0  0.66115  0.85681  0.69450  1.0000
  S   S913      1.0  0.64367  0.84248  0.70972  1.0000
  S   S914      1.0  0.68590  0.88695  0.66927  1.0000
  S   S915      1.0  0.65429  0.88198  0.69629  1.0000
  C   C3059     1.0  0.72633  0.83511  0.66087  1.0000
  S   S916      1.0  0.71352  0.80742  0.95112  1.0000
  Fe  Fe458     1.0  0.57980  0.95650  0.59694  1.0000
  H   H5202     1.0  0.72862  0.83132  0.70713  1.0000
  H   H5203     1.0  0.51933  0.96514  0.75967  1.0000
  C   C3060     1.0  0.72199  0.82634  0.67607  1.0000
  C   C3061     1.0  0.55063  0.90961  0.66304  1.0000
  S   S917      1.0  0.55741  0.96113  0.58884  1.0000
  H   H5204     1.0  0.71020  0.82934  0.68290  1.0000
  C   C3062     1.0  0.64035  0.84272  0.76069  1.0000
  C   C3063     1.0  0.62747  0.84091  0.75620  1.0000
  C   C3064     1.0  0.62883  0.83987  0.74070  1.0000
  C   C3065     1.0  0.64273  0.84164  0.72948  1.0000
  C   C3066     1.0  0.65553  0.84356  0.73398  1.0000
  C   C3067     1.0  0.65449  0.84368  0.74965  1.0000
  H   H5205     1.0  0.61658  0.83999  0.76472  1.0000
  H   H5206     1.0  0.61899  0.83814  0.73730  1.0000
  H   H5207     1.0  0.66634  0.84476  0.72543  1.0000
  H   H5208     1.0  0.66454  0.84491  0.75308  1.0000
  C   C3068     1.0  0.56358  0.90870  0.51164  1.0000
  H   H5209     1.0  0.54442  0.76008  0.87895  1.0000
  C   C3069     1.0  0.71115  0.89508  0.71943  1.0000
  C   C3070     1.0  0.70465  0.89330  0.70788  1.0000
  C   C3071     1.0  0.71291  0.89564  0.69218  1.0000
  H   H5210     1.0  0.51661  0.94426  0.60186  1.0000
  H   H5211     1.0  0.69962  0.97897  0.76045  1.0000
  H   H5212     1.0  0.70484  0.89336  0.73152  1.0000
  H   H5213     1.0  0.70794  0.89440  0.68316  1.0000
  H   H5214     1.0  0.67582  0.94101  0.89065  1.0000
  S   S918      1.0  0.67358  0.83627  0.94699  1.0000
  H   H5215     1.0  0.68732  0.95556  0.88018  1.0000
  C   C3072     1.0  0.53680  0.89660  0.76575  1.0000
  H   H5216     1.0  0.52922  0.88840  0.77175  1.0000
  C   C3073     1.0  0.64109  0.91716  0.81947  1.0000
  C   C3074     1.0  0.63383  0.91513  0.80858  1.0000
  C   C3075     1.0  0.62365  0.90466  0.81321  1.0000
  C   C3076     1.0  0.62061  0.89625  0.82880  1.0000
  C   C3077     1.0  0.62752  0.89866  0.83976  1.0000
  C   C3078     1.0  0.63776  0.90903  0.83511  1.0000
  H   H5217     1.0  0.63604  0.92170  0.79657  1.0000
  H   H5218     1.0  0.61803  0.90326  0.80478  1.0000
  H   H5219     1.0  0.62496  0.89254  0.85189  1.0000
  H   H5220     1.0  0.64291  0.91084  0.84371  1.0000
  C   C3079     1.0  0.72053  0.89594  0.81766  1.0000
  C   C3080     1.0  0.70657  0.89746  0.81306  1.0000
  C   C3081     1.0  0.70658  0.89957  0.79718  1.0000
  C   C3082     1.0  0.72050  0.90054  0.78580  1.0000
  C   C3083     1.0  0.73284  0.81342  0.68240  1.0000
  H   H5221     1.0  0.69139  0.88615  0.90784  1.0000
  H   H5222     1.0  0.69563  0.89735  0.82171  1.0000
  H   H5223     1.0  0.69564  0.90110  0.79373  1.0000
  C   C3084     1.0  0.72339  0.74657  0.92394  1.0000
  H   H5224     1.0  0.54430  0.74758  0.90527  1.0000
  C   C3085     1.0  0.58028  0.78523  0.84598  1.0000
  C   C3086     1.0  0.58883  0.79558  0.84696  1.0000
  C   C3087     1.0  0.58505  0.81171  0.83976  1.0000
  C   C3088     1.0  0.57259  0.81744  0.83186  1.0000
  C   C3089     1.0  0.56406  0.80705  0.83115  1.0000
  C   C3090     1.0  0.56799  0.79106  0.83798  1.0000
  H   H5225     1.0  0.59832  0.79116  0.85320  1.0000
  H   H5226     1.0  0.59152  0.81975  0.84057  1.0000
  H   H5227     1.0  0.55436  0.81139  0.82519  1.0000
  H   H5228     1.0  0.56134  0.78319  0.83716  1.0000
  C   C3091     1.0  0.65441  0.86442  0.90456  1.0000
  C   C3092     1.0  0.65598  0.87147  0.91581  1.0000
  C   C3093     1.0  0.65568  0.88763  0.91218  1.0000
  C   C3094     1.0  0.65387  0.89675  0.89729  1.0000
  C   C3095     1.0  0.65152  0.88982  0.88635  1.0000
  C   C3096     1.0  0.65183  0.87370  0.88996  1.0000
  H   H5229     1.0  0.65775  0.86444  0.92718  1.0000
  H   H5230     1.0  0.65734  0.89295  0.92076  1.0000
  H   H5231     1.0  0.64947  0.89689  0.87509  1.0000
  H   H5232     1.0  0.65047  0.86837  0.88125  1.0000
  C   C3097     1.0  0.64848  0.77424  0.93664  1.0000
  H   H5233     1.0  0.73299  0.95175  0.78023  1.0000
  H   H5234     1.0  0.63726  0.80086  0.76021  1.0000
  C   C3098     1.0  0.63756  0.77491  0.91019  1.0000
  C   C3099     1.0  0.64555  0.78621  0.90987  1.0000
  C   C3100     1.0  0.65085  0.78598  0.92307  1.0000
  C   C3101     1.0  0.64032  0.80519  0.81439  1.0000
  H   H5235     1.0  0.64756  0.79528  0.89941  1.0000
  H   H5236     1.0  0.65665  0.79500  0.92276  1.0000
  C   C3102     1.0  0.54221  0.91958  0.74586  1.0000
  C   C3103     1.0  0.55623  0.91785  0.75059  1.0000
  C   C3104     1.0  0.56058  0.90554  0.76296  1.0000
  C   C3105     1.0  0.55091  0.89480  0.77043  1.0000
  H   H5237     1.0  0.70022  0.86674  0.75556  1.0000
  H   H5238     1.0  0.56371  0.92615  0.74468  1.0000
  C   C3106     1.0  0.70868  0.96894  0.76506  1.0000
  H   H5239     1.0  0.68131  0.89902  0.75060  1.0000
  C   C3107     1.0  0.60500  0.90333  0.63733  1.0000
  C   C3108     1.0  0.61016  0.91740  0.63321  1.0000
  C   C3109     1.0  0.62254  0.91849  0.63914  1.0000
  C   C3110     1.0  0.62993  0.90555  0.64921  1.0000
  C   C3111     1.0  0.62466  0.89151  0.65352  1.0000
  C   C3112     1.0  0.61222  0.89043  0.64762  1.0000
  H   H5240     1.0  0.60472  0.92742  0.62529  1.0000
  H   H5241     1.0  0.62652  0.92939  0.63574  1.0000
  H   H5242     1.0  0.63032  0.88144  0.66121  1.0000
  H   H5243     1.0  0.60833  0.87950  0.65083  1.0000
  C   C3113     1.0  0.52310  0.96178  0.64241  1.0000
  C   C3114     1.0  0.53554  0.96764  0.64319  1.0000
  C   C3115     1.0  0.53588  0.97107  0.65723  1.0000
  C   C3116     1.0  0.52371  0.96874  0.67048  1.0000
  C   C3117     1.0  0.51098  0.96339  0.66957  1.0000
  C   C3118     1.0  0.51065  0.95997  0.65550  1.0000
  H   H5244     1.0  0.54495  0.96948  0.63299  1.0000
  C   C3119     1.0  0.50445  0.95826  0.56099  1.0000
  H   H5245     1.0  0.61169  0.77103  0.82553  1.0000
  C   C3120     1.0  0.52559  0.91997  0.54794  1.0000
  C   C3121     1.0  0.52955  0.91462  0.56275  1.0000
  C   C3122     1.0  0.54102  0.92019  0.56616  1.0000
  C   C3123     1.0  0.54895  0.93083  0.55459  1.0000
  C   C3124     1.0  0.54510  0.93606  0.53973  1.0000
  C   C3125     1.0  0.53329  0.93086  0.53649  1.0000
  H   H5246     1.0  0.52365  0.90618  0.57167  1.0000
  H   H5247     1.0  0.54392  0.91605  0.57763  1.0000
  H   H5248     1.0  0.55117  0.94432  0.53073  1.0000
  H   H5249     1.0  0.53026  0.93520  0.52509  1.0000
  C   C3126     1.0  0.56577  0.86953  0.52118  1.0000
  H   H5250     1.0  0.71804  0.95356  0.79793  1.0000
  H   H5251     1.0  0.59633  0.82306  0.80117  1.0000
  C   C3127     1.0  0.60607  0.79784  0.80151  1.0000
  H   H5252     1.0  0.72956  0.84075  0.72201  1.0000
  H   H5253     1.0  0.66320  0.89251  0.79433  1.0000
  H   H5254     1.0  0.69023  0.90358  0.89294  1.0000
  H   H5255     1.0  0.64943  0.86563  0.79211  1.0000
  H   H5256     1.0  0.68535  0.75680  0.93836  1.0000
  H   H5257     1.0  0.67610  0.87504  0.75174  1.0000
  C   C3128     1.0  0.54157  0.73621  0.88050  1.0000
  H   H5258     1.0  0.51675  0.87637  0.52138  1.0000
  C   C3129     1.0  0.53095  0.95837  0.76220  1.0000
  H   H5259     1.0  0.71304  0.77274  0.95960  1.0000
  H   H5260     1.0  0.68108  0.76281  0.89098  1.0000
  H   H5261     1.0  0.70013  0.74058  0.88807  1.0000
  C   C3130     1.0  0.73314  0.87453  0.87312  1.0000
  C   C3131     1.0  0.54881  0.90248  0.51331  1.0000
  H   H5262     1.0  0.53096  0.73819  0.89011  1.0000
  H   H5263     1.0  0.66597  0.97562  0.87625  1.0000
  C   C3132     1.0  0.71529  0.75511  0.93762  1.0000
  H   H5264     1.0  0.71851  0.75334  0.97125  1.0000
  H   H5265     1.0  0.60480  0.78925  0.79548  1.0000
  C   C3133     1.0  0.69729  0.89146  0.89586  1.0000
  H   H5266     1.0  0.71817  0.96516  0.74086  1.0000
  H   H5267     1.0  0.73059  0.93507  0.79583  1.0000
  H   H5268     1.0  0.52877  0.97023  0.78750  1.0000
  H   H5269     1.0  0.64814  0.89487  0.78454  1.0000
  C   C3134     1.0  0.63188  0.80253  0.78464  1.0000
  H   H5270     1.0  0.64682  0.87488  0.75481  1.0000
  H   H5271     1.0  0.73013  0.86619  0.70117  1.0000
  C   C3135     1.0  0.73442  0.85473  0.69759  1.0000
  H   H5272     1.0  0.50510  0.94195  0.59005  1.0000
  C   C3136     1.0  0.73461  0.89847  0.79039  1.0000
  C   C3137     1.0  0.66210  0.96493  0.88400  1.0000
  H   H5273     1.0  0.73510  0.87085  0.86190  1.0000
  H   H5274     1.0  0.50245  0.94984  0.76708  1.0000
  H   H5275     1.0  0.70917  0.76718  0.93253  1.0000
  H   H5276     1.0  0.56190  0.88257  0.68433  1.0000
  H   H5277     1.0  0.53515  0.88087  0.49629  1.0000
  H   H5278     1.0  0.68910  0.76863  0.95697  1.0000
  H   H5279     1.0  0.55349  0.93784  0.77149  1.0000
  H   H5280     1.0  0.73300  0.75232  0.91619  1.0000
  C   C3138     1.0  0.70139  0.87215  0.76463  1.0000
  C   C3139     1.0  0.72731  0.79634  0.93834  1.0000
  Fe  Fe459     1.0  0.50059  0.92141  0.48987  1.0000
  C   C3140     1.0  0.72774  0.89953  0.68816  1.0000
  C   C3141     1.0  0.69871  0.85620  0.90043  1.0000
  H   H5281     1.0  0.72052  0.93439  0.77379  1.0000
  C   C3142     1.0  0.69196  0.85686  0.87006  1.0000
  S   S919      1.0  0.49623  0.94211  0.71299  1.0000
  H   H5282     1.0  0.55127  0.89322  0.69968  1.0000
  C   C3143     1.0  0.73465  0.89605  0.80638  1.0000
  C   C3144     1.0  0.70752  0.85981  0.87127  1.0000
  C   C3145     1.0  0.69071  0.73751  0.89854  1.0000
  H   H5283     1.0  0.65940  0.98177  0.84205  1.0000
  C   C3146     1.0  0.54567  0.94205  0.78208  1.0000
  Fe  Fe460     1.0  0.50225  0.93597  0.73687  1.0000
  H   H5284     1.0  0.72935  0.80674  0.69420  1.0000
  H   H5285     1.0  0.62257  0.96746  0.88325  1.0000
  H   H5286     1.0  0.67395  0.94261  0.77371  1.0000
  H   H5287     1.0  0.49928  0.95892  0.59902  1.0000
  H   H5288     1.0  0.56426  0.91923  0.50189  1.0000
  H   H5289     1.0  0.69651  0.83189  0.90994  1.0000
  H   H5290     1.0  0.56282  0.91242  0.52257  1.0000
  C   C3147     1.0  0.56343  0.87746  0.50425  1.0000
  H   H5291     1.0  0.52711  0.88358  0.53087  1.0000
  C   C3148     1.0  0.63786  0.83063  0.87954  1.0000
  C   C3149     1.0  0.51681  0.95566  0.80712  1.0000
  H   H5292     1.0  0.64092  0.94816  0.89598  1.0000
  H   H5293     1.0  0.55943  0.94725  0.67702  1.0000
  C   C3150     1.0  0.68636  0.93695  0.76925  1.0000
  H   H5294     1.0  0.65358  0.89288  0.74588  1.0000
  H   H5295     1.0  0.66001  0.93880  0.91521  1.0000
  S   S920      1.0  0.67213  0.80059  0.96919  1.0000
  H   H5296     1.0  0.55541  0.87196  0.53073  1.0000
  C   C3151     1.0  0.56269  0.89047  0.69138  1.0000
  H   H5297     1.0  0.53896  0.91288  0.51157  1.0000
  H   H5298     1.0  0.67871  0.95478  0.90020  1.0000
  C   C3152     1.0  0.65149  0.88398  0.75701  1.0000
  H   H5299     1.0  0.53455  0.93500  0.67884  1.0000
  C   C3153     1.0  0.54383  0.75280  0.87119  1.0000
  H   H5300     1.0  0.72826  0.97607  0.74678  1.0000
  H   H5301     1.0  0.68390  0.90318  0.76767  1.0000
  H   H5302     1.0  0.64891  0.80832  0.80329  1.0000
  C   C3154     1.0  0.64468  0.83989  0.86318  1.0000
  H   H5303     1.0  0.63638  0.84446  0.85522  1.0000
  H   H5304     1.0  0.61179  0.84605  0.86498  1.0000
  N   N220      1.0  0.67158  0.88436  0.77253  1.0000
  C   C3155     1.0  0.61199  0.82152  0.87071  1.0000
  H   H5305     1.0  0.64071  0.81800  0.87908  1.0000
  H   H5306     1.0  0.62416  0.81735  0.86434  1.0000
  H   H5307     1.0  0.60834  0.81205  0.88071  1.0000
  H   H5308     1.0  0.60416  0.82377  0.86244  1.0000
  C   C3156     1.0  0.53224  0.90916  0.75363  1.0000
  H   H5309     1.0  0.65467  0.83189  0.85707  1.0000
  N   N221      1.0  0.67529  0.88776  0.61824  1.0000
  C   C3157     1.0  0.66641  0.90421  0.61258  1.0000
  C   C3158     1.0  0.68471  0.88767  0.62973  1.0000
  C   C3159     1.0  0.66322  0.87805  0.62734  1.0000
  C   C3160     1.0  0.68537  0.88107  0.60436  1.0000
  C   C3161     1.0  0.67610  0.91698  0.60575  1.0000
  C   C3162     1.0  0.70181  0.88984  0.62295  1.0000
  C   C3163     1.0  0.65101  0.87758  0.61859  1.0000
  C   C3164     1.0  0.69343  0.86349  0.60829  1.0000
  H   H5310     1.0  0.66040  0.90454  0.60326  1.0000
  H   H5311     1.0  0.65687  0.90828  0.62231  1.0000
  H   H5312     1.0  0.68583  0.87636  0.63860  1.0000
  H   H5313     1.0  0.67835  0.89669  0.63684  1.0000
  H   H5314     1.0  0.66893  0.86567  0.63187  1.0000
  H   H5315     1.0  0.65645  0.88244  0.63812  1.0000
  H   H5316     1.0  0.67837  0.88255  0.59551  1.0000
  H   H5317     1.0  0.69457  0.88779  0.59759  1.0000
  H   H5318     1.0  0.68601  0.91404  0.59591  1.0000
  H   H5319     1.0  0.66835  0.92812  0.60096  1.0000
  H   H5320     1.0  0.68031  0.91944  0.61504  1.0000
  H   H5321     1.0  0.70963  0.87922  0.61899  1.0000
  H   H5322     1.0  0.70294  0.90019  0.61321  1.0000
  H   H5323     1.0  0.70645  0.89134  0.63247  1.0000
  H   H5324     1.0  0.65657  0.87327  0.60760  1.0000
  H   H5325     1.0  0.64287  0.88918  0.61613  1.0000
  H   H5326     1.0  0.50661  0.96418  0.81227  1.0000
  H   H5327     1.0  0.68608  0.85603  0.60718  1.0000
  H   H5328     1.0  0.69576  0.85965  0.62032  1.0000
  H   H5329     1.0  0.70511  0.86128  0.60017  1.0000
  H   H5330     1.0  0.61972  0.81932  0.80648  1.0000
  C   C3165     1.0  0.65915  0.88672  0.78723  1.0000
  S   S921      1.0  0.63047  0.77644  0.89350  1.0000
  H   H5331     1.0  0.61958  0.81223  0.89950  1.0000
  C   C3166     1.0  0.61014  0.83688  0.87593  1.0000
  N   N222      1.0  0.62312  0.79665  0.80106  1.0000
  H   H5332     1.0  0.51900  0.93003  0.79379  1.0000
  C   C3167     1.0  0.51965  0.95986  0.57880  1.0000
  H   H5333     1.0  0.53912  0.92899  0.73621  1.0000
  H   H5334     1.0  0.68249  0.86764  0.86984  1.0000
  H   H5335     1.0  0.62802  0.81545  0.78100  1.0000
  H   H5336     1.0  0.65762  0.91834  0.77344  1.0000
  H   H5337     1.0  0.65139  0.91236  0.75907  1.0000
  H   H5338     1.0  0.66558  0.92422  0.75290  1.0000
  H   H5339     1.0  0.69382  0.85323  0.85882  1.0000
  N   N223      1.0  0.60102  0.88367  0.72498  1.0000
  C   C3168     1.0  0.59396  0.87500  0.74108  1.0000
  C   C3169     1.0  0.61694  0.88542  0.72551  1.0000
  C   C3170     1.0  0.60325  0.87348  0.71354  1.0000
  C   C3171     1.0  0.58990  0.89927  0.72087  1.0000
  C   C3172     1.0  0.57787  0.87114  0.74296  1.0000
  C   C3173     1.0  0.61710  0.89307  0.73871  1.0000
  C   C3174     1.0  0.61038  0.87987  0.69618  1.0000
  C   C3175     1.0  0.59713  0.91282  0.70932  1.0000
  H   H5340     1.0  0.60219  0.86380  0.74485  1.0000
  H   H5341     1.0  0.59205  0.88189  0.75010  1.0000
  H   H5342     1.0  0.62248  0.89239  0.71427  1.0000
  H   H5343     1.0  0.62528  0.87376  0.72695  1.0000
  H   H5344     1.0  0.61086  0.86176  0.71723  1.0000
  H   H5345     1.0  0.59190  0.87109  0.71348  1.0000
  H   H5346     1.0  0.58052  0.89781  0.71597  1.0000
  H   H5347     1.0  0.58354  0.90388  0.73163  1.0000
  H   H5348     1.0  0.57301  0.86696  0.75568  1.0000
  H   H5349     1.0  0.56910  0.88156  0.73865  1.0000
  H   H5350     1.0  0.57902  0.86145  0.73719  1.0000
  H   H5351     1.0  0.60712  0.90325  0.74023  1.0000
  H   H5352     1.0  0.61682  0.88436  0.75009  1.0000
  H   H5353     1.0  0.62820  0.89726  0.73582  1.0000
  H   H5354     1.0  0.62155  0.88349  0.69447  1.0000
  H   H5355     1.0  0.60181  0.88957  0.69059  1.0000
  H   H5356     1.0  0.61325  0.87035  0.68966  1.0000
  H   H5357     1.0  0.60421  0.91713  0.71479  1.0000
  H   H5358     1.0  0.58745  0.92291  0.70623  1.0000
  H   H5359     1.0  0.60449  0.90975  0.69819  1.0000
  C   C3176     1.0  0.69673  0.75773  0.96246  1.0000
  H   H5360     1.0  0.56174  0.86841  0.49905  1.0000
  C   C3177     1.0  0.67581  0.74378  0.86948  1.0000
  H   H5361     1.0  0.71386  0.80331  0.92036  1.0000
  C   C3178     1.0  0.62390  0.80667  0.81152  1.0000
  H   H5362     1.0  0.63686  0.82043  0.91213  1.0000
  C   C3179     1.0  0.55658  0.74132  0.90581  1.0000
  C   C3180     1.0  0.72595  0.89886  0.71545  1.0000
  H   H5363     1.0  0.64194  0.88927  0.76584  1.0000
  C   C3181     1.0  0.62384  0.82353  0.91528  1.0000
  C   C3182     1.0  0.61631  0.82435  0.90161  1.0000
  H   H5364     1.0  0.59755  0.84051  0.88178  1.0000
  C   C3183     1.0  0.67537  0.89991  0.76295  1.0000
  H   H5365     1.0  0.51204  0.94622  0.56218  1.0000
  N   N224      1.0  0.62068  0.83614  0.88657  1.0000
  C   C3184     1.0  0.70606  0.83842  0.90420  1.0000
  H   H5366     1.0  0.54577  0.97517  0.65788  1.0000
  H   H5367     1.0  0.71261  0.83358  0.89373  1.0000
  H   H5368     1.0  0.72773  0.88726  0.87156  1.0000
  H   H5369     1.0  0.63897  0.75350  0.94736  1.0000
  Fe  Fe461     1.0  0.60165  0.75342  0.86990  1.0000
  H   H5370     1.0  0.67689  0.96707  0.77895  1.0000
  H   H5371     1.0  0.61512  0.87711  0.88181  1.0000
  C   C3185     1.0  0.54172  0.97032  0.75641  1.0000
  C   C3186     1.0  0.67662  0.95333  0.88930  1.0000
  H   H5372     1.0  0.71128  0.86832  0.86027  1.0000
  H   H5373     1.0  0.64409  0.94837  0.92890  1.0000
  H   H5374     1.0  0.62905  0.75427  0.92402  1.0000
  Fe  Fe462     1.0  0.62124  0.75692  0.89057  1.0000
  C   C3187     1.0  0.63065  0.77967  0.80657  1.0000
  H   H5375     1.0  0.72336  0.86748  0.89800  1.0000
  H   H5376     1.0  0.68495  0.75721  0.91004  1.0000
  H   H5377     1.0  0.53612  0.86585  0.52309  1.0000
  H   H5378     1.0  0.71121  0.86425  0.76999  1.0000
  H   H5379     1.0  0.64355  0.86933  0.62632  1.0000
  H   H5380     1.0  0.70622  0.93360  0.79150  1.0000
  H   H5381     1.0  0.54535  0.89677  0.52584  1.0000
  H   H5382     1.0  0.73014  0.85211  0.88776  1.0000
  C   C3188     1.0  0.50932  0.95087  0.59309  1.0000
  C   C3189     1.0  0.63057  0.79524  0.77167  1.0000
  H   H5383     1.0  0.66783  0.75338  0.90735  1.0000
  H   H5384     1.0  0.53400  0.96417  0.54869  1.0000
  H   H5385     1.0  0.65918  0.95955  0.87583  1.0000
  H   H5386     1.0  0.64499  0.79331  0.82096  1.0000
  H   H5387     1.0  0.64912  0.84972  0.86427  1.0000
  C   C3190     1.0  0.66154  0.91436  0.76215  1.0000
  N   N225      1.0  0.52931  0.94985  0.77925  1.0000
  H   H5388     1.0  0.71411  0.83577  0.91235  1.0000
  C   C3191     1.0  0.68687  0.97102  0.79582  1.0000
  H   H5389     1.0  0.55416  0.88523  0.77997  1.0000
  H   H5390     1.0  0.70223  0.76762  0.97921  1.0000
  C   C3192     1.0  0.67863  0.73691  0.95598  1.0000
  H   H5391     1.0  0.73137  0.95517  0.75400  1.0000
  H   H5392     1.0  0.71313  0.97338  0.77290  1.0000
  H   H5393     1.0  0.72949  0.85634  0.68712  1.0000
  H   H5394     1.0  0.73087  0.89995  0.72457  1.0000
  S   S922      1.0  0.52492  0.97198  0.68822  1.0000
  H   H5395     1.0  0.65940  0.96659  0.91558  1.0000
  H   H5396     1.0  0.51210  0.96618  0.50145  1.0000
  H   H5397     1.0  0.57474  0.94913  0.65991  1.0000
  H   H5398     1.0  0.59948  0.79458  0.81382  1.0000
  C   C3193     1.0  0.72449  0.79617  0.92396  1.0000
  C   C3194     1.0  0.69764  0.88252  0.88349  1.0000
  H   H5399     1.0  0.63587  0.78248  0.77357  1.0000
  H   H5400     1.0  0.60331  0.82677  0.90622  1.0000
  H   H5401     1.0  0.64529  0.83097  0.88733  1.0000
  Fe  Fe463     1.0  0.65637  0.82454  0.96641  1.0000
  S   S923      1.0  0.51444  0.95565  0.73186  1.0000
  H   H5402     1.0  0.56896  0.85658  0.52239  1.0000
  H   H5403     1.0  0.56455  0.90631  0.48353  1.0000
  C   C3195     1.0  0.50762  0.97783  0.50372  1.0000
  C   C3196     1.0  0.51989  0.93763  0.78183  1.0000
  C   C3197     1.0  0.72630  0.84268  0.71061  1.0000
  H   H5404     1.0  0.62011  0.81413  0.92537  1.0000
  C   C3198     1.0  0.64716  0.94325  0.91836  1.0000
  H   H5405     1.0  0.53964  0.92976  0.80713  1.0000
  C   C3199     1.0  0.52863  0.87784  0.52108  1.0000
  S   S924      1.0  0.59593  0.75543  0.89504  1.0000
  H   H5406     1.0  0.61829  0.79737  0.77041  1.0000
  C   C3200     1.0  0.64091  0.76258  0.93685  1.0000
  H   H5407     1.0  0.58452  0.81359  0.79576  1.0000
  H   H5408     1.0  0.57843  0.90143  0.67145  1.0000
  H   H5409     1.0  0.52842  0.92695  0.65982  1.0000
  H   H5410     1.0  0.69051  0.95897  0.75420  1.0000
  C   C3201     1.0  0.72240  0.96596  0.75094  1.0000
  H   H5411     1.0  0.73412  0.90132  0.67603  1.0000
  C   C3202     1.0  0.61770  0.85189  0.89075  1.0000
  H   H5412     1.0  0.68607  0.85778  0.90070  1.0000
  H   H5413     1.0  0.62000  0.83460  0.91959  1.0000
  H   H5414     1.0  0.53309  0.91551  0.68871  1.0000
  H   H5415     1.0  0.63932  0.81360  0.82169  1.0000
  H   H5416     1.0  0.68515  0.88308  0.88379  1.0000
  H   H5417     1.0  0.68870  0.75237  0.97296  1.0000
  C   C3203     1.0  0.56301  0.93061  0.66203  1.0000
  H   H5418     1.0  0.70202  0.88959  0.87169  1.0000
  H   H5419     1.0  0.64359  0.77805  0.80500  1.0000
  C   C3204     1.0  0.61522  0.86670  0.87755  1.0000
  H   H5420     1.0  0.60690  0.85352  0.90025  1.0000
  H   H5421     1.0  0.60366  0.86882  0.87443  1.0000
  H   H5422     1.0  0.66895  0.73837  0.95005  1.0000
  C   C3205     1.0  0.53480  0.88771  0.50486  1.0000
  H   H5423     1.0  0.69849  0.86055  0.91084  1.0000
  H   H5424     1.0  0.60174  0.81839  0.78193  1.0000
  H   H5425     1.0  0.69067  0.92768  0.77887  1.0000
  H   H5426     1.0  0.62749  0.85251  0.89562  1.0000
  H   H5427     1.0  0.53029  0.95103  0.57482  1.0000
  C   C3206     1.0  0.63532  0.76297  0.92366  1.0000
  N   N226      1.0  0.64780  0.96903  0.89663  1.0000
  C   C3207     1.0  0.54131  0.92368  0.68465  1.0000
  H   H5428     1.0  0.62763  0.95889  0.90975  1.0000
  S   S925      1.0  0.62618  0.75671  0.86496  1.0000
  H   H5429     1.0  0.69433  0.96495  0.80440  1.0000
  C   C3208     1.0  0.66692  0.87614  0.76269  1.0000
  H   H5430     1.0  0.57841  0.93323  0.67598  1.0000
  C   C3209     1.0  0.59689  0.81422  0.79460  1.0000
  H   H5431     1.0  0.64455  0.87510  0.80813  1.0000
  C   C3210     1.0  0.64040  0.95501  0.90466  1.0000
  H   H5432     1.0  0.52601  0.92937  0.77389  1.0000
  H   H5433     1.0  0.64468  0.80047  0.78415  1.0000
  H   H5434     1.0  0.66652  0.86371  0.76865  1.0000
  C   C3211     1.0  0.65417  0.87175  0.79818  1.0000
  H   H5435     1.0  0.55392  0.96492  0.75793  1.0000
  C   C3212     1.0  0.50287  0.94392  0.77943  1.0000
  C   C3213     1.0  0.54407  0.92626  0.69981  1.0000
  C   C3214     1.0  0.52465  0.97444  0.55169  1.0000
  H   H5436     1.0  0.55595  0.92773  0.69912  1.0000
  H   H5437     1.0  0.52893  0.97853  0.50955  1.0000
  C   C3215     1.0  0.56919  0.94037  0.66950  1.0000
  H   H5438     1.0  0.57300  0.92592  0.65294  1.0000
  C   C3216     1.0  0.62402  0.77204  0.82375  1.0000
  H   H5439     1.0  0.55440  0.93933  0.65560  1.0000
  H   H5440     1.0  0.53459  0.91273  0.64786  1.0000
  C   C3217     1.0  0.67007  0.73472  0.88631  1.0000
  C   C3218     1.0  0.56805  0.90535  0.68064  1.0000
  H   H5441     1.0  0.62475  0.77834  0.83231  1.0000
  H   H5442     1.0  0.62927  0.77230  0.79926  1.0000
  C   C3219     1.0  0.53888  0.92019  0.65292  1.0000
  H   H5443     1.0  0.56105  0.90407  0.65490  1.0000
  H   H5444     1.0  0.54460  0.92826  0.64276  1.0000
  H   H5445     1.0  0.50146  0.96174  0.67973  1.0000
  H   H5446     1.0  0.72505  0.75677  0.94180  1.0000
  H   H5447     1.0  0.53680  0.98053  0.76209  1.0000
  H   H5448     1.0  0.70749  0.94341  0.75436  1.0000
  H   H5449     1.0  0.63104  0.75988  0.82667  1.0000
  C   C3220     1.0  0.68030  0.75344  0.90187  1.0000
  H   H5450     1.0  0.68909  0.87866  0.78662  1.0000
  C   C3221     1.0  0.68630  0.87407  0.77772  1.0000
  H   H5451     1.0  0.71668  0.84884  0.87038  1.0000
  H   H5452     1.0  0.57594  0.87261  0.52332  1.0000
  H   H5453     1.0  0.66387  0.86358  0.80347  1.0000
  C   C3222     1.0  0.54726  0.92756  0.79578  1.0000
  H   H5454     1.0  0.57292  0.91022  0.68771  1.0000
  H   H5455     1.0  0.53580  0.93717  0.70272  1.0000
  C   C3223     1.0  0.69686  0.94909  0.76217  1.0000
  S   S926      1.0  0.74003  0.92860  0.72734  1.0000
  H   H5456     1.0  0.54247  0.97507  0.74359  1.0000
  N   N227      1.0  0.70140  0.95509  0.77393  1.0000
  C   C3224     1.0  0.55389  0.90154  0.48576  1.0000
  H   H5457     1.0  0.56836  0.98252  0.55694  1.0000
  H   H5458     1.0  0.51279  0.94451  0.81058  1.0000
  C   C3225     1.0  0.73561  0.78686  0.91413  1.0000
  H   H5459     1.0  0.68187  0.95008  0.79350  1.0000
  H   H5460     1.0  0.68461  0.86196  0.78356  1.0000
  H   H5461     1.0  0.53351  0.75897  0.86584  1.0000
  H   H5462     1.0  0.74057  0.87318  0.66720  1.0000
  H   H5463     1.0  0.49573  0.95192  0.78734  1.0000
  H   H5464     1.0  0.54493  0.91728  0.79310  1.0000
  C   C3226     1.0  0.71269  0.94178  0.78209  1.0000
  H   H5465     1.0  0.68650  0.93116  0.75990  1.0000
  S   S927      1.0  0.59366  0.97534  0.59064  1.0000
  H   H5466     1.0  0.68798  0.84724  0.87968  1.0000
  H   H5467     1.0  0.55439  0.75270  0.86151  1.0000
  H   H5468     1.0  0.56306  0.74995  0.90611  1.0000
  H   H5469     1.0  0.70916  0.89258  0.89586  1.0000
  C   C3227     1.0  0.68639  0.96036  0.78541  1.0000
  H   H5470     1.0  0.55131  0.95062  0.78402  1.0000
  N   N228      1.0  0.70683  0.86573  0.88553  1.0000
  H   H5471     1.0  0.49711  0.93384  0.78220  1.0000
  H   H5472     1.0  0.52393  0.96761  0.58353  1.0000
  N   N229      1.0  0.51187  0.96911  0.56525  1.0000
  H   H5473     1.0  0.52681  0.95430  0.81261  1.0000
  H   H5474     1.0  0.70510  0.88343  0.75897  1.0000
  H   H5475     1.0  0.51045  0.96961  0.78524  1.0000
  H   H5476     1.0  0.54407  0.91198  0.48382  1.0000
  H   H5477     1.0  0.54095  0.91673  0.71004  1.0000
  H   H5478     1.0  0.66060  0.74316  0.89230  1.0000
  N   N230      1.0  0.70410  0.74699  0.95106  1.0000
  H   H5479     1.0  0.68169  0.73559  0.86142  1.0000
  H   H5480     1.0  0.53554  0.94981  0.75438  1.0000
  C   C3228     1.0  0.52119  0.96185  0.78919  1.0000
  H   H5481     1.0  0.63808  0.97382  0.86713  1.0000
  C   C3229     1.0  0.70843  0.76299  0.96846  1.0000
  H   H5482     1.0  0.49460  0.95433  0.54344  1.0000
  H   H5483     1.0  0.57494  0.88037  0.49743  1.0000
  N   N231      1.0  0.55041  0.89197  0.50238  1.0000
  C   C3230     1.0  0.63582  0.98174  0.88886  1.0000
  H   H5484     1.0  0.64050  0.97890  0.91734  1.0000
  C   C3231     1.0  0.62895  0.97707  0.87739  1.0000
  C   C3232     1.0  0.65146  0.97552  0.90854  1.0000
  C   C3233     1.0  0.73437  0.90097  0.69984  1.0000
  H   H5485     1.0  0.71336  0.84734  0.71261  1.0000
  C   C3234     1.0  0.72403  0.94610  0.78936  1.0000
  H   H5486     1.0  0.66544  0.75150  0.86490  1.0000
  C   C3235     1.0  0.72335  0.86449  0.88689  1.0000
  H   H5487     1.0  0.69647  0.73801  0.93520  1.0000
  H   H5488     1.0  0.73346  0.78667  0.90302  1.0000
  C   C3236     1.0  0.69140  0.74511  0.94434  1.0000
  H   H5489     1.0  0.69022  0.98219  0.78889  1.0000
  H   H5490     1.0  0.52033  0.98009  0.54075  1.0000
  H   H5491     1.0  0.53921  0.98085  0.56384  1.0000
  H   H5492     1.0  0.51262  0.96063  0.53544  1.0000
  H   H5493     1.0  0.67482  0.97429  0.80300  1.0000
  H   H5494     1.0  0.57345  0.97442  0.62197  1.0000
  C   C3237     1.0  0.50140  0.96246  0.54425  1.0000
  H   H5495     1.0  0.49302  0.95700  0.56931  1.0000
  H   H5496     1.0  0.67311  0.74208  0.96646  1.0000
  H   H5497     1.0  0.71518  0.74753  0.91648  1.0000
  H   H5498     1.0  0.49458  0.97454  0.54098  1.0000
  H   H5499     1.0  0.74052  0.86204  0.72229  1.0000
  C   C3238     1.0  0.49955  0.98268  0.57066  1.0000
  C   C3239     1.0  0.57944  0.98389  0.61910  1.0000
  H   H5500     1.0  0.72888  0.73407  0.92808  1.0000
  C   C3240     1.0  0.74116  0.78720  0.94289  1.0000
  C   C3241     1.0  0.95894  0.22583  0.21853  1.0000
  S   S928      1.0  0.97075  0.15397  0.26175  1.0000
  H   H5501     1.0  0.77240  0.15778  0.04324  1.0000
  Fe  Fe464     1.0  0.95894  0.13441  0.27615  1.0000
  S   S929      1.0  0.93233  0.14226  0.28162  1.0000
  S   S930      1.0  0.84502  0.22521  0.40361  1.0000
  H   H5502     1.0  0.75939  0.10065  0.24452  1.0000
  N   N232      1.0  0.75630  0.11700  0.33955  1.0000
  H   H5503     1.0  0.79545  0.09239  0.28820  1.0000
  C   C3242     1.0  0.75089  0.18638  0.07088  1.0000
  H   H5504     1.0  0.83728  0.17266  0.03175  1.0000
  C   C3243     1.0  0.75736  0.10001  0.34008  1.0000
  S   S931      1.0  0.78159  0.21629  0.08378  1.0000
  C   C3244     1.0  0.76979  0.08806  0.34859  1.0000
  C   C3245     1.0  0.77208  0.09940  0.24379  1.0000
  C   C3246     1.0  0.94004  0.23008  0.18149  1.0000
  Fe  Fe465     1.0  0.86188  0.11544  0.27444  1.0000
  S   S932      1.0  0.85108  0.12942  0.25405  1.0000
  S   S933      1.0  0.88816  0.10605  0.26828  1.0000
  Fe  Fe466     1.0  0.83015  0.11855  0.29756  1.0000
  S   S934      1.0  0.81694  0.13293  0.27890  1.0000
  S   S935      1.0  0.81525  0.11406  0.32207  1.0000
  Fe  Fe467     1.0  0.83230  0.11548  0.26459  1.0000
  S   S936      1.0  0.82325  0.10721  0.24808  1.0000
  Fe  Fe468     1.0  0.83689  0.14536  0.27026  1.0000
  S   S937      1.0  0.83468  0.17142  0.26434  1.0000
  S   S938      1.0  0.84414  0.10004  0.28390  1.0000
  S   S939      1.0  0.84898  0.13244  0.28998  1.0000
  C   C3247     1.0  0.82446  0.22031  0.12999  1.0000
  S   S940      1.0  0.86684  0.21769  0.15980  1.0000
  H   H5505     1.0  0.95690  0.21517  0.41506  1.0000
  C   C3248     1.0  0.83690  0.17705  0.42701  1.0000
  C   C3249     1.0  0.85474  0.14199  0.39429  1.0000
  Fe  Fe469     1.0  0.84821  0.21894  0.18189  1.0000
  S   S941      1.0  0.83534  0.19933  0.19250  1.0000
  S   S942      1.0  0.78001  0.17891  0.35025  1.0000
  H   H5506     1.0  0.78094  0.11542  0.33804  1.0000
  H   H5507     1.0  0.76612  0.07615  0.30152  1.0000
  H   H5508     1.0  0.77684  0.10645  0.23216  1.0000
  H   H5509     1.0  0.84350  0.17063  0.37071  1.0000
  Fe  Fe470     1.0  0.79882  0.17677  0.36286  1.0000
  S   S943      1.0  0.82270  0.16109  0.35792  1.0000
  H   H5510     1.0  0.78095  0.18208  0.03296  1.0000
  H   H5511     1.0  0.94111  0.20422  0.20845  1.0000
  S   S944      1.0  0.79266  0.01455  0.24798  1.0000
  H   H5512     1.0  0.84520  0.18788  0.39476  1.0000
  H   H5513     1.0  0.76159  0.03496  0.18439  1.0000
  Fe  Fe471     1.0  0.79113  0.03407  0.25960  1.0000
  S   S945      1.0  0.81190  0.03805  0.26616  1.0000
  S   S946      1.0  0.77123  0.02763  0.27963  1.0000
  C   C3250     1.0  0.76725  0.21361  0.03036  1.0000
  C   C3251     1.0  0.78314  0.22426  0.00549  1.0000
  Fe  Fe472     1.0  0.77147  0.00960  0.26675  1.0000
  C   C3252     1.0  0.77191  0.12116  0.33086  1.0000
  C   C3253     1.0  0.98554  0.22886  0.39348  1.0000
  C   C3254     1.0  0.81165  0.21554  0.38805  1.0000
  C   C3255     1.0  0.82585  0.21807  0.38930  1.0000
  H   H5514     1.0  0.91677  0.20906  0.23738  1.0000
  H   H5515     1.0  0.81132  0.21133  0.37815  1.0000
  H   H5516     1.0  0.83637  0.21582  0.38029  1.0000
  C   C3256     1.0  0.81765  0.16030  0.03695  1.0000
  C   C3257     1.0  0.79802  0.21833  0.39969  1.0000
  C   C3258     1.0  0.84709  0.17639  0.39162  1.0000
  C   C3259     1.0  0.93135  0.22141  0.17789  1.0000
  H   H5517     1.0  0.82297  0.20894  0.13730  1.0000
  C   C3260     1.0  0.75701  0.01165  0.22110  1.0000
  C   C3261     1.0  0.82042  0.08787  0.25312  1.0000
  C   C3262     1.0  0.81483  0.08265  0.24292  1.0000
  C   C3263     1.0  0.81209  0.06739  0.24683  1.0000
  C   C3264     1.0  0.81536  0.05714  0.26078  1.0000
  C   C3265     1.0  0.82138  0.06222  0.27077  1.0000
  C   C3266     1.0  0.82360  0.07765  0.26710  1.0000
  H   H5518     1.0  0.81241  0.09049  0.23204  1.0000
  H   H5519     1.0  0.80760  0.06348  0.23901  1.0000
  H   H5520     1.0  0.82386  0.05432  0.28160  1.0000
  H   H5521     1.0  0.82771  0.08161  0.27513  1.0000
  C   C3267     1.0  0.81797  0.12557  0.33345  1.0000
  C   C3268     1.0  0.83263  0.12913  0.33121  1.0000
  C   C3269     1.0  0.83433  0.13936  0.33946  1.0000
  C   C3270     1.0  0.82127  0.14637  0.34962  1.0000
  C   C3271     1.0  0.80682  0.14224  0.35244  1.0000
  C   C3272     1.0  0.80523  0.13169  0.34454  1.0000
  H   H5522     1.0  0.84271  0.12382  0.32330  1.0000
  H   H5523     1.0  0.84567  0.14211  0.33766  1.0000
  H   H5524     1.0  0.79685  0.14710  0.36078  1.0000
  H   H5525     1.0  0.79403  0.12858  0.34684  1.0000
  C   C3273     1.0  0.83407  0.17941  0.24462  1.0000
  C   C3274     1.0  0.83728  0.19431  0.23769  1.0000
  C   C3275     1.0  0.83751  0.20059  0.22169  1.0000
  C   C3276     1.0  0.83458  0.19194  0.21261  1.0000
  C   C3277     1.0  0.83114  0.17712  0.21962  1.0000
  C   C3278     1.0  0.83094  0.17081  0.23563  1.0000
  H   H5526     1.0  0.83979  0.20092  0.24465  1.0000
  H   H5527     1.0  0.83976  0.21218  0.21644  1.0000
  H   H5528     1.0  0.82879  0.17044  0.21262  1.0000
  H   H5529     1.0  0.82835  0.15932  0.24097  1.0000
  C   C3279     1.0  0.83413  0.22825  0.13315  1.0000
  H   H5530     1.0  0.85966  0.17104  0.39204  1.0000
  Fe  Fe473     1.0  0.87985  0.22810  0.17082  1.0000
  H   H5531     1.0  0.97123  0.20159  0.15264  1.0000
  H   H5532     1.0  0.78792  0.10459  0.25429  1.0000
  H   H5533     1.0  0.82414  0.18230  0.43007  1.0000
  S   S947      1.0  0.78005  0.21512  0.39850  1.0000
  H   H5534     1.0  0.77509  0.07385  0.26879  1.0000
  H   H5535     1.0  0.74808  0.17573  0.34833  1.0000
  C   C3280     1.0  0.92039  0.13188  0.27788  1.0000
  C   C3281     1.0  0.90398  0.13695  0.28190  1.0000
  C   C3282     1.0  0.89404  0.12912  0.27900  1.0000
  C   C3283     1.0  0.90042  0.11609  0.27207  1.0000
  C   C3284     1.0  0.91684  0.11108  0.26792  1.0000
  C   C3285     1.0  0.92682  0.11894  0.27082  1.0000
  H   H5536     1.0  0.89895  0.14690  0.28744  1.0000
  H   H5537     1.0  0.88146  0.13312  0.28223  1.0000
  H   H5538     1.0  0.92189  0.10102  0.26255  1.0000
  H   H5539     1.0  0.93945  0.11493  0.26768  1.0000
  H   H5540     1.0  0.97256  0.23206  0.39659  1.0000
  S   S948      1.0  0.90551  0.21723  0.17093  1.0000
  N   N233      1.0  0.76923  0.09723  0.27348  1.0000
  H   H5541     1.0  0.83860  0.21439  0.28168  1.0000
  H   H5542     1.0  0.86150  0.14825  0.38331  1.0000
  H   H5543     1.0  0.79538  0.11028  0.27308  1.0000
  H   H5544     1.0  0.85305  0.15757  0.41830  1.0000
  H   H5545     1.0  0.78733  0.22513  0.99296  1.0000
  C   C3286     1.0  0.75734  0.16469  0.98734  1.0000
  S   S949      1.0  0.80313  0.21743  0.11531  1.0000
  H   H5546     1.0  0.97119  0.22006  0.21956  1.0000
  C   C3287     1.0  0.84030  0.16296  0.41918  1.0000
  H   H5547     1.0  0.74167  0.02181  0.18282  1.0000
  H   H5548     1.0  0.96869  0.17836  0.23520  1.0000
  H   H5549     1.0  0.85432  0.13071  0.39198  1.0000
  C   C3288     1.0  0.80662  0.16801  0.41578  1.0000
  C   C3289     1.0  0.77194  0.13886  0.32622  1.0000
  H   H5550     1.0  0.74986  0.08983  0.26992  1.0000
  S   S950      1.0  0.85589  0.22748  0.47596  1.0000
  S   S951      1.0  0.74417  0.16612  0.38237  1.0000
  H   H5551     1.0  0.80332  0.20818  0.17443  1.0000
  H   H5552     1.0  0.97441  0.20591  0.28837  1.0000
  H   H5553     1.0  0.81421  0.15071  0.04699  1.0000
  H   H5554     1.0  0.76300  0.11502  0.36142  1.0000
  C   C3290     1.0  0.78342  0.15816  0.04616  1.0000
  H   H5555     1.0  0.74166  0.11593  0.31325  1.0000
  H   H5556     1.0  0.80110  0.23182  0.15570  1.0000
  C   C3291     1.0  0.98088  0.18873  0.43358  1.0000
  C   C3292     1.0  0.92429  0.22692  0.44056  1.0000
  H   H5557     1.0  0.77835  0.08702  0.24386  1.0000
  C   C3293     1.0  0.96450  0.20884  0.14358  1.0000
  C   C3294     1.0  0.81344  0.18640  0.00723  1.0000
  H   H5558     1.0  0.97628  0.19459  0.22368  1.0000
  H   H5559     1.0  0.79100  0.99446  0.21028  1.0000
  H   H5560     1.0  0.76738  0.22120  0.14995  1.0000
  H   H5561     1.0  0.78490  0.20482  0.17420  1.0000
  H   H5562     1.0  0.91389  0.18987  0.24738  1.0000
  S   S952      1.0  0.97388  0.11702  0.26152  1.0000
  H   H5563     1.0  0.83571  0.19079  0.37216  1.0000
  N   N234      1.0  0.82487  0.18952  0.30388  1.0000
  C   C3295     1.0  0.81748  0.17564  0.30677  1.0000
  C   C3296     1.0  0.84243  0.18395  0.29877  1.0000
  C   C3297     1.0  0.81884  0.20189  0.29061  1.0000
  C   C3298     1.0  0.82016  0.19569  0.31880  1.0000
  C   C3299     1.0  0.79941  0.17937  0.30919  1.0000
  C   C3300     1.0  0.84994  0.16923  0.30979  1.0000
  C   C3301     1.0  0.82558  0.21683  0.28500  1.0000
  C   C3302     1.0  0.83172  0.20382  0.32168  1.0000
  H   H5564     1.0  0.82237  0.16936  0.29692  1.0000
  H   H5565     1.0  0.82034  0.16675  0.31741  1.0000
  H   H5566     1.0  0.84883  0.19323  0.29731  1.0000
  H   H5567     1.0  0.84545  0.18114  0.28692  1.0000
  H   H5568     1.0  0.82101  0.19677  0.28015  1.0000
  H   H5569     1.0  0.80586  0.20617  0.29392  1.0000
  H   H5570     1.0  0.80858  0.20415  0.31937  1.0000
  H   H5571     1.0  0.81823  0.18612  0.32942  1.0000
  H   H5572     1.0  0.79360  0.18776  0.31698  1.0000
  H   H5573     1.0  0.79579  0.18416  0.29774  1.0000
  H   H5574     1.0  0.79507  0.16835  0.31468  1.0000
  H   H5575     1.0  0.84546  0.16981  0.32236  1.0000
  H   H5576     1.0  0.84774  0.15845  0.30803  1.0000
  H   H5577     1.0  0.86291  0.16800  0.30696  1.0000
  C   C3303     1.0  0.80749  0.23080  0.24125  1.0000
  H   H5578     1.0  0.94433  0.21540  0.12466  1.0000
  H   H5579     1.0  0.95837  0.22833  0.20601  1.0000
  H   H5580     1.0  0.84237  0.19523  0.32474  1.0000
  H   H5581     1.0  0.78810  0.22645  0.42133  1.0000
  H   H5582     1.0  0.80827  0.16519  0.42799  1.0000
  C   C3304     1.0  0.80916  0.18863  0.02429  1.0000
  H   H5583     1.0  0.82279  0.17579  0.00554  1.0000
  H   H5584     1.0  0.86115  0.13907  0.40387  1.0000
  H   H5585     1.0  0.84329  0.18632  0.41973  1.0000
  S   S953      1.0  0.97438  0.12749  0.29377  1.0000
  C   C3305     1.0  0.84544  0.18047  0.37435  1.0000
  H   H5586     1.0  0.76784  0.08891  0.36097  1.0000
  C   C3306     1.0  0.75264  0.12008  0.35586  1.0000
  C   C3307     1.0  0.94666  0.21630  0.22904  1.0000
  C   C3308     1.0  0.96652  0.19130  0.23348  1.0000
  H   H5587     1.0  0.95234  0.20689  0.14807  1.0000
  C   C3309     1.0  0.77816  0.08038  0.27589  1.0000
  H   H5588     1.0  0.96876  0.18510  0.40968  1.0000
  H   H5589     1.0  0.85664  0.18306  0.36645  1.0000
  N   N235      1.0  0.98686  0.19873  0.40339  1.0000
  H   H5590     1.0  0.95504  0.18034  0.19855  1.0000
  H   H5591     1.0  0.90174  0.23011  0.43498  1.0000
  Fe  Fe474     1.0  0.77498  0.03204  0.23523  1.0000
  H   H5592     1.0  0.98059  0.19228  0.44448  1.0000
  S   S954      1.0  0.98462  0.22730  0.17430  1.0000
  H   H5593     1.0  0.96875  0.18776  0.43429  1.0000
  C   C3310     1.0  0.75722  0.02634  0.19440  1.0000
  H   H5594     1.0  0.83998  0.22301  0.14286  1.0000
  C   C3311     1.0  0.99103  0.23338  0.24028  1.0000
  H   H5595     1.0  0.95217  0.22509  0.18214  1.0000
  H   H5596     1.0  0.96532  0.17264  0.21412  1.0000
  H   H5597     1.0  0.83414  0.15397  0.42773  1.0000
  H   H5598     1.0  0.76896  0.07600  0.34879  1.0000
  H   H5599     1.0  0.82203  0.18504  0.05326  1.0000
  H   H5600     1.0  0.84309  0.15235  0.03309  1.0000
  H   H5601     1.0  0.92975  0.23125  0.11651  1.0000
  C   C3312     1.0  0.81949  0.17589  0.40382  1.0000
  S   S955      1.0  0.76645  0.20323  0.00502  1.0000
  C   C3313     1.0  0.79979  0.17926  0.05290  1.0000
  C   C3314     1.0  0.97136  0.19649  0.40221  1.0000
  H   H5602     1.0  0.76022  0.09789  0.32797  1.0000
  C   C3315     1.0  0.78899  0.10461  0.28461  1.0000
  H   H5603     1.0  0.78698  0.06784  0.29728  1.0000
  C   C3316     1.0  0.83384  0.16150  0.03839  1.0000
  C   C3317     1.0  0.74322  0.12683  0.33148  1.0000
  C   C3318     1.0  0.77502  0.10551  0.25681  1.0000
  C   C3319     1.0  0.77593  0.07065  0.29302  1.0000
  S   S956      1.0  0.76670  0.98545  0.27846  1.0000
  H   H5604     1.0  0.76452  0.14543  0.31760  1.0000
  H   H5605     1.0  0.76988  0.11835  0.25496  1.0000
  H   H5606     1.0  0.82105  0.22430  0.29381  1.0000
  H   H5607     1.0  0.76179  0.00821  0.23150  1.0000
  S   S957      1.0  0.77514  0.03383  0.20994  1.0000
  C   C3320     1.0  0.79058  0.17137  0.03389  1.0000
  C   C3321     1.0  0.93794  0.23278  0.43713  1.0000
  H   H5608     1.0  0.79433  0.21943  0.14849  1.0000
  H   H5609     1.0  0.78976  0.98513  0.18752  1.0000
  H   H5610     1.0  0.80295  0.18619  0.00329  1.0000
  H   H5611     1.0  0.76635  0.11840  0.28151  1.0000
  H   H5612     1.0  0.75911  0.20619  0.03709  1.0000
  H   H5613     1.0  0.75958  0.20385  0.07594  1.0000
  H   H5614     1.0  0.94363  0.21857  0.24111  1.0000
  S   S958      1.0  0.75893  0.20625  0.36999  1.0000
  H   H5615     1.0  0.93686  0.20978  0.17573  1.0000
  H   H5616     1.0  0.76565  0.10142  0.29681  1.0000
  Fe  Fe475     1.0  0.98671  0.13632  0.24828  1.0000
  H   H5617     1.0  0.75799  0.15585  0.99841  1.0000
  C   C3322     1.0  0.74550  0.00441  0.22034  1.0000
  H   H5618     1.0  0.77122  0.99101  0.19965  1.0000
  H   H5619     1.0  0.97693  0.22567  0.28197  1.0000
  H   H5620     1.0  0.75165  0.14069  0.98117  1.0000
  N   N236      1.0  0.87203  0.06864  0.24888  1.0000
  C   C3323     1.0  0.86222  0.06385  0.24065  1.0000
  C   C3324     1.0  0.86703  0.08625  0.24692  1.0000
  C   C3325     1.0  0.86813  0.06101  0.26613  1.0000
  C   C3326     1.0  0.88922  0.06315  0.24174  1.0000
  C   C3327     1.0  0.86343  0.04606  0.24318  1.0000
  C   C3328     1.0  0.86842  0.09575  0.22980  1.0000
  C   C3329     1.0  0.87659  0.06449  0.27695  1.0000
  C   C3330     1.0  0.90090  0.07203  0.24330  1.0000
  H   H5621     1.0  0.84955  0.06925  0.24424  1.0000
  H   H5622     1.0  0.86535  0.06830  0.22769  1.0000
  H   H5623     1.0  0.87361  0.09092  0.25256  1.0000
  H   H5624     1.0  0.85454  0.08960  0.25308  1.0000
  H   H5625     1.0  0.85523  0.06435  0.27096  1.0000
  H   H5626     1.0  0.87106  0.04800  0.26795  1.0000
  H   H5627     1.0  0.89333  0.05044  0.24670  1.0000
  H   H5628     1.0  0.89087  0.06423  0.22886  1.0000
  H   H5629     1.0  0.87580  0.03936  0.24122  1.0000
  H   H5630     1.0  0.85683  0.04128  0.25507  1.0000
  H   H5631     1.0  0.85775  0.04407  0.23469  1.0000
  H   H5632     1.0  0.85874  0.09518  0.22480  1.0000
  H   H5633     1.0  0.86716  0.10832  0.22963  1.0000
  H   H5634     1.0  0.87993  0.09182  0.22215  1.0000
  H   H5635     1.0  0.87488  0.07718  0.27632  1.0000
  H   H5636     1.0  0.88932  0.05891  0.27463  1.0000
  H   H5637     1.0  0.87162  0.05923  0.28935  1.0000
  H   H5638     1.0  0.91228  0.06361  0.24442  1.0000
  H   H5639     1.0  0.89726  0.07754  0.25355  1.0000
  H   H5640     1.0  0.90369  0.08100  0.23240  1.0000
  H   H5641     1.0  0.79089  0.07994  0.27145  1.0000
  H   H5642     1.0  0.83432  0.15956  0.05091  1.0000
  H   H5643     1.0  0.76158  0.22134  0.17037  1.0000
  H   H5644     1.0  0.97855  0.21267  0.42146  1.0000
  H   H5645     1.0  0.83143  0.14336  0.40863  1.0000
  C   C3331     1.0  0.81286  0.22668  0.41358  1.0000
  H   H5646     1.0  0.80635  0.20189  0.04909  1.0000
  H   H5647     1.0  0.76210  0.17447  0.98803  1.0000
  H   H5648     1.0  0.79133  0.14645  0.04583  1.0000
  Fe  Fe476     1.0  0.77983  0.20180  0.38081  1.0000
  Fe  Fe477     1.0  0.75636  0.22769  0.09221  1.0000
  H   H5649     1.0  0.79504  0.17635  0.41557  1.0000
  H   H5650     1.0  0.74577  0.09675  0.34559  1.0000
  S   S959      1.0  0.79737  0.20263  0.35788  1.0000
  S   S960      1.0  0.75385  0.02601  0.25329  1.0000
  C   C3332     1.0  0.77241  0.21482  0.01405  1.0000
  H   H5651     1.0  0.75036  0.06630  0.21470  1.0000
  Fe  Fe478     1.0  0.75565  0.04454  0.26409  1.0000
  C   C3333     1.0  0.95667  0.20952  0.40583  1.0000
  H   H5652     1.0  0.80584  0.15732  0.41262  1.0000
  C   C3334     1.0  0.92180  0.19639  0.23770  1.0000
  H   H5653     1.0  0.94610  0.20431  0.41060  1.0000
  H   H5654     1.0  0.81652  0.17849  0.39209  1.0000
  H   H5655     1.0  0.97445  0.21543  0.26843  1.0000
  C   C3335     1.0  0.80917  0.18961  0.05589  1.0000
  H   H5656     1.0  0.81914  0.19237  0.02594  1.0000
  N   N237      1.0  0.88778  0.16527  0.22884  1.0000
  C   C3336     1.0  0.88253  0.17716  0.23910  1.0000
  C   C3337     1.0  0.89495  0.17314  0.21243  1.0000
  C   C3338     1.0  0.89980  0.15134  0.23491  1.0000
  C   C3339     1.0  0.87362  0.15957  0.22896  1.0000
  C   C3340     1.0  0.87795  0.17064  0.25701  1.0000
  C   C3341     1.0  0.88324  0.18517  0.20307  1.0000
  C   C3342     1.0  0.91489  0.15511  0.23632  1.0000
  C   C3343     1.0  0.87654  0.14740  0.21887  1.0000
  H   H5657     1.0  0.89177  0.18385  0.23717  1.0000
  H   H5658     1.0  0.87211  0.18618  0.23585  1.0000
  H   H5659     1.0  0.90188  0.16439  0.20520  1.0000
  H   H5660     1.0  0.90370  0.17954  0.21273  1.0000
  H   H5661     1.0  0.89454  0.14463  0.24657  1.0000
  H   H5662     1.0  0.90373  0.14278  0.22712  1.0000
  H   H5663     1.0  0.86838  0.15393  0.24108  1.0000
  H   H5664     1.0  0.86389  0.16947  0.22562  1.0000
  H   H5665     1.0  0.88832  0.16364  0.26189  1.0000
  H   H5666     1.0  0.87280  0.18063  0.26301  1.0000
  H   H5667     1.0  0.86899  0.16347  0.26025  1.0000
  H   H5668     1.0  0.87581  0.19430  0.20956  1.0000
  H   H5669     1.0  0.88990  0.19126  0.19187  1.0000
  H   H5670     1.0  0.87559  0.17945  0.19982  1.0000
  H   H5671     1.0  0.91245  0.16317  0.24434  1.0000
  H   H5672     1.0  0.92175  0.15998  0.22466  1.0000
  H   H5673     1.0  0.92255  0.14403  0.24137  1.0000
  H   H5674     1.0  0.87990  0.13527  0.22576  1.0000
  H   H5675     1.0  0.88569  0.14920  0.20797  1.0000
  H   H5676     1.0  0.86559  0.14857  0.21494  1.0000
  H   H5677     1.0  0.81807  0.18751  0.40642  1.0000
  S   S961      1.0  0.78266  0.17556  0.38662  1.0000
  H   H5678     1.0  0.94427  0.17465  0.21815  1.0000
  C   C3344     1.0  0.78421  0.23046  0.02966  1.0000
  C   C3345     1.0  0.79096  0.21413  0.17360  1.0000
  H   H5679     1.0  0.76599  0.99177  0.17602  1.0000
  H   H5680     1.0  0.96178  0.20193  0.20434  1.0000
  H   H5681     1.0  0.98057  0.18789  0.25060  1.0000
  H   H5682     1.0  0.75770  0.12601  0.30743  1.0000
  H   H5683     1.0  0.95936  0.22881  0.15326  1.0000
  H   H5684     1.0  0.83532  0.21319  0.31164  1.0000
  C   C3346     1.0  0.75198  0.09735  0.27664  1.0000
  H   H5685     1.0  0.80561  0.19019  0.06851  1.0000
  H   H5686     1.0  0.76101  0.18365  0.06170  1.0000
  H   H5687     1.0  0.96869  0.20721  0.24700  1.0000
  C   C3347     1.0  0.91564  0.22787  0.17674  1.0000
  C   C3348     1.0  0.95422  0.18017  0.21106  1.0000
  H   H5688     1.0  0.76923  0.22029  0.05073  1.0000
  H   H5689     1.0  0.77680  0.11632  0.32007  1.0000
  H   H5690     1.0  0.79938  0.19907  0.02502  1.0000
  C   C3349     1.0  0.93846  0.19126  0.24116  1.0000
  S   S962      1.0  0.95240  0.22370  0.44829  1.0000
  H   H5691     1.0  0.78193  0.08929  0.34230  1.0000
  H   H5692     1.0  0.76818  0.14427  0.33662  1.0000
  H   H5693     1.0  0.81939  0.15535  0.02648  1.0000
  H   H5694     1.0  0.93714  0.19364  0.25291  1.0000
  C   C3350     1.0  0.75003  0.19790  0.07888  1.0000
  H   H5695     1.0  0.78014  0.16012  0.05830  1.0000
  H   H5696     1.0  0.98935  0.21210  0.37925  1.0000
  N   N238      1.0  0.95084  0.19901  0.22914  1.0000
  C   C3351     1.0  0.78911  0.23197  0.01331  1.0000
  H   H5697     1.0  0.78925  0.11108  0.29328  1.0000
  C   C3352     1.0  0.97988  0.21434  0.27831  1.0000
  C   C3353     1.0  0.76345  0.22912  0.15845  1.0000
  C   C3354     1.0  0.77303  0.22150  0.03813  1.0000
  H   H5698     1.0  0.96003  0.19081  0.25902  1.0000
  H   H5699     1.0  0.97197  0.19536  0.39013  1.0000
  N   N239      1.0  0.83615  0.16664  0.40333  1.0000
  S   S963      1.0  0.86938  0.22912  0.43156  1.0000
  H   H5700     1.0  0.79348  0.16783  0.02244  1.0000
  H   H5701     1.0  0.78415  0.14034  0.32048  1.0000
  H   H5702     1.0  0.82590  0.20939  0.33190  1.0000
  H   H5703     1.0  0.81797  0.19669  0.99928  1.0000
  Fe  Fe479     1.0  0.77695  0.20475  0.34752  1.0000
  H   H5704     1.0  0.74550  0.05760  0.32083  1.0000
  H   H5705     1.0  0.95487  0.21864  0.39504  1.0000
  H   H5706     1.0  0.84099  0.17286  0.43824  1.0000
  Fe  Fe480     1.0  0.76344  0.17995  0.37354  1.0000
  S   S964      1.0  0.77547  0.05220  0.24485  1.0000
  H   H5707     1.0  0.80011  0.16857  0.06258  1.0000
  Fe  Fe481     1.0  0.98758  0.14555  0.27778  1.0000
  Fe  Fe482     1.0  0.78713  0.22972  0.09833  1.0000
  C   C3355     1.0  0.83776  0.15138  0.39881  1.0000
  N   N240      1.0  0.80468  0.17489  0.03701  1.0000
  C   C3356     1.0  0.96883  0.19466  0.24840  1.0000
  H   H5708     1.0  0.83189  0.15324  0.38893  1.0000
  C   C3357     1.0  0.96487  0.22615  0.14153  1.0000
  S   S965      1.0  0.86212  0.22734  0.19371  1.0000
  C   C3358     1.0  0.76251  0.02301  0.20832  1.0000
  H   H5709     1.0  0.92278  0.21671  0.44993  1.0000
  S   S966      1.0  0.77531  0.21993  0.32371  1.0000
  H   H5710     1.0  0.94206  0.17822  0.24291  1.0000
  C   C3359     1.0  0.98636  0.20135  0.41928  1.0000
  C   C3360     1.0  0.79104  0.22626  0.15784  1.0000
  C   C3361     1.0  0.82657  0.22345  0.40215  1.0000
  H   H5711     1.0  0.98910  0.17712  0.43373  1.0000
  H   H5712     1.0  0.81455  0.22068  0.24824  1.0000
  C   C3362     1.0  0.77172  0.10565  0.28450  1.0000
  H   H5713     1.0  0.98855  0.23177  0.22956  1.0000
  C   C3363     1.0  0.95182  0.19716  0.21285  1.0000
  C   C3364     1.0  0.81643  0.22713  0.11772  1.0000
  H   H5714     1.0  0.74516  0.13472  0.00618  1.0000
  H   H5715     1.0  0.78736  0.18602  0.05486  1.0000
  H   H5716     1.0  0.77368  0.05913  0.29329  1.0000
  H   H5717     1.0  0.92150  0.19361  0.22663  1.0000
  H   H5718     1.0  0.97023  0.20432  0.13273  1.0000
  H   H5719     1.0  0.92537  0.22114  0.13636  1.0000
  C   C3365     1.0  0.79862  0.22412  0.41234  1.0000
  H   H5720     1.0  0.78551  0.21949  0.18396  1.0000
  Fe  Fe483     1.0  0.99036  0.11157  0.27792  1.0000
  H   H5721     1.0  0.74821  0.04854  0.29662  1.0000
  H   H5722     1.0  0.82141  0.22402  0.27426  1.0000
  H   H5723     1.0  0.75014  0.13291  0.35535  1.0000
  H   H5724     1.0  0.93569  0.22208  0.22460  1.0000
  H   H5725     1.0  0.74772  0.09202  0.28915  1.0000
  H   H5726     1.0  0.79917  0.22609  0.23784  1.0000
  C   C3366     1.0  0.74548  0.12623  0.31413  1.0000
  H   H5727     1.0  0.89338  0.22983  0.46868  1.0000
  C   C3367     1.0  0.93494  0.22572  0.12703  1.0000
  H   H5728     1.0  0.96584  0.22283  0.11213  1.0000
  H   H5729     1.0  0.97743  0.22675  0.13933  1.0000
  H   H5730     1.0  0.99042  0.23054  0.40271  1.0000
  H   H5731     1.0  0.81329  0.23085  0.42352  1.0000
  C   C3368     1.0  0.74589  0.01892  0.19353  1.0000
  H   H5732     1.0  0.74353  0.11971  0.26078  1.0000
  H   H5733     1.0  0.74265  0.06817  0.23440  1.0000
  H   H5734     1.0  0.74281  0.05893  0.19507  1.0000
  C   C3369     1.0  0.89741  0.22836  0.47959  1.0000
  H   H5735     1.0  0.74929  0.16082  0.93080  1.0000
  Fe  Fe484     1.0  0.98002  0.15015  0.78910  1.0000
  S   S967      1.0  0.96135  0.16533  0.77654  1.0000
  C   C3370     1.0  0.83465  0.21907  0.90206  1.0000
  Fe  Fe485     1.0  0.95642  0.14269  0.77579  1.0000
  S   S968      1.0  0.93070  0.14227  0.78348  1.0000
  Fe  Fe486     1.0  0.97954  0.16254  0.75456  1.0000
  S   S969      1.0  0.97392  0.12747  0.79009  1.0000
  Fe  Fe487     1.0  0.84408  0.14429  0.74719  1.0000
  S   S970      1.0  0.82763  0.13866  0.77038  1.0000
  S   S971      1.0  0.83492  0.16519  0.72961  1.0000
  Fe  Fe488     1.0  0.87149  0.11985  0.75800  1.0000
  S   S972      1.0  0.85710  0.11196  0.78203  1.0000
  S   S973      1.0  0.89760  0.11010  0.75174  1.0000
  Fe  Fe489     1.0  0.83859  0.11359  0.76909  1.0000
  S   S974      1.0  0.82210  0.09688  0.77756  1.0000
  Fe  Fe490     1.0  0.84753  0.13767  0.78098  1.0000
  S   S975      1.0  0.84251  0.14859  0.80180  1.0000
  S   S976      1.0  0.85383  0.11918  0.74498  1.0000
  S   S977      1.0  0.86311  0.14552  0.75778  1.0000
  H   H5736     1.0  0.82743  0.13082  0.70022  1.0000
  H   H5737     1.0  0.84193  0.20785  0.65288  1.0000
  C   C3371     1.0  0.83361  0.21296  0.56778  1.0000
  H   H5738     1.0  0.76385  0.01259  0.79811  1.0000
  S   S978      1.0  0.80878  0.06096  0.73332  1.0000
  C   C3372     1.0  0.80357  0.22169  0.54979  1.0000
  H   H5739     1.0  0.79464  0.12196  0.67918  1.0000
  C   C3373     1.0  0.83164  0.23136  0.66804  1.0000
  Fe  Fe491     1.0  0.75688  0.05559  0.72798  1.0000
  H   H5740     1.0  0.82868  0.20520  0.78156  1.0000
  H   H5741     1.0  0.84231  0.17336  0.77221  1.0000
  H   H5742     1.0  0.80710  0.20111  0.88952  1.0000
  H   H5743     1.0  0.93889  0.16752  0.75607  1.0000
  H   H5744     1.0  0.78290  0.20382  0.57272  1.0000
  C   C3374     1.0  0.86462  0.18907  0.74867  1.0000
  C   C3375     1.0  0.83878  0.20377  0.77139  1.0000
  H   H5745     1.0  0.75250  0.05964  0.88190  1.0000
  Fe  Fe492     1.0  0.76797  0.19672  0.95174  1.0000
  H   H5746     1.0  0.81939  0.98413  0.69098  1.0000
  H   H5747     1.0  0.76155  0.01091  0.73445  1.0000
  H   H5748     1.0  0.81081  0.21093  0.76486  1.0000
  S   S979      1.0  0.76526  0.00344  0.76653  1.0000
  H   H5749     1.0  0.91957  0.20191  0.75227  1.0000
  C   C3376     1.0  0.78768  0.13902  0.74096  1.0000
  H   H5750     1.0  0.88708  0.22923  0.48951  1.0000
  C   C3377     1.0  0.83187  0.18097  0.76774  1.0000
  H   H5751     1.0  0.82291  0.21941  0.74755  1.0000
  Fe  Fe493     1.0  0.77089  0.20913  0.97846  1.0000
  C   C3378     1.0  0.93565  0.21114  0.80807  1.0000
  H   H5752     1.0  0.77119  0.21101  0.58972  1.0000
  H   H5753     1.0  0.79252  0.11459  0.70826  1.0000
  S   S980      1.0  0.74628  0.20126  0.66925  1.0000
  H   H5754     1.0  0.98827  0.17523  0.82849  1.0000
  C   C3379     1.0  0.80822  0.19838  0.62624  1.0000
  H   H5755     1.0  0.96498  0.22022  0.79687  1.0000
  H   H5756     1.0  0.95350  0.22471  0.49250  1.0000
  S   S981      1.0  0.76408  0.07296  0.73643  1.0000
  H   H5757     1.0  0.79083  0.20048  0.59001  1.0000
  C   C3380     1.0  0.82782  0.21084  0.88188  1.0000
  H   H5758     1.0  0.96444  0.20545  0.75841  1.0000
  C   C3381     1.0  0.81870  0.08711  0.76493  1.0000
  C   C3382     1.0  0.82836  0.08654  0.75000  1.0000
  C   C3383     1.0  0.82547  0.07819  0.74047  1.0000
  C   C3384     1.0  0.81264  0.07081  0.74565  1.0000
  C   C3385     1.0  0.80290  0.07159  0.76049  1.0000
  C   C3386     1.0  0.80603  0.07956  0.77015  1.0000
  H   H5759     1.0  0.83797  0.09258  0.74580  1.0000
  H   H5760     1.0  0.83296  0.07774  0.72893  1.0000
  H   H5761     1.0  0.79299  0.06597  0.76459  1.0000
  H   H5762     1.0  0.79852  0.07996  0.78169  1.0000
  C   C3387     1.0  0.82573  0.16036  0.71747  1.0000
  C   C3388     1.0  0.83084  0.14573  0.71332  1.0000
  C   C3389     1.0  0.82335  0.14207  0.70357  1.0000
  C   C3390     1.0  0.81050  0.15286  0.69831  1.0000
  C   C3391     1.0  0.80534  0.16742  0.70257  1.0000
  C   C3392     1.0  0.81306  0.17124  0.71199  1.0000
  H   H5763     1.0  0.84075  0.13738  0.71734  1.0000
  S   S982      1.0  0.74312  0.04582  0.75163  1.0000
  H   H5764     1.0  0.79522  0.17562  0.69885  1.0000
  H   H5765     1.0  0.80897  0.18247  0.71536  1.0000
  C   C3393     1.0  0.85455  0.16141  0.80020  1.0000
  C   C3394     1.0  0.86848  0.16160  0.78869  1.0000
  C   C3395     1.0  0.87759  0.17242  0.78706  1.0000
  H   H5766     1.0  0.74950  0.03950  0.82211  1.0000
  C   C3396     1.0  0.85906  0.18267  0.80871  1.0000
  C   C3397     1.0  0.84992  0.17187  0.81030  1.0000
  H   H5767     1.0  0.87237  0.15327  0.78121  1.0000
  H   H5768     1.0  0.79906  0.21837  0.65118  1.0000
  H   H5769     1.0  0.85539  0.19073  0.81653  1.0000
  H   H5770     1.0  0.83920  0.17169  0.81931  1.0000
  H   H5771     1.0  0.95958  0.21071  0.91582  1.0000
  H   H5772     1.0  0.92775  0.20422  0.80705  1.0000
  N   N241      1.0  0.95926  0.22592  0.52224  1.0000
  N   N242      1.0  0.75874  0.11332  0.68019  1.0000
  C   C3398     1.0  0.92235  0.13192  0.77529  1.0000
  C   C3399     1.0  0.93120  0.12375  0.76354  1.0000
  C   C3400     1.0  0.92370  0.11654  0.75663  1.0000
  C   C3401     1.0  0.90737  0.11765  0.76137  1.0000
  C   C3402     1.0  0.89870  0.12544  0.77341  1.0000
  C   C3403     1.0  0.90616  0.13254  0.78034  1.0000
  H   H5773     1.0  0.94374  0.12312  0.75968  1.0000
  H   H5774     1.0  0.93048  0.11047  0.74735  1.0000
  H   H5775     1.0  0.88619  0.12608  0.77740  1.0000
  H   H5776     1.0  0.89931  0.13869  0.78954  1.0000
  C   C3404     1.0  0.79465  0.23171  0.71148  1.0000
  S   S983      1.0  0.98198  0.18374  0.73494  1.0000
  H   H5777     1.0  0.79739  0.12864  0.76239  1.0000
  H   H5778     1.0  0.80181  0.20405  0.91691  1.0000
  C   C3405     1.0  0.74846  0.99568  0.80943  1.0000
  H   H5779     1.0  0.84608  0.18836  0.73856  1.0000
  H   H5780     1.0  0.94702  0.19730  0.88328  1.0000
  C   C3406     1.0  0.76778  0.10348  0.75468  1.0000
  C   C3407     1.0  0.93472  0.21569  0.85072  1.0000
  H   H5781     1.0  0.95514  0.22306  0.85129  1.0000
  H   H5782     1.0  0.95536  0.20531  0.82027  1.0000
  C   C3408     1.0  0.82311  0.20018  0.67090  1.0000
  C   C3409     1.0  0.74309  0.21282  0.89547  1.0000
  C   C3410     1.0  0.94325  0.22686  0.84955  1.0000
  H   H5783     1.0  0.92780  0.21943  0.81545  1.0000
  H   H5784     1.0  0.80224  0.22855  0.67394  1.0000
  H   H5785     1.0  0.76919  0.22862  0.76834  1.0000
  H   H5786     1.0  0.95437  0.18967  0.81197  1.0000
  C   C3411     1.0  0.76042  0.98920  0.72985  1.0000
  C   C3412     1.0  0.77617  0.09090  0.66597  1.0000
  S   S984      1.0  0.78806  0.19336  0.96316  1.0000
  C   C3413     1.0  0.79748  0.21794  0.70603  1.0000
  H   H5787     1.0  0.81315  0.21054  0.58577  1.0000
  H   H5788     1.0  0.96531  0.20155  0.53470  1.0000
  C   C3414     1.0  0.92434  0.19015  0.75896  1.0000
  S   S985      1.0  0.98710  0.22537  0.83735  1.0000
  H   H5789     1.0  0.80029  0.99686  0.69225  1.0000
  Fe  Fe494     1.0  0.76042  0.19886  0.68698  1.0000
  H   H5790     1.0  0.74924  0.13863  0.74599  1.0000
  C   C3415     1.0  0.87282  0.18302  0.79698  1.0000
  H   H5791     1.0  0.98771  0.22429  0.87639  1.0000
  H   H5792     1.0  0.74753  0.04677  0.86290  1.0000
  C   C3416     1.0  0.79887  0.22511  0.61311  1.0000
  H   H5793     1.0  0.95061  0.22378  0.75838  1.0000
  H   H5794     1.0  0.75119  0.99230  0.79796  1.0000
  C   C3417     1.0  0.75574  0.12353  0.66459  1.0000
  H   H5795     1.0  0.77144  0.08433  0.66029  1.0000
  C   C3418     1.0  0.78734  0.11735  0.67427  1.0000
  H   H5796     1.0  0.94823  0.20623  0.52742  1.0000
  H   H5797     1.0  0.84834  0.19530  0.77682  1.0000
  C   C3419     1.0  0.82131  0.21489  0.91299  1.0000
  H   H5798     1.0  0.76027  0.00801  0.81938  1.0000
  S   S986      1.0  0.78383  0.19307  0.67077  1.0000
  C   C3420     1.0  0.98199  0.22264  0.88915  1.0000
  C   C3421     1.0  0.81767  0.18005  0.78184  1.0000
  H   H5799     1.0  0.76798  0.08925  0.69095  1.0000
  H   H5800     1.0  0.95124  0.17552  0.70961  1.0000
  H   H5801     1.0  0.80280  0.10614  0.73962  1.0000
  H   H5802     1.0  0.75056  0.11237  0.71466  1.0000
  N   N243      1.0  0.87887  0.06742  0.76457  1.0000
  C   C3422     1.0  0.88665  0.07214  0.77481  1.0000
  C   C3423     1.0  0.86130  0.07217  0.77044  1.0000
  C   C3424     1.0  0.88341  0.07670  0.74803  1.0000
  C   C3425     1.0  0.88457  0.04997  0.76540  1.0000
  C   C3426     1.0  0.90484  0.06860  0.77076  1.0000
  C   C3427     1.0  0.85490  0.06506  0.78786  1.0000
  C   C3428     1.0  0.87674  0.07397  0.73536  1.0000
  C   C3429     1.0  0.87378  0.04153  0.76162  1.0000
  H   H5803     1.0  0.88249  0.08494  0.77463  1.0000
  H   H5804     1.0  0.88339  0.06607  0.78733  1.0000
  H   H5805     1.0  0.85460  0.06926  0.76352  1.0000
  H   H5806     1.0  0.85754  0.08518  0.76883  1.0000
  H   H5807     1.0  0.87987  0.08952  0.74782  1.0000
  H   H5808     1.0  0.89638  0.07417  0.74362  1.0000
  H   H5809     1.0  0.89639  0.04750  0.75747  1.0000
  H   H5810     1.0  0.88619  0.04383  0.77751  1.0000
  H   H5811     1.0  0.90961  0.07608  0.75946  1.0000
  H   H5812     1.0  0.90894  0.07150  0.77989  1.0000
  H   H5813     1.0  0.91009  0.05605  0.77067  1.0000
  H   H5814     1.0  0.86021  0.05243  0.79135  1.0000
  H   H5815     1.0  0.85669  0.07161  0.79570  1.0000
  H   H5816     1.0  0.84198  0.06626  0.78991  1.0000
  H   H5817     1.0  0.86374  0.07617  0.73817  1.0000
  H   H5818     1.0  0.88198  0.06206  0.73297  1.0000
  H   H5819     1.0  0.88008  0.08241  0.72417  1.0000
  H   H5820     1.0  0.88127  0.03175  0.75598  1.0000
  H   H5821     1.0  0.86613  0.04887  0.75352  1.0000
  H   H5822     1.0  0.86649  0.03586  0.77262  1.0000
  N   N244      1.0  0.92588  0.17556  0.73750  1.0000
  C   C3430     1.0  0.93426  0.17871  0.74822  1.0000
  C   C3431     1.0  0.93667  0.16233  0.73008  1.0000
  C   C3432     1.0  0.91087  0.17068  0.74749  1.0000
  C   C3433     1.0  0.92239  0.19052  0.72541  1.0000
  H   H5823     1.0  0.94398  0.20069  0.78160  1.0000
  C   C3434     1.0  0.95266  0.16553  0.71978  1.0000
  C   C3435     1.0  0.90427  0.15977  0.74178  1.0000
  C   C3436     1.0  0.91533  0.18959  0.71217  1.0000
  C   C3437     1.0  0.99054  0.18365  0.78908  1.0000
  C   C3438     1.0  0.98056  0.22183  0.53791  1.0000
  H   H5824     1.0  0.93106  0.15888  0.72249  1.0000
  H   H5825     1.0  0.93920  0.15158  0.73940  1.0000
  H   H5826     1.0  0.91262  0.16404  0.75944  1.0000
  H   H5827     1.0  0.90128  0.18116  0.74943  1.0000
  H   H5828     1.0  0.91395  0.19991  0.73105  1.0000
  H   H5829     1.0  0.93328  0.19512  0.71971  1.0000
  H   H5830     1.0  0.81016  0.20277  0.67488  1.0000
  H   H5831     1.0  0.93727  0.23205  0.51444  1.0000
  H   H5832     1.0  0.78743  0.12456  0.66222  1.0000
  C   C3439     1.0  0.97029  0.22194  0.50735  1.0000
  H   H5833     1.0  0.95930  0.15501  0.71492  1.0000
  C   C3440     1.0  0.74380  0.05657  0.80148  1.0000
  H   H5834     1.0  0.89278  0.15817  0.74974  1.0000
  H   H5835     1.0  0.91206  0.14791  0.74253  1.0000
  H   H5836     1.0  0.90232  0.16422  0.72971  1.0000
  H   H5837     1.0  0.92273  0.18053  0.70557  1.0000
  H   H5838     1.0  0.91453  0.20103  0.70356  1.0000
  H   H5839     1.0  0.90318  0.18770  0.71669  1.0000
  H   H5840     1.0  0.83823  0.21488  0.55493  1.0000
  C   C3441     1.0  0.95477  0.21115  0.53295  1.0000
  S   S987      1.0  0.76936  0.16803  0.66107  1.0000
  H   H5841     1.0  0.86857  0.19727  0.75307  1.0000
  N   N245      1.0  0.83472  0.19719  0.75980  1.0000
  H   H5842     1.0  0.82506  0.20963  0.64594  1.0000
  S   S988      1.0  0.88910  0.22656  0.81396  1.0000
  S   S989      1.0  0.81630  0.21934  0.93180  1.0000
  H   H5843     1.0  0.95987  0.20464  0.50284  1.0000
  C   C3442     1.0  0.94397  0.21297  0.54918  1.0000
  C   C3443     1.0  0.78516  0.21345  0.70297  1.0000
  H   H5844     1.0  0.84098  0.20192  0.57326  1.0000
  C   C3444     1.0  0.80264  0.23137  0.83232  1.0000
  Fe  Fe495     1.0  0.85279  0.21526  0.84538  1.0000
  N   N246      1.0  0.78251  0.12553  0.73858  1.0000
  S   S990      1.0  0.97284  0.14138  0.75240  1.0000
  H   H5845     1.0  0.79347  0.10501  0.67408  1.0000
  H   H5846     1.0  0.91462  0.18538  0.76780  1.0000
  Fe  Fe496     1.0  0.74696  0.17537  0.67825  1.0000
  Fe  Fe497     1.0  0.87549  0.20921  0.81453  1.0000
  C   C3445     1.0  0.85566  0.23090  0.50516  1.0000
  C   C3446     1.0  0.84793  0.19588  0.74546  1.0000
  Fe  Fe498     1.0  0.76987  0.19382  0.65360  1.0000
  H   H5847     1.0  0.77314  0.99414  0.80827  1.0000
  H   H5848     1.0  0.77271  0.11154  0.69674  1.0000
  C   C3447     1.0  0.96344  0.21593  0.49687  1.0000
  N   N247      1.0  0.82405  0.22890  0.65630  1.0000
  H   H5849     1.0  0.78048  0.10052  0.65675  1.0000
  S   S991      1.0  0.75035  0.21037  0.96852  1.0000
  H   H5850     1.0  0.76631  0.12494  0.76130  1.0000
  C   C3448     1.0  0.76150  0.99861  0.73930  1.0000
  S   S992      1.0  0.76326  0.17741  0.94393  1.0000
  H   H5851     1.0  0.79161  0.14674  0.72941  1.0000
  H   H5852     1.0  0.81961  0.18329  0.79199  1.0000
  H   H5853     1.0  0.74522  0.99350  0.84148  1.0000
  H   H5854     1.0  0.96934  0.20943  0.87415  1.0000
  H   H5855     1.0  0.93888  0.21763  0.88232  1.0000
  H   H5856     1.0  0.94472  0.18367  0.74139  1.0000
  H   H5857     1.0  0.76668  0.12410  0.65546  1.0000
  H   H5858     1.0  0.94012  0.20331  0.85331  1.0000
  H   H5859     1.0  0.94621  0.20178  0.55794  1.0000
  N   N248      1.0  0.92239  0.15532  0.83013  1.0000
  C   C3449     1.0  0.93460  0.14383  0.83856  1.0000
  C   C3450     1.0  0.91430  0.16779  0.83956  1.0000
  C   C3451     1.0  0.93099  0.16287  0.81428  1.0000
  C   C3452     1.0  0.91120  0.14654  0.82837  1.0000
  C   C3453     1.0  0.94582  0.13126  0.82975  1.0000
  C   C3454     1.0  0.90719  0.16172  0.85706  1.0000
  C   C3455     1.0  0.92080  0.17523  0.80364  1.0000
  C   C3456     1.0  0.89420  0.15580  0.82757  1.0000
  H   H5860     1.0  0.94212  0.15017  0.84133  1.0000
  H   H5861     1.0  0.92889  0.13727  0.85007  1.0000
  H   H5862     1.0  0.90474  0.17634  0.83442  1.0000
  H   H5863     1.0  0.92264  0.17495  0.83923  1.0000
  H   H5864     1.0  0.93994  0.16842  0.81568  1.0000
  H   H5865     1.0  0.97276  0.21370  0.48629  1.0000
  H   H5866     1.0  0.91603  0.14157  0.81761  1.0000
  H   H5867     1.0  0.90996  0.13613  0.83823  1.0000
  H   H5868     1.0  0.95197  0.12176  0.83811  1.0000
  H   H5869     1.0  0.93954  0.12583  0.82447  1.0000
  H   H5870     1.0  0.95512  0.13632  0.82051  1.0000
  H   H5871     1.0  0.90079  0.15236  0.85883  1.0000
  H   H5872     1.0  0.91648  0.15728  0.86401  1.0000
  H   H5873     1.0  0.89875  0.17163  0.86191  1.0000
  H   H5874     1.0  0.74778  0.09482  0.71077  1.0000
  H   H5875     1.0  0.91280  0.18468  0.80936  1.0000
  H   H5876     1.0  0.91408  0.16965  0.79900  1.0000
  H   H5877     1.0  0.88727  0.15826  0.83913  1.0000
  H   H5878     1.0  0.88805  0.14861  0.82418  1.0000
  H   H5879     1.0  0.89362  0.16698  0.81877  1.0000
  H   H5880     1.0  0.74921  0.10677  0.65503  1.0000
  H   H5881     1.0  0.84811  0.20743  0.73707  1.0000
  H   H5882     1.0  0.93135  0.21610  0.54857  1.0000
  H   H5883     1.0  0.78654  0.08264  0.67012  1.0000
  C   C3457     1.0  0.77537  0.11674  0.75454  1.0000
  H   H5884     1.0  0.80440  0.14541  0.74989  1.0000
  S   S993      1.0  0.85190  0.22506  0.81996  1.0000
  H   H5885     1.0  0.94065  0.19408  0.82920  1.0000
  H   H5886     1.0  0.82858  0.19980  0.68057  1.0000
  H   H5887     1.0  0.78519  0.09967  0.72441  1.0000
  C   C3458     1.0  0.74535  0.18261  0.93792  1.0000
  H   H5888     1.0  0.90450  0.21618  0.48203  1.0000
  C   C3459     1.0  0.94633  0.20726  0.88853  1.0000
  C   C3460     1.0  0.95706  0.22292  0.90873  1.0000
  H   H5889     1.0  0.92864  0.18092  0.79325  1.0000
  C   C3461     1.0  0.91932  0.22049  0.84832  1.0000
  H   H5890     1.0  0.80920  0.19083  0.75049  1.0000
  C   C3462     1.0  0.82383  0.20017  0.61994  1.0000
  C   C3463     1.0  0.80110  0.13448  0.74991  1.0000
  C   C3464     1.0  0.81165  0.20806  0.90846  1.0000
  H   H5891     1.0  0.86247  0.21895  0.50677  1.0000
  H   H5892     1.0  0.91743  0.21287  0.78631  1.0000
  C   C3465     1.0  0.94737  0.19949  0.81769  1.0000
  H   H5893     1.0  0.75310  0.09148  0.68091  1.0000
  H   H5894     1.0  0.84533  0.22401  0.75206  1.0000
  H   H5895     1.0  0.75001  0.20055  0.89594  1.0000
  N   N249      1.0  0.96464  0.22328  0.89158  1.0000
  C   C3466     1.0  0.82025  0.20795  0.75461  1.0000
  C   C3467     1.0  0.81624  0.21159  0.57280  1.0000
  S   S994      1.0  0.80042  0.14777  0.68715  1.0000
  H   H5896     1.0  0.81628  0.16769  0.78593  1.0000
  H   H5897     1.0  0.80219  0.22790  0.84518  1.0000
  H   H5898     1.0  0.83420  0.22907  0.77030  1.0000
  C   C3468     1.0  0.82889  0.21174  0.65567  1.0000
  S   S995      1.0  0.83074  0.20929  0.86226  1.0000
  S   S996      1.0  0.98198  0.15748  0.81003  1.0000
  C   C3469     1.0  0.75577  0.14390  0.73433  1.0000
  C   C3470     1.0  0.79570  0.21075  0.62258  1.0000
  H   H5899     1.0  0.96016  0.16745  0.72658  1.0000
  S   S997      1.0  0.77920  0.03735  0.73012  1.0000
  H   H5900     1.0  0.83043  0.17494  0.75925  1.0000
  Fe  Fe499     1.0  0.79228  0.21580  0.94609  1.0000
  H   H5901     1.0  0.97567  0.21355  0.54848  1.0000
  H   H5902     1.0  0.93769  0.15395  0.80720  1.0000
  H   H5903     1.0  0.77655  0.13873  0.71642  1.0000
  H   H5904     1.0  0.75787  0.10775  0.74856  1.0000
  S   S998      1.0  0.77383  0.04382  0.76558  1.0000
  Fe  Fe500     1.0  0.99101  0.12798  0.76671  1.0000
  H   H5905     1.0  0.82692  0.22505  0.68012  1.0000
  Fe  Fe501     1.0  0.78133  0.16806  0.67970  1.0000
  H   H5906     1.0  0.88841  0.17242  0.77827  1.0000
  H   H5907     1.0  0.80262  0.21075  0.74135  1.0000
  H   H5908     1.0  0.80588  0.12184  0.72339  1.0000
  H   H5909     1.0  0.78744  0.20285  0.69874  1.0000
  C   C3471     1.0  0.95164  0.20821  0.78193  1.0000
  C   C3472     1.0  0.79469  0.10625  0.71936  1.0000
  S   S999      1.0  0.77345  0.21786  0.93363  1.0000
  H   H5910     1.0  0.78770  0.22942  0.58644  1.0000
  H   H5911     1.0  0.93208  0.19193  0.76559  1.0000
  H   H5912     1.0  0.80926  0.21075  0.70411  1.0000
  C   C3473     1.0  0.81479  0.20620  0.89294  1.0000
  C   C3474     1.0  0.82701  0.21441  0.61017  1.0000
  Fe  Fe502     1.0  0.78521  0.05401  0.74085  1.0000
  Fe  Fe503     1.0  0.88714  0.21588  0.83963  1.0000
  H   H5913     1.0  0.87302  0.18713  0.73750  1.0000
  C   C3475     1.0  0.76275  0.99204  0.75488  1.0000
  H   H5914     1.0  0.77776  0.14662  0.74763  1.0000
  C   C3476     1.0  0.81318  0.20189  0.74435  1.0000
  C   C3477     1.0  0.96314  0.20926  0.88667  1.0000
  S   S1000     1.0  0.84676  0.21605  0.60220  1.0000
  H   H5915     1.0  0.80576  0.09760  0.71617  1.0000
  C   C3478     1.0  0.77081  0.13239  0.72809  1.0000
  H   H5916     1.0  0.82658  0.18812  0.66863  1.0000
  H   H5917     1.0  0.81194  0.12698  0.74431  1.0000
  H   H5918     1.0  0.75053  0.22062  0.88704  1.0000
  C   C3479     1.0  0.79691  0.11501  0.73070  1.0000
  S   S1001     1.0  0.87501  0.19737  0.83977  1.0000
  H   H5919     1.0  0.76284  0.09813  0.76707  1.0000
  H   H5920     1.0  0.75834  0.15505  0.73472  1.0000
  Fe  Fe504     1.0  0.76586  0.02876  0.75457  1.0000
  S   S1002     1.0  0.90926  0.20629  0.84899  1.0000
  H   H5921     1.0  0.83347  0.19043  0.62253  1.0000
  H   H5922     1.0  0.80589  0.18728  0.63357  1.0000
  H   H5923     1.0  0.75470  0.05236  0.79380  1.0000
  S   S1003     1.0  0.88420  0.19663  0.79460  1.0000
  H   H5924     1.0  0.80644  0.18718  0.77876  1.0000
  H   H5925     1.0  0.84814  0.22041  0.87821  1.0000
  H   H5926     1.0  0.86540  0.17761  0.75712  1.0000
  S   S1004     1.0  0.75911  0.17369  0.69741  1.0000
  H   H5927     1.0  0.78441  0.11119  0.76177  1.0000
  H   H5928     1.0  0.94047  0.20416  0.90110  1.0000
  H   H5929     1.0  0.82155  0.20028  0.73309  1.0000
  C   C3480     1.0  0.98809  0.17536  0.80474  1.0000
  C   C3481     1.0  0.76990  0.22263  0.70545  1.0000
  H   H5930     1.0  0.98639  0.22874  0.54205  1.0000
  H   H5931     1.0  0.96901  0.22052  0.76432  1.0000
  H   H5932     1.0  0.85452  0.21940  0.76834  1.0000
  H   H5933     1.0  0.77659  0.09394  0.74973  1.0000
  Fe  Fe505     1.0  0.75219  0.06171  0.76032  1.0000
  C   C3482     1.0  0.76356  0.09603  0.68017  1.0000
  Fe  Fe506     1.0  0.75737  0.23149  0.95124  1.0000
  H   H5934     1.0  0.74774  0.14711  0.72609  1.0000
  S   S1005     1.0  0.77612  0.20830  0.62895  1.0000
  H   H5935     1.0  0.76675  0.12307  0.72556  1.0000
  S   S1006     1.0  0.75429  0.21736  0.70145  1.0000
  H   H5936     1.0  0.94616  0.22191  0.55402  1.0000
  H   H5937     1.0  0.93375  0.22136  0.92355  1.0000
  C   C3483     1.0  0.78329  0.20904  0.58227  1.0000
  H   H5938     1.0  0.81587  0.20002  0.57107  1.0000
  C   C3484     1.0  0.78842  0.22493  0.57595  1.0000
  H   H5939     1.0  0.81436  0.22605  0.52475  1.0000
  H   H5940     1.0  0.76529  0.15976  0.97728  1.0000
  H   H5941     1.0  0.96892  0.19811  0.89366  1.0000
  C   C3485     1.0  0.99005  0.18164  0.81638  1.0000
  H   H5942     1.0  0.84451  0.22619  0.66566  1.0000
  C   C3486     1.0  0.84343  0.21992  0.76499  1.0000
  H   H5943     1.0  0.96141  0.19991  0.78699  1.0000
  H   H5944     1.0  0.75449  0.03282  0.87899  1.0000
  H   H5945     1.0  0.96242  0.22986  0.91343  1.0000
  C   C3487     1.0  0.77076  0.11860  0.68504  1.0000
  S   S1007     1.0  0.77669  0.23146  0.96239  1.0000
  H   H5946     1.0  0.83530  0.22247  0.57224  1.0000
  C   C3488     1.0  0.81447  0.22697  0.60702  1.0000
  C   C3489     1.0  0.76201  0.00322  0.80888  1.0000
  H   H5947     1.0  0.98087  0.21284  0.51003  1.0000
  H   H5948     1.0  0.80151  0.20973  0.55163  1.0000
  S   S1008     1.0  0.74742  0.06448  0.70587  1.0000
  H   H5949     1.0  0.81505  0.22991  0.82587  1.0000
  H   H5950     1.0  0.84237  0.22409  0.90553  1.0000
  C   C3490     1.0  0.83791  0.21705  0.88654  1.0000
  H   H5951     1.0  0.75968  0.99434  0.71771  1.0000
  N   N250      1.0  0.94287  0.21987  0.79211  1.0000
  N   N251      1.0  0.80447  0.22467  0.56506  1.0000
  H   H5952     1.0  0.98979  0.21522  0.52977  1.0000
  H   H5953     1.0  0.82676  0.21134  0.53667  1.0000
  H   H5954     1.0  0.97497  0.23229  0.49983  1.0000
  C   C3491     1.0  0.95921  0.21515  0.76483  1.0000
  C   C3492     1.0  0.81809  0.22274  0.53614  1.0000
  H   H5955     1.0  0.79311  0.22952  0.54539  1.0000
  H   H5956     1.0  0.98635  0.20407  0.91029  1.0000
  C   C3493     1.0  0.95428  0.22854  0.79347  1.0000
  H   H5957     1.0  0.85302  0.22419  0.63277  1.0000
  C   C3494     1.0  0.74438  0.04229  0.87580  1.0000
  H   H5958     1.0  0.93261  0.23056  0.90378  1.0000
  H   H5959     1.0  0.98898  0.17894  0.78002  1.0000
  C   C3495     1.0  0.91913  0.22465  0.77942  1.0000
  H   H5960     1.0  0.74337  0.07833  0.86118  1.0000
  C   C3496     1.0  0.93903  0.22937  0.91292  1.0000
  C   C3497     1.0  0.92986  0.23162  0.78507  1.0000
  H   H5961     1.0  0.98379  0.23239  0.89320  1.0000
  H   H5962     1.0  0.92335  0.22455  0.76671  1.0000
  H   H5963     1.0  0.90724  0.23254  0.78038  1.0000
  H   H5964     1.0  0.74639  0.15288  0.96387  1.0000
  H   H5965     1.0  0.94438  0.23319  0.81728  1.0000
  H   H5966     1.0  0.79805  0.22281  0.82909  1.0000
  S   S1009     1.0  0.86478  0.23307  0.84719  1.0000
  H   H5967     1.0  0.76638  0.13108  0.68626  1.0000
  H   H5968     1.0  0.80023  0.98424  0.71867  1.0000
  H   H5969     1.0  0.82392  0.23210  0.53561  1.0000
  C   C3498     1.0  0.96758  0.23321  0.52978  1.0000
  C   C3499     1.0  0.79657  0.23088  0.65165  1.0000
  C   C3500     1.0  0.74361  0.10768  0.70941  1.0000
  C   C3501     1.0  0.80663  0.98434  0.69405  1.0000
  C   C3502     1.0  0.74463  0.11873  0.65740  1.0000
  C   C3503     1.0  0.74148  0.05517  0.88503  1.0000
  H   H5970     1.0  0.74171  0.17968  0.97303  1.0000
  C   C3504     1.0  0.74344  0.11623  0.69216  1.0000
  H   H5971     1.0  0.75077  0.13599  0.66566  1.0000
  H   H5972     1.0  0.74940  0.98433  0.81821  1.0000
  H   H5973     1.0  0.74351  0.12697  0.64594  1.0000
  H   H5974     1.0  0.74176  0.12611  0.96905  1.0000
  H   H5975     1.0  0.85552  0.23340  0.52824  1.0000
  H   H5976     1.0  0.77903  0.23314  0.57012  1.0000
  H   H5977     1.0  0.74696  0.23363  0.86213  1.0000
  Fe  Fe507     1.0  0.87076  0.46039  0.42334  1.0000
  H   H5978     1.0  0.83808  0.25916  0.47806  1.0000
  S   S1010     1.0  0.87128  0.43569  0.42167  1.0000
  S   S1011     1.0  0.98118  0.41848  0.37502  1.0000
  H   H5979     1.0  0.80018  0.29480  0.35485  1.0000
  H   H5980     1.0  0.74854  0.36827  0.17617  1.0000
  S   S1012     1.0  0.88817  0.46315  0.43542  1.0000
  H   H5981     1.0  0.95125  0.39180  0.25698  1.0000
  H   H5982     1.0  0.77903  0.26456  0.17606  1.0000
  S   S1013     1.0  0.98361  0.26525  0.16007  1.0000
  H   H5983     1.0  0.79004  0.26523  0.12307  1.0000
  H   H5984     1.0  0.92776  0.30753  0.36842  1.0000
  S   S1014     1.0  0.83927  0.27270  0.19283  1.0000
  S   S1015     1.0  0.86946  0.25303  0.16019  1.0000
  Fe  Fe508     1.0  0.81793  0.28584  0.27432  1.0000
  S   S1016     1.0  0.82949  0.26311  0.26641  1.0000
  H   H5985     1.0  0.74417  0.36983  0.19618  1.0000
  H   H5986     1.0  0.74439  0.27816  0.12476  1.0000
  H   H5987     1.0  0.98209  0.29827  0.46541  1.0000
  H   H5988     1.0  0.74806  0.33868  0.06641  1.0000
  C   C3505     1.0  0.79836  0.28643  0.34895  1.0000
  H   H5989     1.0  0.81893  0.29398  0.17146  1.0000
  C   C3506     1.0  0.82645  0.37610  0.24713  1.0000
  C   C3507     1.0  0.75750  0.29110  0.13108  1.0000
  Fe  Fe509     1.0  0.88182  0.38006  0.34101  1.0000
  S   S1017     1.0  0.87813  0.38244  0.36580  1.0000
  S   S1018     1.0  0.90573  0.38257  0.32590  1.0000
  Fe  Fe510     1.0  0.84903  0.37397  0.34615  1.0000
  S   S1019     1.0  0.84277  0.37633  0.37149  1.0000
  S   S1020     1.0  0.83021  0.36854  0.33727  1.0000
  Fe  Fe511     1.0  0.85453  0.39703  0.36264  1.0000
  S   S1021     1.0  0.84747  0.42121  0.36850  1.0000
  Fe  Fe512     1.0  0.86708  0.36163  0.37228  1.0000
  S   S1022     1.0  0.87543  0.34063  0.39045  1.0000
  S   S1023     1.0  0.85873  0.39600  0.33720  1.0000
  S   S1024     1.0  0.87268  0.35802  0.34765  1.0000
  Fe  Fe513     1.0  0.84193  0.27026  0.42843  1.0000
  S   S1025     1.0  0.82827  0.29527  0.42380  1.0000
  H   H5990     1.0  0.75223  0.28828  0.14348  1.0000
  S   S1026     1.0  0.97736  0.38895  0.35299  1.0000
  C   C3508     1.0  0.75678  0.31384  0.22457  1.0000
  S   S1027     1.0  0.83503  0.24294  0.17251  1.0000
  S   S1028     1.0  0.78885  0.33303  0.24281  1.0000
  C   C3509     1.0  0.84189  0.34851  0.25392  1.0000
  Fe  Fe514     1.0  0.96954  0.36879  0.37150  1.0000
  S   S1029     1.0  0.94648  0.36155  0.37721  1.0000
  H   H5991     1.0  0.95438  0.40076  0.27074  1.0000
  S   S1030     1.0  0.96812  0.29315  0.43957  1.0000
  H   H5992     1.0  0.81315  0.26192  0.36738  1.0000
  C   C3510     1.0  0.76860  0.30055  0.12562  1.0000
  C   C3511     1.0  0.77761  0.24839  0.14015  1.0000
  C   C3512     1.0  0.98029  0.30604  0.42793  1.0000
  C   C3513     1.0  0.97477  0.32222  0.42693  1.0000
  C   C3514     1.0  0.80619  0.25000  0.34549  1.0000
  H   H5993     1.0  0.77757  0.24856  0.39079  1.0000
  C   C3515     1.0  0.82882  0.24941  0.11097  1.0000
  H   H5994     1.0  0.96300  0.32670  0.43309  1.0000
  H   H5995     1.0  0.78486  0.26866  0.14245  1.0000
  C   C3516     1.0  0.91838  0.37563  0.33902  1.0000
  C   C3517     1.0  0.93153  0.38198  0.33657  1.0000
  C   C3518     1.0  0.94082  0.37713  0.34788  1.0000
  C   C3519     1.0  0.93657  0.36639  0.36186  1.0000
  C   C3520     1.0  0.92346  0.36009  0.36420  1.0000
  C   C3521     1.0  0.91466  0.36437  0.35265  1.0000
  H   H5996     1.0  0.93412  0.39107  0.32629  1.0000
  H   H5997     1.0  0.95078  0.38223  0.34612  1.0000
  H   H5998     1.0  0.91981  0.35218  0.37510  1.0000
  H   H5999     1.0  0.90466  0.35924  0.35453  1.0000
  C   C3522     1.0  0.86205  0.32846  0.40037  1.0000
  C   C3523     1.0  0.84577  0.33447  0.40313  1.0000
  C   C3524     1.0  0.83538  0.32434  0.41089  1.0000
  C   C3525     1.0  0.84124  0.30817  0.41561  1.0000
  C   C3526     1.0  0.85752  0.30224  0.41275  1.0000
  C   C3527     1.0  0.86787  0.31237  0.40537  1.0000
  H   H6000     1.0  0.84119  0.34692  0.39941  1.0000
  H   H6001     1.0  0.82280  0.32900  0.41305  1.0000
  H   H6002     1.0  0.86221  0.28979  0.41597  1.0000
  H   H6003     1.0  0.88041  0.30760  0.40319  1.0000
  C   C3528     1.0  0.83594  0.33482  0.30526  1.0000
  C   C3529     1.0  0.82100  0.34241  0.31221  1.0000
  C   C3530     1.0  0.81950  0.35288  0.32177  1.0000
  C   C3531     1.0  0.83286  0.35583  0.32453  1.0000
  C   C3532     1.0  0.84779  0.34822  0.31758  1.0000
  C   C3533     1.0  0.84930  0.33783  0.30794  1.0000
  H   H6004     1.0  0.81061  0.34019  0.31028  1.0000
  H   H6005     1.0  0.80789  0.35867  0.32716  1.0000
  H   H6006     1.0  0.85817  0.35037  0.31961  1.0000
  S   S1031     1.0  0.82389  0.30926  0.26248  1.0000
  H   H6007     1.0  0.76918  0.24490  0.25366  1.0000
  H   H6008     1.0  0.78130  0.25322  0.27857  1.0000
  H   H6009     1.0  0.78833  0.28888  0.16722  1.0000
  C   C3534     1.0  0.83788  0.27003  0.21309  1.0000
  C   C3535     1.0  0.84285  0.25522  0.22229  1.0000
  C   C3536     1.0  0.84048  0.25318  0.23866  1.0000
  C   C3537     1.0  0.83306  0.26593  0.24587  1.0000
  C   C3538     1.0  0.82806  0.28073  0.23667  1.0000
  C   C3539     1.0  0.83060  0.28280  0.22031  1.0000
  H   H6010     1.0  0.74507  0.35831  0.08012  1.0000
  H   H6011     1.0  0.77654  0.28031  0.25001  1.0000
  H   H6012     1.0  0.82205  0.29056  0.24214  1.0000
  H   H6013     1.0  0.82656  0.29425  0.21329  1.0000
  C   C3540     1.0  0.77056  0.24799  0.16882  1.0000
  H   H6014     1.0  0.91168  0.26312  0.18551  1.0000
  Fe  Fe515     1.0  0.87566  0.25256  0.42103  1.0000
  H   H6015     1.0  0.79218  0.29380  0.18324  1.0000
  C   C3541     1.0  0.83649  0.38010  0.23037  1.0000
  C   C3542     1.0  0.77361  0.27129  0.32079  1.0000
  H   H6016     1.0  0.77812  0.24475  0.23399  1.0000
  H   H6017     1.0  0.81269  0.24697  0.09855  1.0000
  C   C3543     1.0  0.85265  0.35325  0.26157  1.0000
  H   H6018     1.0  0.79371  0.28952  0.22821  1.0000
  H   H6019     1.0  0.76682  0.31271  0.25862  1.0000
  C   C3544     1.0  0.81974  0.33128  0.37733  1.0000
  H   H6020     1.0  0.84438  0.29799  0.33051  1.0000
  H   H6021     1.0  0.91841  0.23704  0.46888  1.0000
  H   H6022     1.0  0.77945  0.28524  0.22022  1.0000
  S   S1032     1.0  0.97159  0.24974  0.46142  1.0000
  H   H6023     1.0  0.84120  0.46209  0.41530  1.0000
  H   H6024     1.0  0.76625  0.25637  0.13828  1.0000
  N   N252      1.0  0.78825  0.25750  0.24418  1.0000
  H   H6025     1.0  0.74674  0.35113  0.19119  1.0000
  C   C3545     1.0  0.95175  0.25945  0.14496  1.0000
  H   H6026     1.0  0.80969  0.46911  0.36429  1.0000
  S   S1033     1.0  0.89958  0.25788  0.40951  1.0000
  H   H6027     1.0  0.87382  0.30528  0.37159  1.0000
  H   H6028     1.0  0.88791  0.25470  0.45765  1.0000
  C   C3546     1.0  0.79907  0.24306  0.25149  1.0000
  C   C3547     1.0  0.86560  0.43165  0.40627  1.0000
  C   C3548     1.0  0.86311  0.44316  0.39278  1.0000
  C   C3549     1.0  0.85794  0.43971  0.38105  1.0000
  C   C3550     1.0  0.85559  0.42464  0.38256  1.0000
  C   C3551     1.0  0.85885  0.41293  0.39568  1.0000
  C   C3552     1.0  0.86373  0.41646  0.40753  1.0000
  H   H6029     1.0  0.86504  0.45472  0.39149  1.0000
  H   H6030     1.0  0.85570  0.44873  0.37078  1.0000
  H   H6031     1.0  0.85703  0.40129  0.39698  1.0000
  H   H6032     1.0  0.86576  0.40744  0.41788  1.0000
  C   C3553     1.0  0.92654  0.26596  0.46204  1.0000
  H   H6033     1.0  0.90964  0.38744  0.37749  1.0000
  C   C3554     1.0  0.74695  0.23902  0.15647  1.0000
  H   H6034     1.0  0.87736  0.31131  0.35024  1.0000
  C   C3555     1.0  0.80226  0.26005  0.37622  1.0000
  H   H6035     1.0  0.81588  0.23545  0.23061  1.0000
  C   C3556     1.0  0.75312  0.28526  0.12050  1.0000
  H   H6036     1.0  0.77710  0.28697  0.36665  1.0000
  H   H6037     1.0  0.93923  0.25875  0.14956  1.0000
  C   C3557     1.0  0.89020  0.27855  0.45117  1.0000
  H   H6038     1.0  0.95315  0.26328  0.12042  1.0000
  C   C3558     1.0  0.91719  0.25145  0.18343  1.0000
  C   C3559     1.0  0.75701  0.31002  0.24061  1.0000
  H   H6039     1.0  0.83212  0.44593  0.42510  1.0000
  H   H6040     1.0  0.76324  0.33482  0.09172  1.0000
  H   H6041     1.0  0.75919  0.35058  0.10141  1.0000
  H   H6042     1.0  0.93368  0.27320  0.46392  1.0000
  Fe  Fe516     1.0  0.75188  0.31066  0.15895  1.0000
  C   C3560     1.0  0.77485  0.23950  0.32306  1.0000
  S   S1034     1.0  0.81622  0.28887  0.29851  1.0000
  C   C3561     1.0  0.76084  0.26561  0.23687  1.0000
  H   H6043     1.0  0.75089  0.32235  0.08208  1.0000
  H   H6044     1.0  0.76296  0.26865  0.22382  1.0000
  H   H6045     1.0  0.82901  0.31347  0.33669  1.0000
  Fe  Fe517     1.0  0.81982  0.31331  0.28692  1.0000
  H   H6046     1.0  0.83280  0.35595  0.22169  1.0000
  H   H6047     1.0  0.79117  0.30824  0.16543  1.0000
  C   C3562     1.0  0.90640  0.41530  0.35603  1.0000
  C   C3563     1.0  0.81694  0.35769  0.27089  1.0000
  H   H6048     1.0  0.81151  0.34370  0.25324  1.0000
  S   S1035     1.0  0.77278  0.29121  0.31926  1.0000
  C   C3564     1.0  0.76299  0.26353  0.33265  1.0000
  C   C3565     1.0  0.95875  0.39033  0.26536  1.0000
  N   N253      1.0  0.78850  0.26239  0.36887  1.0000
  H   H6049     1.0  0.78465  0.31060  0.10541  1.0000
  H   H6050     1.0  0.80976  0.26302  0.22875  1.0000
  H   H6051     1.0  0.74944  0.30263  0.24883  1.0000
  C   C3566     1.0  0.75385  0.34189  0.09932  1.0000
  H   H6052     1.0  0.81581  0.27664  0.16930  1.0000
  H   H6053     1.0  0.82851  0.28562  0.39281  1.0000
  C   C3567     1.0  0.76695  0.31564  0.24620  1.0000
  H   H6054     1.0  0.84029  0.27486  0.14970  1.0000
  Fe  Fe518     1.0  0.97054  0.25011  0.18066  1.0000
  Fe  Fe519     1.0  0.76382  0.25938  0.08787  1.0000
  H   H6055     1.0  0.76200  0.25899  0.16507  1.0000
  H   H6056     1.0  0.90742  0.25695  0.44927  1.0000
  H   H6057     1.0  0.80127  0.25288  0.13691  1.0000
  H   H6058     1.0  0.95866  0.25282  0.15400  1.0000
  H   H6059     1.0  0.80762  0.33801  0.37647  1.0000
  H   H6060     1.0  0.82040  0.29648  0.37656  1.0000
  H   H6061     1.0  0.75414  0.26989  0.34077  1.0000
  H   H6062     1.0  0.84244  0.28836  0.13136  1.0000
  H   H6063     1.0  0.89101  0.42258  0.37680  1.0000
  H   H6064     1.0  0.84082  0.33624  0.25993  1.0000
  H   H6065     1.0  0.98122  0.31064  0.47852  1.0000
  C   C3568     1.0  0.93306  0.24522  0.18403  1.0000
  Fe  Fe520     1.0  0.85474  0.24254  0.15127  1.0000
  H   H6066     1.0  0.98759  0.34648  0.27344  1.0000
  N   N254      1.0  0.94588  0.44166  0.43209  1.0000
  C   C3569     1.0  0.95019  0.44265  0.44671  1.0000
  C   C3570     1.0  0.92822  0.44385  0.43568  1.0000
  C   C3571     1.0  0.95073  0.45510  0.41919  1.0000
  C   C3572     1.0  0.95455  0.42608  0.42786  1.0000
  C   C3573     1.0  0.96770  0.44202  0.44535  1.0000
  C   C3574     1.0  0.92128  0.43178  0.44972  1.0000
  C   C3575     1.0  0.94634  0.45748  0.40333  1.0000
  C   C3576     1.0  0.94756  0.41988  0.41755  1.0000
  H   H6067     1.0  0.94331  0.45369  0.45066  1.0000
  H   H6068     1.0  0.94719  0.43284  0.45668  1.0000
  H   H6069     1.0  0.92382  0.44368  0.42551  1.0000
  H   H6070     1.0  0.92248  0.45572  0.43818  1.0000
  H   H6071     1.0  0.94572  0.46629  0.42324  1.0000
  H   H6072     1.0  0.96367  0.45389  0.41637  1.0000
  H   H6073     1.0  0.96697  0.42649  0.42177  1.0000
  H   H6074     1.0  0.95528  0.41674  0.43876  1.0000
  H   H6075     1.0  0.97562  0.43170  0.44094  1.0000
  H   H6076     1.0  0.97122  0.45296  0.43788  1.0000
  H   H6077     1.0  0.76106  0.24783  0.37384  1.0000
  Fe  Fe521     1.0  0.97194  0.23639  0.44387  1.0000
  H   H6078     1.0  0.80419  0.26053  0.33591  1.0000
  H   H6079     1.0  0.89807  0.28621  0.45056  1.0000
  H   H6080     1.0  0.94985  0.46831  0.39547  1.0000
  H   H6081     1.0  0.93352  0.45937  0.40433  1.0000
  H   H6082     1.0  0.95294  0.44775  0.39731  1.0000
  H   H6083     1.0  0.95738  0.41411  0.40912  1.0000
  H   H6084     1.0  0.93981  0.42884  0.41042  1.0000
  H   H6085     1.0  0.94124  0.41054  0.42487  1.0000
  H   H6086     1.0  0.77704  0.27889  0.35096  1.0000
  C   C3577     1.0  0.84378  0.30036  0.37636  1.0000
  N   N255      1.0  0.96793  0.37052  0.28933  1.0000
  C   C3578     1.0  0.98843  0.42338  0.38886  1.0000
  C   C3579     1.0  0.96413  0.38334  0.29830  1.0000
  C   C3580     1.0  0.95732  0.37502  0.27786  1.0000
  C   C3581     1.0  0.96540  0.35511  0.30023  1.0000
  H   H6087     1.0  0.75019  0.33431  0.11095  1.0000
  H   H6088     1.0  0.90509  0.27920  0.47422  1.0000
  C   C3582     1.0  0.78542  0.24726  0.31122  1.0000
  H   H6089     1.0  0.93324  0.24977  0.12690  1.0000
  H   H6090     1.0  0.74669  0.24436  0.14393  1.0000
  C   C3583     1.0  0.94898  0.35536  0.31146  1.0000
  H   H6091     1.0  0.98817  0.38008  0.27493  1.0000
  C   C3584     1.0  0.82607  0.34764  0.23033  1.0000
  S   S1036     1.0  0.78967  0.25098  0.07881  1.0000
  H   H6092     1.0  0.94473  0.37659  0.28409  1.0000
  H   H6093     1.0  0.96734  0.34597  0.29344  1.0000
  C   C3585     1.0  0.91436  0.24764  0.41992  1.0000
  C   C3586     1.0  0.98503  0.36853  0.28093  1.0000
  H   H6094     1.0  0.82217  0.46486  0.42885  1.0000
  H   H6095     1.0  0.74959  0.25925  0.38782  1.0000
  C   C3587     1.0  0.75957  0.25901  0.37742  1.0000
  H   H6096     1.0  0.84246  0.47204  0.38303  1.0000
  H   H6097     1.0  0.82899  0.45273  0.39859  1.0000
  H   H6098     1.0  0.90131  0.40508  0.35736  1.0000
  H   H6099     1.0  0.92784  0.41955  0.44945  1.0000
  H   H6100     1.0  0.96765  0.39417  0.29040  1.0000
  S   S1037     1.0  0.79306  0.23883  0.03938  1.0000
  H   H6101     1.0  0.79407  0.24106  0.30285  1.0000
  C   C3588     1.0  0.82148  0.46118  0.40590  1.0000
  S   S1038     1.0  0.87465  0.48073  0.40306  1.0000
  H   H6102     1.0  0.76313  0.26042  0.27144  1.0000
  C   C3589     1.0  0.79183  0.28204  0.22133  1.0000
  H   H6103     1.0  0.90735  0.43136  0.36895  1.0000
  C   C3590     1.0  0.77662  0.32544  0.23583  1.0000
  H   H6104     1.0  0.96388  0.25761  0.09652  1.0000
  H   H6105     1.0  0.79785  0.25789  0.21929  1.0000
  H   H6106     1.0  0.81027  0.45703  0.41119  1.0000
  C   C3591     1.0  0.77144  0.29772  0.09905  1.0000
  H   H6107     1.0  0.79439  0.27180  0.25610  1.0000
  H   H6108     1.0  0.98549  0.36399  0.25802  1.0000
  N   N256      1.0  0.92710  0.31225  0.39996  1.0000
  C   C3592     1.0  0.91560  0.31779  0.38921  1.0000
  C   C3593     1.0  0.91777  0.30801  0.41654  1.0000
  C   C3594     1.0  0.93879  0.29790  0.39538  1.0000
  C   C3595     1.0  0.93515  0.32547  0.39774  1.0000
  C   C3596     1.0  0.92278  0.31923  0.37142  1.0000
  C   C3597     1.0  0.90469  0.32141  0.42245  1.0000
  C   C3598     1.0  0.94809  0.28692  0.40765  1.0000
  C   C3599     1.0  0.94657  0.32323  0.40840  1.0000
  H   H6109     1.0  0.90728  0.30980  0.39237  1.0000
  H   H6110     1.0  0.90813  0.32955  0.39057  1.0000
  H   H6111     1.0  0.92536  0.30348  0.42523  1.0000
  H   H6112     1.0  0.91210  0.29817  0.41764  1.0000
  C   C3600     1.0  0.81730  0.46723  0.37268  1.0000
  H   H6113     1.0  0.94220  0.32802  0.38552  1.0000
  H   H6114     1.0  0.92650  0.33675  0.39870  1.0000
  H   H6115     1.0  0.93188  0.32634  0.36702  1.0000
  S   S1039     1.0  0.84813  0.25308  0.12776  1.0000
  H   H6116     1.0  0.91325  0.32520  0.36486  1.0000
  H   H6117     1.0  0.90938  0.33164  0.42199  1.0000
  H   H6118     1.0  0.89510  0.32522  0.41590  1.0000
  H   H6119     1.0  0.89921  0.31710  0.43495  1.0000
  H   H6120     1.0  0.95653  0.27740  0.40223  1.0000
  H   H6121     1.0  0.94034  0.28108  0.41810  1.0000
  H   H6122     1.0  0.95879  0.31802  0.40285  1.0000
  H   H6123     1.0  0.94328  0.31622  0.42039  1.0000
  H   H6124     1.0  0.94658  0.33490  0.41011  1.0000
  H   H6125     1.0  0.89634  0.24786  0.17896  1.0000
  H   H6126     1.0  0.98018  0.34514  0.41732  1.0000
  H   H6127     1.0  0.83205  0.29420  0.34964  1.0000
  H   H6128     1.0  0.75618  0.26918  0.36800  1.0000
  C   C3601     1.0  0.90564  0.39333  0.38761  1.0000
  H   H6129     1.0  0.79145  0.26642  0.39924  1.0000
  H   H6130     1.0  0.76644  0.32661  0.20170  1.0000
  S   S1040     1.0  0.85026  0.47467  0.43755  1.0000
  H   H6131     1.0  0.95227  0.27194  0.14308  1.0000
  H   H6132     1.0  0.90891  0.43247  0.44942  1.0000
  S   S1041     1.0  0.98548  0.25008  0.19669  1.0000
  H   H6133     1.0  0.84836  0.24530  0.21687  1.0000
  H   H6134     1.0  0.78360  0.33718  0.21166  1.0000
  H   H6135     1.0  0.84431  0.24170  0.24573  1.0000
  C   C3602     1.0  0.82968  0.45865  0.41951  1.0000
  H   H6136     1.0  0.79781  0.37908  0.26968  1.0000
  H   H6137     1.0  0.98948  0.23738  0.38260  1.0000
  H   H6138     1.0  0.96861  0.36953  0.32158  1.0000
  H   H6139     1.0  0.97983  0.23456  0.24908  1.0000
  H   H6140     1.0  0.74960  0.26154  0.24156  1.0000
  C   C3603     1.0  0.77432  0.25251  0.24256  1.0000
  H   H6141     1.0  0.95515  0.29278  0.41141  1.0000
  H   H6142     1.0  0.98126  0.44830  0.38008  1.0000
  C   C3604     1.0  0.79522  0.29556  0.17022  1.0000
  H   H6143     1.0  0.84075  0.39087  0.22904  1.0000
  S   S1042     1.0  0.83860  0.32162  0.29302  1.0000
  H   H6144     1.0  0.82941  0.38234  0.22142  1.0000
  H   H6145     1.0  0.85445  0.31718  0.33736  1.0000
  H   H6146     1.0  0.93215  0.42807  0.36610  1.0000
  C   C3605     1.0  0.81680  0.35362  0.24538  1.0000
  H   H6147     1.0  0.86407  0.34458  0.26078  1.0000
  H   H6148     1.0  0.80962  0.27825  0.34561  1.0000
  C   C3606     1.0  0.83636  0.24282  0.12363  1.0000
  H   H6149     1.0  0.81869  0.32190  0.38817  1.0000
  H   H6150     1.0  0.97093  0.39022  0.25839  1.0000
  H   H6151     1.0  0.84780  0.35299  0.27425  1.0000
  H   H6152     1.0  0.79239  0.36175  0.26824  1.0000
  H   H6153     1.0  0.80663  0.36305  0.24216  1.0000
  C   C3607     1.0  0.83793  0.30314  0.34092  1.0000
  H   H6154     1.0  0.85981  0.29775  0.34823  1.0000
  H   H6155     1.0  0.87873  0.32366  0.36187  1.0000
  H   H6156     1.0  0.78117  0.24104  0.13120  1.0000
  H   H6157     1.0  0.81892  0.31887  0.36083  1.0000
  H   H6158     1.0  0.80021  0.28664  0.14340  1.0000
  H   H6159     1.0  0.75558  0.24157  0.34315  1.0000
  N   N257      1.0  0.95707  0.23797  0.12909  1.0000
  H   H6160     1.0  0.81111  0.26864  0.39148  1.0000
  H   H6161     1.0  0.82862  0.47023  0.36564  1.0000
  S   S1043     1.0  0.75623  0.24882  0.07233  1.0000
  S   S1044     1.0  0.79403  0.32428  0.28812  1.0000
  C   C3608     1.0  0.78497  0.26305  0.31024  1.0000
  H   H6162     1.0  0.97435  0.35042  0.30758  1.0000
  H   H6163     1.0  0.79517  0.29368  0.33773  1.0000
  S   S1045     1.0  0.77254  0.30950  0.13855  1.0000
  C   C3609     1.0  0.83168  0.29011  0.37987  1.0000
  Fe  Fe522     1.0  0.86802  0.47905  0.44808  1.0000
  C   C3610     1.0  0.81671  0.28807  0.12164  1.0000
  S   S1046     1.0  0.98566  0.48177  0.41878  1.0000
  C   C3611     1.0  0.79735  0.26441  0.22825  1.0000
  H   H6164     1.0  0.77672  0.30044  0.08662  1.0000
  S   S1047     1.0  0.97658  0.37454  0.39076  1.0000
  H   H6165     1.0  0.90686  0.43323  0.40919  1.0000
  H   H6166     1.0  0.94350  0.41829  0.38105  1.0000
  C   C3612     1.0  0.81320  0.28444  0.13982  1.0000
  H   H6167     1.0  0.94369  0.34626  0.31008  1.0000
  S   S1048     1.0  0.75016  0.29056  0.17977  1.0000
  C   C3613     1.0  0.77619  0.32957  0.21977  1.0000
  C   C3614     1.0  0.76642  0.32367  0.21411  1.0000
  C   C3615     1.0  0.93890  0.41671  0.37154  1.0000
  H   H6168     1.0  0.85090  0.32792  0.37372  1.0000
  H   H6169     1.0  0.94911  0.41359  0.36199  1.0000
  H   H6170     1.0  0.79432  0.36378  0.28657  1.0000
  H   H6171     1.0  0.89875  0.43913  0.39220  1.0000
  H   H6172     1.0  0.91899  0.41295  0.35000  1.0000
  C   C3616     1.0  0.79188  0.25005  0.35940  1.0000
  C   C3617     1.0  0.90869  0.43109  0.39724  1.0000
  H   H6173     1.0  0.95042  0.25020  0.42188  1.0000
  Fe  Fe523     1.0  0.79084  0.29942  0.29817  1.0000
  Fe  Fe524     1.0  0.85356  0.24055  0.45119  1.0000
  H   H6174     1.0  0.83675  0.27987  0.37420  1.0000
  C   C3618     1.0  0.79940  0.36616  0.27370  1.0000
  H   H6175     1.0  0.79565  0.28292  0.38323  1.0000
  H   H6176     1.0  0.85393  0.33435  0.35300  1.0000
  H   H6177     1.0  0.79343  0.26878  0.30126  1.0000
  Fe  Fe525     1.0  0.79775  0.31812  0.26459  1.0000
  C   C3619     1.0  0.85452  0.32361  0.36266  1.0000
  S   S1049     1.0  0.86240  0.47919  0.47410  1.0000
  H   H6178     1.0  0.93255  0.39680  0.36824  1.0000
  H   H6179     1.0  0.85546  0.29208  0.37529  1.0000
  H   H6180     1.0  0.74286  0.31491  0.06252  1.0000
  H   H6181     1.0  0.93554  0.39485  0.38688  1.0000
  C   C3620     1.0  0.75980  0.28888  0.10444  1.0000
  H   H6182     1.0  0.78644  0.24486  0.18456  1.0000
  C   C3621     1.0  0.81531  0.31083  0.14002  1.0000
  H   H6183     1.0  0.93264  0.29028  0.39253  1.0000
  C   C3622     1.0  0.84697  0.29589  0.14952  1.0000
  C   C3623     1.0  0.81616  0.32264  0.14914  1.0000
  C   C3624     1.0  0.91108  0.26662  0.47477  1.0000
  H   H6184     1.0  0.82280  0.31351  0.12800  1.0000
  H   H6185     1.0  0.80304  0.31389  0.13825  1.0000
  H   H6186     1.0  0.85523  0.36494  0.25541  1.0000
  C   C3625     1.0  0.79976  0.27027  0.38814  1.0000
  S   S1050     1.0  0.86142  0.26328  0.44140  1.0000
  H   H6187     1.0  0.84344  0.29561  0.16228  1.0000
  H   H6188     1.0  0.84662  0.30810  0.14263  1.0000
  H   H6189     1.0  0.82335  0.33104  0.14119  1.0000
  H   H6190     1.0  0.82131  0.31743  0.15961  1.0000
  H   H6191     1.0  0.80422  0.32981  0.15285  1.0000
  C   C3626     1.0  0.92974  0.40341  0.37766  1.0000
  C   C3627     1.0  0.84971  0.30800  0.34714  1.0000
  S   S1051     1.0  0.97802  0.25545  0.42303  1.0000
  C   C3628     1.0  0.87204  0.31525  0.36146  1.0000
  H   H6192     1.0  0.82943  0.28522  0.11626  1.0000
  N   N258      1.0  0.81973  0.29357  0.14726  1.0000
  C   C3629     1.0  0.78446  0.27872  0.35899  1.0000
  H   H6193     1.0  0.81113  0.28067  0.11788  1.0000
  H   H6194     1.0  0.81445  0.38340  0.24656  1.0000
  H   H6195     1.0  0.82248  0.36232  0.27769  1.0000
  S   S1052     1.0  0.83239  0.24835  0.44002  1.0000
  H   H6196     1.0  0.90013  0.42522  0.34810  1.0000
  H   H6197     1.0  0.79917  0.28502  0.20933  1.0000
  C   C3630     1.0  0.83735  0.28758  0.14411  1.0000
  H   H6198     1.0  0.84259  0.30442  0.38719  1.0000
  H   H6199     1.0  0.82813  0.33476  0.35224  1.0000
  H   H6200     1.0  0.92267  0.37667  0.40127  1.0000
  H   H6201     1.0  0.81733  0.34513  0.27679  1.0000
  H   H6202     1.0  0.82598  0.33973  0.37844  1.0000
  C   C3631     1.0  0.82752  0.32460  0.36242  1.0000
  N   N259      1.0  0.82576  0.35910  0.25393  1.0000
  H   H6203     1.0  0.83406  0.33602  0.23320  1.0000
  C   C3632     1.0  0.90394  0.41991  0.37185  1.0000
  H   H6204     1.0  0.89671  0.41228  0.40586  1.0000
  Fe  Fe526     1.0  0.85054  0.25145  0.18228  1.0000
  H   H6205     1.0  0.90395  0.38444  0.41319  1.0000
  H   H6206     1.0  0.92983  0.26314  0.40660  1.0000
  H   H6207     1.0  0.80848  0.24645  0.25480  1.0000
  H   H6208     1.0  0.95124  0.38701  0.30269  1.0000
  S   S1053     1.0  0.85675  0.26122  0.40727  1.0000
  H   H6209     1.0  0.84729  0.37107  0.22779  1.0000
  H   H6210     1.0  0.83032  0.38109  0.25502  1.0000
  H   H6211     1.0  0.74257  0.24826  0.16343  1.0000
  H   H6212     1.0  0.92446  0.27086  0.44997  1.0000
  C   C3633     1.0  0.78364  0.26887  0.25491  1.0000
  N   N260      1.0  0.91222  0.40789  0.38385  1.0000
  H   H6213     1.0  0.87822  0.28283  0.45790  1.0000
  H   H6214     1.0  0.86091  0.33204  0.30256  1.0000
  S   S1054     1.0  0.79222  0.29443  0.27492  1.0000
  H   H6215     1.0  0.81148  0.30041  0.11663  1.0000
  H   H6216     1.0  0.81764  0.34581  0.22447  1.0000
  H   H6217     1.0  0.95922  0.36539  0.27167  1.0000
  H   H6218     1.0  0.85952  0.28961  0.14726  1.0000
  H   H6219     1.0  0.92088  0.43449  0.46107  1.0000
  H   H6220     1.0  0.81740  0.27153  0.14395  1.0000
  C   C3634     1.0  0.95886  0.25400  0.12928  1.0000
  H   H6221     1.0  0.91987  0.43439  0.39041  1.0000
  C   C3635     1.0  0.90983  0.38055  0.40200  1.0000
  H   H6222     1.0  0.89253  0.39644  0.38970  1.0000
  H   H6223     1.0  0.90550  0.37004  0.40251  1.0000
  Fe  Fe527     1.0  0.97986  0.26774  0.44044  1.0000
  C   C3636     1.0  0.97218  0.37952  0.31227  1.0000
  C   C3637     1.0  0.92822  0.25312  0.41616  1.0000
  S   S1055     1.0  0.75226  0.28395  0.09102  1.0000
  C   C3638     1.0  0.98449  0.33266  0.41802  1.0000
  C   C3639     1.0  0.90864  0.41372  0.39883  1.0000
  H   H6224     1.0  0.91696  0.40648  0.40646  1.0000
  C   C3640     1.0  0.90850  0.24283  0.17972  1.0000
  N   N261      1.0  0.84359  0.31387  0.36226  1.0000
  H   H6225     1.0  0.84872  0.34756  0.24190  1.0000
  H   H6226     1.0  0.83067  0.26057  0.10342  1.0000
  H   H6227     1.0  0.94761  0.30135  0.38449  1.0000
  C   C3641     1.0  0.81315  0.28961  0.16477  1.0000
  C   C3642     1.0  0.77595  0.30343  0.10967  1.0000
  H   H6228     1.0  0.95013  0.35233  0.32391  1.0000
  H   H6229     1.0  0.77075  0.27296  0.27805  1.0000
  H   H6230     1.0  0.89599  0.46443  0.46867  1.0000
  C   C3643     1.0  0.81869  0.24168  0.10814  1.0000
  C   C3644     1.0  0.78363  0.25269  0.17343  1.0000
  H   H6231     1.0  0.97151  0.25465  0.12594  1.0000
  H   H6232     1.0  0.78182  0.25127  0.35411  1.0000
  S   S1056     1.0  0.94398  0.25669  0.18762  1.0000
  H   H6233     1.0  0.96959  0.44108  0.45721  1.0000
  C   C3645     1.0  0.78921  0.25928  0.13567  1.0000
  C   C3646     1.0  0.98400  0.30960  0.46608  1.0000
  C   C3647     1.0  0.74183  0.36390  0.18814  1.0000
  H   H6234     1.0  0.77064  0.26911  0.38894  1.0000
  H   H6235     1.0  0.94032  0.36661  0.30963  1.0000
  Fe  Fe528     1.0  0.84889  0.23868  0.41955  1.0000
  S   S1057     1.0  0.74409  0.32925  0.17319  1.0000
  C   C3648     1.0  0.77445  0.25968  0.38215  1.0000
  H   H6236     1.0  0.79336  0.23810  0.36719  1.0000
  C   C3649     1.0  0.76378  0.24754  0.33397  1.0000
  H   H6237     1.0  0.75866  0.27639  0.24124  1.0000
  C   C3650     1.0  0.77419  0.26331  0.27163  1.0000
  H   H6238     1.0  0.98518  0.37720  0.30842  1.0000
  H   H6239     1.0  0.96861  0.38985  0.31778  1.0000
  H   H6240     1.0  0.80533  0.24767  0.38256  1.0000
  Fe  Fe529     1.0  0.98639  0.39338  0.37187  1.0000
  H   H6241     1.0  0.95663  0.23711  0.22223  1.0000
  H   H6242     1.0  0.79258  0.23664  0.26262  1.0000
  H   H6243     1.0  0.88909  0.27983  0.43893  1.0000
  H   H6244     1.0  0.81929  0.45451  0.37825  1.0000
  C   C3651     1.0  0.93989  0.24581  0.42483  1.0000
  C   C3652     1.0  0.83410  0.48198  0.38780  1.0000
  H   H6245     1.0  0.79781  0.47372  0.39144  1.0000
  C   C3653     1.0  0.93972  0.23814  0.13250  1.0000
  H   H6246     1.0  0.96545  0.24141  0.08828  1.0000
  Fe  Fe530     1.0  0.78191  0.23841  0.06500  1.0000
  H   H6247     1.0  0.81733  0.24869  0.34902  1.0000
  H   H6248     1.0  0.94711  0.24878  0.10049  1.0000
  H   H6249     1.0  0.79460  0.25326  0.16435  1.0000
  C   C3654     1.0  0.89670  0.26106  0.45787  1.0000
  C   C3655     1.0  0.80891  0.47764  0.38479  1.0000
  N   N262      1.0  0.81844  0.47770  0.39604  1.0000
  H   H6250     1.0  0.80767  0.23974  0.34036  1.0000
  S   S1058     1.0  0.74448  0.30566  0.21838  1.0000
  C   C3656     1.0  0.96006  0.24639  0.09895  1.0000
  H   H6251     1.0  0.97524  0.31898  0.46034  1.0000
  S   S1059     1.0  0.76175  0.23917  0.10849  1.0000
  H   H6252     1.0  0.93387  0.25387  0.46274  1.0000
  C   C3657     1.0  0.99046  0.35821  0.26860  1.0000
  N   N263      1.0  0.77583  0.23818  0.15651  1.0000
  H   H6253     1.0  0.93461  0.23691  0.14535  1.0000
  H   H6254     1.0  0.79778  0.23887  0.00672  1.0000
  H   H6255     1.0  0.76406  0.24156  0.17996  1.0000
  C   C3658     1.0  0.98690  0.43927  0.38865  1.0000
  N   N264      1.0  0.90003  0.25719  0.47408  1.0000
  C   C3659     1.0  0.91240  0.23446  0.43208  1.0000
  H   H6256     1.0  0.79916  0.48329  0.41541  1.0000
  C   C3660     1.0  0.90768  0.23999  0.47802  1.0000
  C   C3661     1.0  0.96589  0.23467  0.11317  1.0000
  H   H6257     1.0  0.97864  0.23452  0.11142  1.0000
  C   C3662     1.0  0.74156  0.33122  0.07667  1.0000
  H   H6258     1.0  0.83984  0.48379  0.39637  1.0000
  H   H6259     1.0  0.99090  0.29750  0.32624  1.0000
  H   H6260     1.0  0.91915  0.48393  0.45796  1.0000
  C   C3663     1.0  0.85177  0.23907  0.51732  1.0000
  H   H6261     1.0  0.94328  0.48051  0.65609  1.0000
  H   H6262     1.0  0.82018  0.27086  0.80896  1.0000
  H   H6263     1.0  0.97167  0.25520  0.88000  1.0000
  H   H6264     1.0  0.93982  0.30945  0.64785  1.0000
  S   S1060     1.0  0.98229  0.25858  0.81072  1.0000
  H   H6265     1.0  0.98605  0.26631  0.63270  1.0000
  H   H6266     1.0  0.87967  0.27390  0.48331  1.0000
  S   S1061     1.0  0.81068  0.23731  0.71421  1.0000
  S   S1062     1.0  0.98979  0.25826  0.84435  1.0000
  H   H6267     1.0  0.78920  0.23484  0.61059  1.0000
  H   H6268     1.0  0.78522  0.25663  0.56155  1.0000
  S   S1063     1.0  0.89963  0.46611  0.58623  1.0000
  H   H6269     1.0  0.74585  0.39491  0.89916  1.0000
  H   H6270     1.0  0.87084  0.24475  0.76237  1.0000
  H   H6271     1.0  0.97456  0.33578  0.59512  1.0000
  H   H6272     1.0  0.77493  0.26623  0.94606  1.0000
  C   C3664     1.0  0.96240  0.46557  0.60307  1.0000
  H   H6273     1.0  0.87562  0.25570  0.48421  1.0000
  S   S1064     1.0  0.85669  0.26660  0.80934  1.0000
  C   C3665     1.0  0.74150  0.28389  0.81130  1.0000
  H   H6274     1.0  0.85111  0.30869  0.75519  1.0000
  Fe  Fe531     1.0  0.82664  0.27057  0.73913  1.0000
  H   H6275     1.0  0.83678  0.26852  0.89926  1.0000
  H   H6276     1.0  0.91338  0.38895  0.58103  1.0000
  C   C3666     1.0  0.76261  0.27784  0.78897  1.0000
  H   H6277     1.0  0.83822  0.33501  0.73073  1.0000
  C   C3667     1.0  0.92718  0.30013  0.57181  1.0000
  C   C3668     1.0  0.84821  0.31088  0.72530  1.0000
  C   C3669     1.0  0.75743  0.29273  0.78005  1.0000
  H   H6278     1.0  0.93761  0.24903  0.80186  1.0000
  C   C3670     1.0  0.91744  0.24899  0.56097  1.0000
  S   S1065     1.0  0.77838  0.26399  0.78082  1.0000
  H   H6279     1.0  0.77117  0.29755  0.89057  1.0000
  Fe  Fe532     1.0  0.89415  0.34837  0.62840  1.0000
  S   S1066     1.0  0.88750  0.35281  0.65283  1.0000
  S   S1067     1.0  0.90573  0.36416  0.60700  1.0000
  Fe  Fe533     1.0  0.88488  0.31676  0.63897  1.0000
  S   S1068     1.0  0.87743  0.31855  0.66415  1.0000
  S   S1069     1.0  0.88412  0.29370  0.63473  1.0000
  Fe  Fe534     1.0  0.86625  0.34343  0.65517  1.0000
  S   S1070     1.0  0.84221  0.35525  0.66670  1.0000
  Fe  Fe535     1.0  0.89930  0.32752  0.65979  1.0000
  S   S1071     1.0  0.91242  0.31709  0.67931  1.0000
  S   S1072     1.0  0.87183  0.34111  0.63003  1.0000
  S   S1073     1.0  0.90782  0.32362  0.63524  1.0000
  Fe  Fe536     1.0  0.87992  0.25055  0.56010  1.0000
  S   S1074     1.0  0.86375  0.27311  0.55168  1.0000
  C   C3671     1.0  0.98720  0.43956  0.56527  1.0000
  H   H6280     1.0  0.88881  0.24329  0.50732  1.0000
  S   S1075     1.0  0.83464  0.25847  0.57600  1.0000
  S   S1076     1.0  0.74598  0.28023  0.87277  1.0000
  Fe  Fe537     1.0  0.84831  0.25781  0.55122  1.0000
  S   S1077     1.0  0.83582  0.26433  0.53111  1.0000
  Fe  Fe538     1.0  0.85190  0.27154  0.57712  1.0000
  S   S1078     1.0  0.84438  0.29306  0.58759  1.0000
  H   H6281     1.0  0.80683  0.26924  0.78926  1.0000
  S   S1079     1.0  0.86923  0.25001  0.58565  1.0000
  C   C3672     1.0  0.91234  0.23649  0.84505  1.0000
  C   C3673     1.0  0.80833  0.24038  0.56298  1.0000
  Fe  Fe539     1.0  0.99000  0.34609  0.66192  1.0000
  C   C3674     1.0  0.79754  0.25476  0.55472  1.0000
  H   H6282     1.0  0.97397  0.30715  0.62808  1.0000
  H   H6283     1.0  0.90085  0.41699  0.57421  1.0000
  C   C3675     1.0  0.95812  0.23809  0.88071  1.0000
  S   S1080     1.0  0.97284  0.33665  0.68318  1.0000
  H   H6284     1.0  0.77804  0.25512  0.90817  1.0000
  H   H6285     1.0  0.83498  0.28721  0.76196  1.0000
  H   H6286     1.0  0.87276  0.24501  0.78898  1.0000
  H   H6287     1.0  0.91932  0.31783  0.59582  1.0000
  Fe  Fe540     1.0  0.97196  0.25514  0.58154  1.0000
  S   S1081     1.0  0.96969  0.27829  0.56460  1.0000
  H   H6288     1.0  0.96409  0.27071  0.68218  1.0000
  C   C3676     1.0  0.92071  0.24766  0.84439  1.0000
  C   C3677     1.0  0.74270  0.27259  0.89302  1.0000
  S   S1082     1.0  0.97299  0.30836  0.58588  1.0000
  S   S1083     1.0  0.80663  0.28941  0.74751  1.0000
  H   H6289     1.0  0.86444  0.41128  0.61592  1.0000
  H   H6290     1.0  0.75253  0.24903  0.78281  1.0000
  C   C3678     1.0  0.81335  0.25827  0.79577  1.0000
  C   C3679     1.0  0.76698  0.23624  0.71125  1.0000
  H   H6291     1.0  0.90888  0.42593  0.52124  1.0000
  H   H6292     1.0  0.79928  0.28354  0.88664  1.0000
  C   C3680     1.0  0.93623  0.24286  0.84650  1.0000
  C   C3681     1.0  0.88341  0.42885  0.52795  1.0000
  H   H6293     1.0  0.95869  0.23593  0.78189  1.0000
  H   H6294     1.0  0.77561  0.28382  0.84054  1.0000
  H   H6295     1.0  0.86175  0.34705  0.71164  1.0000
  H   H6296     1.0  0.89263  0.33100  0.59325  1.0000
  H   H6297     1.0  0.78528  0.27523  0.80791  1.0000
  C   C3682     1.0  0.93495  0.28926  0.59701  1.0000
  H   H6298     1.0  0.98269  0.27765  0.49896  1.0000
  H   H6299     1.0  0.75756  0.25001  0.89043  1.0000
  H   H6300     1.0  0.77048  0.28077  0.92935  1.0000
  Fe  Fe541     1.0  0.98217  0.28499  0.57898  1.0000
  H   H6301     1.0  0.98994  0.30299  0.66570  1.0000
  C   C3683     1.0  0.92849  0.32414  0.67978  1.0000
  C   C3684     1.0  0.93622  0.33383  0.66671  1.0000
  C   C3685     1.0  0.94985  0.33804  0.66750  1.0000
  C   C3686     1.0  0.95551  0.33271  0.68144  1.0000
  C   C3687     1.0  0.94749  0.32338  0.69447  1.0000
  C   C3688     1.0  0.93418  0.31900  0.69360  1.0000
  H   H6302     1.0  0.93187  0.33782  0.65598  1.0000
  H   H6303     1.0  0.95595  0.34532  0.65741  1.0000
  H   H6304     1.0  0.95177  0.31927  0.70525  1.0000
  H   H6305     1.0  0.92829  0.31151  0.70370  1.0000
  C   C3689     1.0  0.87294  0.29386  0.62164  1.0000
  C   C3690     1.0  0.87153  0.27952  0.61981  1.0000
  C   C3691     1.0  0.86288  0.27921  0.60929  1.0000
  C   C3692     1.0  0.85565  0.29323  0.60047  1.0000
  C   C3693     1.0  0.85689  0.30760  0.60245  1.0000
  C   C3694     1.0  0.86555  0.30792  0.61302  1.0000
  H   H6306     1.0  0.87719  0.26860  0.62651  1.0000
  H   H6307     1.0  0.86159  0.26812  0.60822  1.0000
  H   H6308     1.0  0.85123  0.31848  0.59572  1.0000
  H   H6309     1.0  0.86662  0.31902  0.61435  1.0000
  C   C3695     1.0  0.84713  0.23647  0.63359  1.0000
  H   H6310     1.0  0.87732  0.44065  0.55604  1.0000
  C   C3696     1.0  0.83758  0.26149  0.50132  1.0000
  C   C3697     1.0  0.84245  0.25431  0.51554  1.0000
  H   H6311     1.0  0.96342  0.30609  0.66931  1.0000
  C   C3698     1.0  0.88470  0.26104  0.48564  1.0000
  H   H6312     1.0  0.99075  0.44617  0.57191  1.0000
  H   H6313     1.0  0.83032  0.27326  0.49988  1.0000
  H   H6314     1.0  0.79442  0.24105  0.91344  1.0000
  H   H6315     1.0  0.79798  0.25400  0.54259  1.0000
  H   H6316     1.0  0.88286  0.29448  0.69759  1.0000
  C   C3699     1.0  0.79629  0.24923  0.88849  1.0000
  H   H6317     1.0  0.85639  0.28792  0.66758  1.0000
  H   H6318     1.0  0.79468  0.28663  0.81394  1.0000
  H   H6319     1.0  0.78863  0.24223  0.88711  1.0000
  H   H6320     1.0  0.94294  0.27933  0.59183  1.0000
  C   C3700     1.0  0.97409  0.27395  0.63291  1.0000
  C   C3701     1.0  0.89575  0.40981  0.58494  1.0000
  H   H6321     1.0  0.89363  0.26186  0.50582  1.0000
  C   C3702     1.0  0.81510  0.26032  0.81151  1.0000
  H   H6322     1.0  0.96689  0.46241  0.54226  1.0000
  C   C3703     1.0  0.89860  0.32112  0.58719  1.0000
  H   H6323     1.0  0.87370  0.26021  0.51036  1.0000
  H   H6324     1.0  0.96760  0.43504  0.55024  1.0000
  H   H6325     1.0  0.76628  0.29217  0.82429  1.0000
  C   C3704     1.0  0.95937  0.25360  0.88370  1.0000
  H   H6326     1.0  0.94298  0.47392  0.49216  1.0000
  C   C3705     1.0  0.94443  0.23743  0.51880  1.0000
  H   H6327     1.0  0.81954  0.28391  0.90156  1.0000
  H   H6328     1.0  0.90402  0.23625  0.58159  1.0000
  H   H6329     1.0  0.81380  0.29573  0.68400  1.0000
  H   H6330     1.0  0.80186  0.26544  0.55361  1.0000
  S   S1084     1.0  0.86525  0.23516  0.55796  1.0000
  C   C3706     1.0  0.85550  0.26664  0.79033  1.0000
  C   C3707     1.0  0.84501  0.27867  0.78255  1.0000
  C   C3708     1.0  0.84337  0.27812  0.76775  1.0000
  H   H6331     1.0  0.90043  0.24026  0.84320  1.0000
  C   C3709     1.0  0.86468  0.25435  0.78306  1.0000
  H   H6332     1.0  0.83788  0.28818  0.78814  1.0000
  H   H6333     1.0  0.85541  0.42236  0.53059  1.0000
  H   H6334     1.0  0.80772  0.24839  0.79728  1.0000
  H   H6335     1.0  0.85636  0.42270  0.57549  1.0000
  H   H6336     1.0  0.82463  0.23540  0.63131  1.0000
  S   S1085     1.0  0.88262  0.47425  0.55618  1.0000
  H   H6337     1.0  0.76353  0.29623  0.76800  1.0000
  H   H6338     1.0  0.78711  0.24823  0.81810  1.0000
  H   H6339     1.0  0.86547  0.34654  0.69148  1.0000
  H   H6340     1.0  0.82094  0.24113  0.84402  1.0000
  H   H6341     1.0  0.83584  0.24872  0.67788  1.0000
  H   H6342     1.0  0.92442  0.27360  0.61856  1.0000
  H   H6343     1.0  0.84789  0.34160  0.70389  1.0000
  H   H6344     1.0  0.97453  0.44448  0.56611  1.0000
  H   H6345     1.0  0.82408  0.25120  0.63947  1.0000
  C   C3710     1.0  0.75017  0.25718  0.89859  1.0000
  C   C3711     1.0  0.75461  0.27345  0.80458  1.0000
  H   H6346     1.0  0.79478  0.29903  0.67976  1.0000
  C   C3712     1.0  0.81926  0.25375  0.84353  1.0000
  N   N265      1.0  0.86922  0.43064  0.54138  1.0000
  H   H6347     1.0  0.82613  0.32802  0.72297  1.0000
  H   H6348     1.0  0.88322  0.41975  0.52191  1.0000
  H   H6349     1.0  0.76570  0.28211  0.90652  1.0000
  H   H6350     1.0  0.74368  0.29461  0.73807  1.0000
  C   C3713     1.0  0.85718  0.41432  0.56828  1.0000
  H   H6351     1.0  0.93425  0.28934  0.56752  1.0000
  S   S1086     1.0  0.79223  0.31563  0.70946  1.0000
  C   C3714     1.0  0.82889  0.34385  0.67920  1.0000
  C   C3715     1.0  0.89237  0.46732  0.48014  1.0000
  H   H6352     1.0  0.84799  0.46360  0.54905  1.0000
  H   H6353     1.0  0.81933  0.25484  0.85541  1.0000
  C   C3716     1.0  0.77348  0.28121  0.83013  1.0000
  H   H6354     1.0  0.86117  0.33153  0.73470  1.0000
  Fe  Fe542     1.0  0.80046  0.29211  0.72436  1.0000
  C   C3717     1.0  0.98610  0.31159  0.59505  1.0000
  S   S1087     1.0  0.95083  0.24428  0.59254  1.0000
  H   H6355     1.0  0.95461  0.25454  0.89613  1.0000
  C   C3718     1.0  0.97607  0.43284  0.53926  1.0000
  C   C3719     1.0  0.90205  0.28344  0.58169  1.0000
  C   C3720     1.0  0.94218  0.47578  0.58214  1.0000
  C   C3721     1.0  0.98822  0.28916  0.64975  1.0000
  H   H6356     1.0  0.91188  0.23702  0.48915  1.0000
  C   C3722     1.0  0.94807  0.45971  0.58717  1.0000
  H   H6357     1.0  0.89364  0.29461  0.57873  1.0000
  H   H6358     1.0  0.95917  0.23967  0.53855  1.0000
  H   H6359     1.0  0.74351  0.41574  0.89455  1.0000
  C   C3723     1.0  0.87513  0.40643  0.60828  1.0000
  H   H6360     1.0  0.80896  0.36316  0.67679  1.0000
  H   H6361     1.0  0.95502  0.47108  0.50567  1.0000
  C   C3724     1.0  0.97550  0.46822  0.54364  1.0000
  H   H6362     1.0  0.98098  0.42242  0.58664  1.0000
  H   H6363     1.0  0.80848  0.24209  0.88652  1.0000
  C   C3725     1.0  0.91420  0.24146  0.57683  1.0000
  C   C3726     1.0  0.74404  0.30303  0.78667  1.0000
  H   H6364     1.0  0.82523  0.25549  0.78815  1.0000
  H   H6365     1.0  0.77139  0.24793  0.75820  1.0000
  H   H6366     1.0  0.97473  0.42146  0.53803  1.0000
  H   H6367     1.0  0.97085  0.26743  0.65776  1.0000
  H   H6368     1.0  0.75405  0.27513  0.76010  1.0000
  H   H6369     1.0  0.95995  0.28576  0.69278  1.0000
  S   S1088     1.0  0.98258  0.26258  0.59719  1.0000
  H   H6370     1.0  0.85283  0.24064  0.64056  1.0000
  C   C3727     1.0  0.87586  0.29692  0.72233  1.0000
  H   H6371     1.0  0.93494  0.24011  0.77475  1.0000
  N   N266      1.0  0.82537  0.30948  0.64857  1.0000
  C   C3728     1.0  0.82510  0.32476  0.63645  1.0000
  C   C3729     1.0  0.82595  0.29693  0.64032  1.0000
  C   C3730     1.0  0.84008  0.30578  0.65490  1.0000
  C   C3731     1.0  0.81078  0.31173  0.66142  1.0000
  C   C3732     1.0  0.82669  0.33886  0.64187  1.0000
  C   C3733     1.0  0.81211  0.29951  0.63244  1.0000
  C   C3734     1.0  0.84651  0.28847  0.66226  1.0000
  C   C3735     1.0  0.80761  0.29725  0.67451  1.0000
  H   H6372     1.0  0.83471  0.32323  0.62587  1.0000
  H   H6373     1.0  0.81394  0.32867  0.63218  1.0000
  H   H6374     1.0  0.82668  0.28519  0.64829  1.0000
  H   H6375     1.0  0.83694  0.29563  0.63105  1.0000
  H   H6376     1.0  0.85003  0.30948  0.64543  1.0000
  H   H6377     1.0  0.83834  0.31265  0.66386  1.0000
  H   H6378     1.0  0.81117  0.32054  0.66766  1.0000
  H   H6379     1.0  0.79999  0.31717  0.65660  1.0000
  H   H6380     1.0  0.81659  0.34244  0.65130  1.0000
  H   H6381     1.0  0.83784  0.33663  0.64575  1.0000
  H   H6382     1.0  0.82685  0.34915  0.63180  1.0000
  H   H6383     1.0  0.81335  0.28894  0.62788  1.0000
  H   H6384     1.0  0.80057  0.30115  0.64083  1.0000
  H   H6385     1.0  0.81228  0.30949  0.62208  1.0000
  H   H6386     1.0  0.85152  0.28132  0.65315  1.0000
  H   H6387     1.0  0.95282  0.25959  0.51143  1.0000
  C   C3736     1.0  0.89856  0.46679  0.50493  1.0000
  C   C3737     1.0  0.88215  0.39033  0.61212  1.0000
  C   C3738     1.0  0.77933  0.24080  0.71426  1.0000
  H   H6388     1.0  0.86769  0.31857  0.69701  1.0000
  C   C3739     1.0  0.82271  0.31925  0.69577  1.0000
  Fe  Fe543     1.0  0.97276  0.24998  0.83633  1.0000
  H   H6389     1.0  0.87351  0.45368  0.53831  1.0000
  H   H6390     1.0  0.96274  0.44221  0.60149  1.0000
  H   H6391     1.0  0.85975  0.40244  0.57595  1.0000
  H   H6392     1.0  0.97253  0.44213  0.52918  1.0000
  H   H6393     1.0  0.85352  0.45817  0.52370  1.0000
  H   H6394     1.0  0.95373  0.27907  0.65174  1.0000
  H   H6395     1.0  0.84599  0.30888  0.71463  1.0000
  C   C3740     1.0  0.90274  0.39380  0.58872  1.0000
  H   H6396     1.0  0.84572  0.41565  0.56537  1.0000
  H   H6397     1.0  0.93666  0.24061  0.52979  1.0000
  C   C3741     1.0  0.86945  0.32324  0.70633  1.0000
  C   C3742     1.0  0.85492  0.43294  0.53486  1.0000
  C   C3743     1.0  0.94897  0.30957  0.63681  1.0000
  H   H6398     1.0  0.80422  0.27607  0.83775  1.0000
  C   C3744     1.0  0.96563  0.30689  0.63966  1.0000
  N   N267      1.0  0.92097  0.29604  0.58933  1.0000
  S   S1089     1.0  0.78463  0.27482  0.73350  1.0000
  H   H6399     1.0  0.81675  0.23811  0.59988  1.0000
  C   C3745     1.0  0.81286  0.35090  0.68207  1.0000
  Fe  Fe544     1.0  0.92196  0.45747  0.56996  1.0000
  H   H6400     1.0  0.87685  0.38286  0.62267  1.0000
  C   C3746     1.0  0.91153  0.28345  0.59348  1.0000
  S   S1090     1.0  0.94334  0.44597  0.57996  1.0000
  C   C3747     1.0  0.82920  0.23845  0.64004  1.0000
  H   H6401     1.0  0.88139  0.41346  0.55849  1.0000
  C   C3748     1.0  0.74790  0.25087  0.91475  1.0000
  H   H6402     1.0  0.91939  0.27152  0.59494  1.0000
  S   S1091     1.0  0.91181  0.44330  0.56045  1.0000
  H   H6403     1.0  0.84654  0.30001  0.73440  1.0000
  H   H6404     1.0  0.91520  0.45733  0.48589  1.0000
  H   H6405     1.0  0.98425  0.41523  0.56938  1.0000
  H   H6406     1.0  0.94914  0.29627  0.66921  1.0000
  C   C3749     1.0  0.80643  0.23401  0.66142  1.0000
  C   C3750     1.0  0.78891  0.27639  0.81824  1.0000
  H   H6407     1.0  0.82463  0.26872  0.91837  1.0000
  C   C3751     1.0  0.84193  0.25352  0.48896  1.0000
  N   N268      1.0  0.86487  0.31289  0.72227  1.0000
  H   H6408     1.0  0.94032  0.31528  0.55283  1.0000
  C   C3752     1.0  0.86769  0.31928  0.73473  1.0000
  N   N269      1.0  0.93855  0.39922  0.61242  1.0000
  C   C3753     1.0  0.94146  0.39989  0.62781  1.0000
  C   C3754     1.0  0.93453  0.38360  0.61440  1.0000
  C   C3755     1.0  0.92507  0.41218  0.60773  1.0000
  C   C3756     1.0  0.95317  0.40120  0.59982  1.0000
  C   C3757     1.0  0.94391  0.41574  0.62881  1.0000
  C   C3758     1.0  0.94832  0.36913  0.61541  1.0000
  C   C3759     1.0  0.90930  0.41285  0.61989  1.0000
  C   C3760     1.0  0.95264  0.40018  0.58322  1.0000
  H   H6409     1.0  0.93170  0.39668  0.63780  1.0000
  H   H6410     1.0  0.95218  0.39101  0.63050  1.0000
  H   H6411     1.0  0.92906  0.38362  0.60482  1.0000
  H   H6412     1.0  0.92533  0.38122  0.62528  1.0000
  H   H6413     1.0  0.92808  0.42388  0.60482  1.0000
  H   H6414     1.0  0.92270  0.41117  0.59667  1.0000
  H   H6415     1.0  0.95562  0.41295  0.59828  1.0000
  H   H6416     1.0  0.96390  0.39293  0.60331  1.0000
  H   H6417     1.0  0.95474  0.41876  0.62053  1.0000
  H   H6418     1.0  0.93366  0.42552  0.62693  1.0000
  H   H6419     1.0  0.94554  0.41472  0.64078  1.0000
  H   H6420     1.0  0.94366  0.35838  0.61778  1.0000
  H   H6421     1.0  0.95719  0.36936  0.60416  1.0000
  H   H6422     1.0  0.95408  0.36789  0.62513  1.0000
  H   H6423     1.0  0.90481  0.40203  0.62228  1.0000
  H   H6424     1.0  0.90034  0.42275  0.61502  1.0000
  H   H6425     1.0  0.91008  0.41505  0.63105  1.0000
  H   H6426     1.0  0.94834  0.41204  0.57626  1.0000
  H   H6427     1.0  0.94511  0.39241  0.58332  1.0000
  H   H6428     1.0  0.96465  0.39516  0.57704  1.0000
  Fe  Fe545     1.0  0.90629  0.46493  0.54196  1.0000
  H   H6429     1.0  0.96652  0.26765  0.63031  1.0000
  H   H6430     1.0  0.97441  0.47987  0.53536  1.0000
  C   C3761     1.0  0.74573  0.27223  0.75485  1.0000
  S   S1092     1.0  0.90557  0.24943  0.54835  1.0000
  H   H6431     1.0  0.88818  0.29764  0.72150  1.0000
  H   H6432     1.0  0.92443  0.29264  0.62130  1.0000
  H   H6433     1.0  0.84059  0.44932  0.51893  1.0000
  C   C3762     1.0  0.90319  0.46325  0.48994  1.0000
  S   S1093     1.0  0.98793  0.39716  0.62370  1.0000
  C   C3763     1.0  0.89964  0.42458  0.53223  1.0000
  S   S1094     1.0  0.82171  0.27487  0.71526  1.0000
  C   C3764     1.0  0.82932  0.24854  0.66921  1.0000
  H   H6434     1.0  0.84388  0.43403  0.54395  1.0000
  H   H6435     1.0  0.90251  0.41217  0.53862  1.0000
  C   C3765     1.0  0.76299  0.24001  0.76212  1.0000
  H   H6436     1.0  0.74196  0.23667  0.77978  1.0000
  C   C3766     1.0  0.93804  0.24635  0.58026  1.0000
  H   H6437     1.0  0.83402  0.25602  0.65790  1.0000
  H   H6438     1.0  0.82046  0.24087  0.55617  1.0000
  C   C3767     1.0  0.94677  0.25303  0.50714  1.0000
  Fe  Fe546     1.0  0.79253  0.27065  0.75607  1.0000
  H   H6439     1.0  0.97487  0.28435  0.62312  1.0000
  H   H6440     1.0  0.86496  0.31631  0.75994  1.0000
  H   H6441     1.0  0.82454  0.25041  0.81525  1.0000
  H   H6442     1.0  0.79900  0.25288  0.93175  1.0000
  H   H6443     1.0  0.84927  0.24368  0.62142  1.0000
  H   H6444     1.0  0.86101  0.44527  0.51001  1.0000
  C   C3768     1.0  0.94112  0.25416  0.56448  1.0000
  H   H6445     1.0  0.93502  0.26063  0.50597  1.0000
  H   H6446     1.0  0.76615  0.27230  0.83404  1.0000
  H   H6447     1.0  0.76944  0.26046  0.93151  1.0000
  S   S1095     1.0  0.85160  0.26553  0.74158  1.0000
  H   H6448     1.0  0.83769  0.28304  0.67169  1.0000
  H   H6449     1.0  0.82799  0.32002  0.74275  1.0000
  S   S1096     1.0  0.91243  0.46128  0.51696  1.0000
  H   H6450     1.0  0.97039  0.46162  0.61100  1.0000
  C   C3769     1.0  0.77604  0.26825  0.93318  1.0000
  C   C3770     1.0  0.94774  0.23965  0.80504  1.0000
  S   S1097     1.0  0.91912  0.47822  0.54999  1.0000
  C   C3771     1.0  0.89607  0.38403  0.60239  1.0000
  H   H6451     1.0  0.88224  0.32326  0.70360  1.0000
  C   C3772     1.0  0.79104  0.25242  0.90525  1.0000
  H   H6452     1.0  0.79401  0.26113  0.84929  1.0000
  N   N270      1.0  0.97066  0.29225  0.65155  1.0000
  H   H6453     1.0  0.78224  0.24893  0.83794  1.0000
  H   H6454     1.0  0.92314  0.47885  0.66478  1.0000
  H   H6455     1.0  0.79196  0.29034  0.90433  1.0000
  N   N271      1.0  0.79748  0.26496  0.90781  1.0000
  C   C3773     1.0  0.93079  0.25553  0.55488  1.0000
  H   H6456     1.0  0.77705  0.25146  0.71843  1.0000
  H   H6457     1.0  0.87262  0.28849  0.73357  1.0000
  C   C3774     1.0  0.87229  0.47867  0.50021  1.0000
  C   C3775     1.0  0.83468  0.32432  0.73075  1.0000
  C   C3776     1.0  0.96687  0.28200  0.68173  1.0000
  H   H6458     1.0  0.75334  0.26701  0.74490  1.0000
  H   H6459     1.0  0.93639  0.24089  0.91623  1.0000
  C   C3777     1.0  0.80664  0.32632  0.69837  1.0000
  C   C3778     1.0  0.79251  0.24798  0.82786  1.0000
  C   C3779     1.0  0.87680  0.47488  0.48535  1.0000
  H   H6460     1.0  0.96602  0.31758  0.64318  1.0000
  H   H6461     1.0  0.81061  0.28622  0.67036  1.0000
  H   H6462     1.0  0.93134  0.32371  0.56968  1.0000
  C   C3780     1.0  0.79151  0.28116  0.89856  1.0000
  H   H6463     1.0  0.98237  0.43067  0.61732  1.0000
  H   H6464     1.0  0.95326  0.25123  0.49525  1.0000
  H   H6465     1.0  0.79560  0.26017  0.87926  1.0000
  C   C3781     1.0  0.96203  0.29490  0.66771  1.0000
  C   C3782     1.0  0.79360  0.26461  0.92520  1.0000
  H   H6466     1.0  0.75518  0.24340  0.71311  1.0000
  C   C3783     1.0  0.85081  0.23811  0.49092  1.0000
  H   H6467     1.0  0.95154  0.25895  0.55960  1.0000
  H   H6468     1.0  0.91743  0.30467  0.56542  1.0000
  H   H6469     1.0  0.94617  0.32131  0.62898  1.0000
  H   H6470     1.0  0.94822  0.30085  0.63070  1.0000
  H   H6471     1.0  0.91472  0.26257  0.48626  1.0000
  C   C3784     1.0  0.85254  0.44728  0.52113  1.0000
  H   H6472     1.0  0.86468  0.28820  0.70845  1.0000
  C   C3785     1.0  0.88314  0.47478  0.50992  1.0000
  H   H6473     1.0  0.81983  0.24844  0.90866  1.0000
  Fe  Fe547     1.0  0.88904  0.45318  0.57533  1.0000
  H   H6474     1.0  0.75848  0.26191  0.81150  1.0000
  C   C3786     1.0  0.93744  0.31254  0.56589  1.0000
  H   H6475     1.0  0.80808  0.24246  0.57461  1.0000
  H   H6476     1.0  0.90996  0.28033  0.57072  1.0000
  H   H6477     1.0  0.87955  0.47799  0.52123  1.0000
  H   H6478     1.0  0.89506  0.27420  0.58695  1.0000
  C   C3787     1.0  0.93103  0.28309  0.61502  1.0000
  H   H6479     1.0  0.88331  0.43994  0.51879  1.0000
  C   C3788     1.0  0.87650  0.28879  0.70919  1.0000
  H   H6480     1.0  0.94882  0.30818  0.56960  1.0000
  C   C3789     1.0  0.86046  0.34051  0.70357  1.0000
  C   C3790     1.0  0.81520  0.26068  0.90271  1.0000
  H   H6481     1.0  0.84402  0.44527  0.56193  1.0000
  H   H6482     1.0  0.98765  0.25964  0.48108  1.0000
  S   S1098     1.0  0.87333  0.43656  0.59038  1.0000
  H   H6483     1.0  0.92206  0.23874  0.79365  1.0000
  C   C3791     1.0  0.96669  0.27814  0.64915  1.0000
  H   H6484     1.0  0.84618  0.32251  0.68404  1.0000
  N   N272      1.0  0.80027  0.26168  0.82423  1.0000
  C   C3792     1.0  0.74805  0.24653  0.77366  1.0000
  C   C3793     1.0  0.77468  0.28482  0.89570  1.0000
  H   H6485     1.0  0.90050  0.43250  0.53915  1.0000
  C   C3794     1.0  0.87077  0.41553  0.55368  1.0000
  S   S1099     1.0  0.98731  0.35273  0.63699  1.0000
  S   S1100     1.0  0.94664  0.25694  0.84537  1.0000
  H   H6486     1.0  0.97945  0.28023  0.68183  1.0000
  H   H6487     1.0  0.90328  0.28356  0.60509  1.0000
  H   H6488     1.0  0.90550  0.30685  0.60824  1.0000
  C   C3795     1.0  0.82433  0.27123  0.90574  1.0000
  H   H6489     1.0  0.88029  0.31994  0.73223  1.0000
  C   C3796     1.0  0.88207  0.41630  0.59480  1.0000
  C   C3797     1.0  0.83384  0.32802  0.68615  1.0000
  C   C3798     1.0  0.91147  0.31032  0.59574  1.0000
  H   H6490     1.0  0.94223  0.27800  0.61910  1.0000
  H   H6491     1.0  0.77409  0.27853  0.88706  1.0000
  H   H6492     1.0  0.87238  0.40533  0.54836  1.0000
  H   H6493     1.0  0.90344  0.32642  0.57483  1.0000
  H   H6494     1.0  0.81890  0.26096  0.88987  1.0000
  C   C3799     1.0  0.80177  0.34214  0.69147  1.0000
  H   H6495     1.0  0.79865  0.27329  0.92769  1.0000
  C   C3800     1.0  0.86357  0.25420  0.76799  1.0000
  H   H6496     1.0  0.82955  0.25811  0.83537  1.0000
  C   C3801     1.0  0.85280  0.26596  0.76041  1.0000
  H   H6497     1.0  0.94213  0.29809  0.59492  1.0000
  C   C3802     1.0  0.85293  0.45252  0.55675  1.0000
  H   H6498     1.0  0.78937  0.34767  0.69342  1.0000
  H   H6499     1.0  0.93320  0.26164  0.54269  1.0000
  S   S1101     1.0  0.81323  0.25155  0.74958  1.0000
  H   H6500     1.0  0.87142  0.29814  0.75379  1.0000
  H   H6501     1.0  0.88945  0.31503  0.58770  1.0000
  C   C3803     1.0  0.80370  0.26365  0.83892  1.0000
  H   H6502     1.0  0.82653  0.30700  0.70097  1.0000
  C   C3804     1.0  0.95814  0.45461  0.59766  1.0000
  H   H6503     1.0  0.91524  0.26004  0.84204  1.0000
  Fe  Fe548     1.0  0.80659  0.25720  0.72631  1.0000
  C   C3805     1.0  0.88555  0.25620  0.50317  1.0000
  C   C3806     1.0  0.86350  0.30991  0.75178  1.0000
  H   H6504     1.0  0.88323  0.27648  0.71185  1.0000
  Fe  Fe549     1.0  0.85272  0.23690  0.58292  1.0000
  C   C3807     1.0  0.86904  0.44430  0.54796  1.0000
  C   C3808     1.0  0.94854  0.48020  0.49732  1.0000
  H   H6505     1.0  0.92613  0.47696  0.63895  1.0000
  Fe  Fe550     1.0  0.86539  0.24171  0.82131  1.0000
  H   H6506     1.0  0.85477  0.45623  0.56670  1.0000
  H   H6507     1.0  0.79825  0.23817  0.63954  1.0000
  H   H6508     1.0  0.75296  0.23878  0.91885  1.0000
  C   C3809     1.0  0.92449  0.24015  0.58645  1.0000
  C   C3810     1.0  0.99043  0.26620  0.50114  1.0000
  H   H6509     1.0  0.95244  0.26358  0.87640  1.0000
  C   C3811     1.0  0.98856  0.42242  0.57469  1.0000
  C   C3812     1.0  0.98413  0.32629  0.59842  1.0000
  H   H6510     1.0  0.76052  0.23783  0.75173  1.0000
  H   H6511     1.0  0.95709  0.24551  0.80481  1.0000
  C   C3813     1.0  0.95669  0.48165  0.59788  1.0000
  H   H6512     1.0  0.97325  0.24235  0.52092  1.0000
  H   H6513     1.0  0.94563  0.23923  0.88075  1.0000
  H   H6514     1.0  0.93446  0.47981  0.57397  1.0000
  H   H6515     1.0  0.80292  0.24686  0.66093  1.0000
  H   H6516     1.0  0.78388  0.23410  0.65723  1.0000
  H   H6517     1.0  0.96430  0.23776  0.86829  1.0000
  H   H6518     1.0  0.81679  0.25373  0.67373  1.0000
  H   H6519     1.0  0.97215  0.47061  0.55564  1.0000
  H   H6520     1.0  0.92080  0.47739  0.61618  1.0000
  H   H6521     1.0  0.99127  0.31345  0.64539  1.0000
  H   H6522     1.0  0.74143  0.25454  0.73708  1.0000
  H   H6523     1.0  0.92204  0.23413  0.59867  1.0000
  C   C3814     1.0  0.74657  0.55223  0.11133  1.0000
  H   H6524     1.0  0.94671  0.73292  0.16759  1.0000
  S   S1102     1.0  0.83549  0.51273  0.40833  1.0000
  H   H6525     1.0  0.80482  0.48953  0.37795  1.0000
  Fe  Fe551     1.0  0.86638  0.61721  0.32926  1.0000
  S   S1103     1.0  0.84427  0.62254  0.34718  1.0000
  S   S1104     1.0  0.86765  0.62686  0.30314  1.0000
  Fe  Fe552     1.0  0.88600  0.60254  0.35438  1.0000
  S   S1105     1.0  0.86514  0.60692  0.37421  1.0000
  S   S1106     1.0  0.90925  0.59121  0.36153  1.0000
  Fe  Fe553     1.0  0.85269  0.59826  0.36110  1.0000
  S   S1107     1.0  0.83396  0.58405  0.37275  1.0000
  Fe  Fe554     1.0  0.85889  0.63055  0.35847  1.0000
  S   S1108     1.0  0.85143  0.65468  0.36399  1.0000
  S   S1109     1.0  0.87397  0.59222  0.34218  1.0000
  S   S1110     1.0  0.88064  0.62676  0.33969  1.0000
  Fe  Fe555     1.0  0.88544  0.68810  0.41347  1.0000
  S   S1111     1.0  0.88831  0.70950  0.39437  1.0000
  S   S1112     1.0  0.88827  0.66392  0.40958  1.0000
  Fe  Fe556     1.0  0.88235  0.70459  0.43983  1.0000
  S   S1113     1.0  0.84413  0.73322  0.07486  1.0000
  Fe  Fe557     1.0  0.86884  0.72230  0.41076  1.0000
  Fe  Fe558     1.0  0.90392  0.71310  0.40780  1.0000
  H   H6526     1.0  0.87130  0.72944  0.11617  1.0000
  S   S1114     1.0  0.86459  0.70045  0.42898  1.0000
  S   S1115     1.0  0.90288  0.69053  0.42549  1.0000
  C   C3815     1.0  0.88366  0.72993  0.22369  1.0000
  C   C3816     1.0  0.82323  0.71015  0.12167  1.0000
  H   H6527     1.0  0.77491  0.69261  0.05445  1.0000
  C   C3817     1.0  0.94097  0.69695  0.47822  1.0000
  H   H6528     1.0  0.98981  0.66472  0.42267  1.0000
  C   C3818     1.0  0.78936  0.67790  0.41607  1.0000
  C   C3819     1.0  0.75423  0.68867  0.09980  1.0000
  C   C3820     1.0  0.75364  0.67504  0.11164  1.0000
  C   C3821     1.0  0.82316  0.65345  0.06102  1.0000
  Fe  Fe559     1.0  0.89588  0.72569  0.16252  1.0000
  S   S1116     1.0  0.90436  0.70165  0.17629  1.0000
  H   H6529     1.0  0.84817  0.70904  0.26189  1.0000
  C   C3822     1.0  0.93872  0.49184  0.44076  1.0000
  S   S1117     1.0  0.91300  0.49187  0.40428  1.0000
  H   H6530     1.0  0.83698  0.50625  0.37776  1.0000
  S   S1118     1.0  0.78955  0.71912  0.30269  1.0000
  S   S1119     1.0  0.92717  0.71893  0.39447  1.0000
  C   C3823     1.0  0.96195  0.72249  0.41251  1.0000
  H   H6531     1.0  0.95769  0.63494  0.42024  1.0000
  H   H6532     1.0  0.99085  0.57146  0.37447  1.0000
  H   H6533     1.0  0.97215  0.63228  0.40283  1.0000
  C   C3824     1.0  0.80816  0.67930  0.13982  1.0000
  S   S1120     1.0  0.96560  0.72090  0.44220  1.0000
  Fe  Fe560     1.0  0.81221  0.69429  0.22670  1.0000
  S   S1121     1.0  0.83073  0.67440  0.23546  1.0000
  S   S1122     1.0  0.81155  0.71800  0.23045  1.0000
  Fe  Fe561     1.0  0.79896  0.67374  0.21442  1.0000
  S   S1123     1.0  0.81583  0.65170  0.22317  1.0000
  S   S1124     1.0  0.78177  0.67754  0.19890  1.0000
  Fe  Fe562     1.0  0.81156  0.66103  0.24499  1.0000
  S   S1125     1.0  0.80959  0.64619  0.26994  1.0000
  Fe  Fe563     1.0  0.83375  0.66666  0.21324  1.0000
  S   S1126     1.0  0.85762  0.65564  0.20096  1.0000
  S   S1127     1.0  0.79250  0.68156  0.23738  1.0000
  S   S1128     1.0  0.81742  0.68813  0.20317  1.0000
  Fe  Fe564     1.0  0.75025  0.62699  0.16367  1.0000
  H   H6534     1.0  0.86800  0.57279  0.39832  1.0000
  S   S1129     1.0  0.80635  0.70687  0.03681  1.0000
  Fe  Fe565     1.0  0.79008  0.72276  0.08910  1.0000
  C   C3825     1.0  0.93929  0.71964  0.43390  1.0000
  S   S1130     1.0  0.78003  0.71025  0.11342  1.0000
  Fe  Fe566     1.0  0.97592  0.48456  0.44367  1.0000
  H   H6535     1.0  0.81674  0.70675  0.38593  1.0000
  H   H6536     1.0  0.98003  0.64823  0.41564  1.0000
  H   H6537     1.0  0.75621  0.51774  0.12882  1.0000
  H   H6538     1.0  0.80737  0.68589  0.12767  1.0000
  S   S1131     1.0  0.81333  0.71137  0.07598  1.0000
  H   H6539     1.0  0.86872  0.72293  0.09216  1.0000
  H   H6540     1.0  0.83462  0.71639  0.14632  1.0000
  H   H6541     1.0  0.78858  0.69544  0.14945  1.0000
  C   C3826     1.0  0.87649  0.56286  0.40388  1.0000
  H   H6542     1.0  0.95943  0.60328  0.35911  1.0000
  H   H6543     1.0  0.94675  0.70072  0.46567  1.0000
  H   H6544     1.0  0.82770  0.69752  0.12185  1.0000
  C   C3827     1.0  0.94588  0.67492  0.40831  1.0000
  H   H6545     1.0  0.95571  0.50120  0.42109  1.0000
  C   C3828     1.0  0.76955  0.69697  0.11286  1.0000
  C   C3829     1.0  0.76862  0.68357  0.12492  1.0000
  C   C3830     1.0  0.76094  0.67245  0.12413  1.0000
  H   H6546     1.0  0.75860  0.54539  0.11225  1.0000
  H   H6547     1.0  0.96120  0.71940  0.47546  1.0000
  C   C3831     1.0  0.76235  0.69953  0.10031  1.0000
  H   H6548     1.0  0.77426  0.68150  0.13460  1.0000
  H   H6549     1.0  0.76113  0.66166  0.13294  1.0000
  H   H6550     1.0  0.77743  0.68669  0.03658  1.0000
  H   H6551     1.0  0.76276  0.71001  0.09116  1.0000
  C   C3832     1.0  0.80194  0.73149  0.27181  1.0000
  H   H6552     1.0  0.89812  0.57044  0.39684  1.0000
  H   H6553     1.0  0.80847  0.67083  0.42784  1.0000
  H   H6554     1.0  0.83789  0.69379  0.39884  1.0000
  H   H6555     1.0  0.94606  0.65258  0.43469  1.0000
  H   H6556     1.0  0.74732  0.65795  0.20520  1.0000
  H   H6557     1.0  0.93526  0.54983  0.39583  1.0000
  C   C3833     1.0  0.91557  0.48886  0.43439  1.0000
  H   H6558     1.0  0.93652  0.73056  0.13717  1.0000
  H   H6559     1.0  0.75822  0.72339  0.29718  1.0000
  C   C3834     1.0  0.77952  0.66180  0.19244  1.0000
  C   C3835     1.0  0.78407  0.64620  0.20018  1.0000
  H   H6560     1.0  0.93783  0.66676  0.41096  1.0000
  C   C3836     1.0  0.77328  0.63733  0.18305  1.0000
  C   C3837     1.0  0.76924  0.65290  0.17497  1.0000
  C   C3838     1.0  0.77223  0.66509  0.17973  1.0000
  H   H6561     1.0  0.94139  0.50180  0.40118  1.0000
  H   H6562     1.0  0.79467  0.70624  0.41807  1.0000
  H   H6563     1.0  0.76377  0.65554  0.16509  1.0000
  H   H6564     1.0  0.76875  0.67713  0.17363  1.0000
  C   C3839     1.0  0.79592  0.71908  0.28261  1.0000
  C   C3840     1.0  0.79480  0.70639  0.27739  1.0000
  C   C3841     1.0  0.79985  0.70595  0.26143  1.0000
  C   C3842     1.0  0.80558  0.71843  0.25052  1.0000
  C   C3843     1.0  0.80662  0.73123  0.25572  1.0000
  H   H6565     1.0  0.86085  0.68581  0.23774  1.0000
  H   H6566     1.0  0.79020  0.69674  0.28571  1.0000
  H   H6567     1.0  0.79924  0.69593  0.25763  1.0000
  C   C3844     1.0  0.87843  0.72888  0.34248  1.0000
  C   C3845     1.0  0.83432  0.49667  0.37415  1.0000
  S   S1132     1.0  0.88479  0.72765  0.42290  1.0000
  H   H6568     1.0  0.84619  0.72062  0.98962  1.0000
  H   H6569     1.0  0.94517  0.68520  0.43859  1.0000
  H   H6570     1.0  0.95681  0.67112  0.38412  1.0000
  C   C3846     1.0  0.95326  0.72221  0.40194  1.0000
  H   H6571     1.0  0.78834  0.70837  0.98989  1.0000
  H   H6572     1.0  0.91460  0.51957  0.46798  1.0000
  H   H6573     1.0  0.80792  0.69589  0.43052  1.0000
  C   C3847     1.0  0.78863  0.73192  0.01968  1.0000
  S   S1133     1.0  0.75495  0.62031  0.14031  1.0000
  C   C3848     1.0  0.89127  0.68901  0.18203  1.0000
  C   C3849     1.0  0.89646  0.67333  0.18917  1.0000
  C   C3850     1.0  0.88613  0.66307  0.19456  1.0000
  C   C3851     1.0  0.87041  0.66859  0.19332  1.0000
  C   C3852     1.0  0.86512  0.68429  0.18620  1.0000
  C   C3853     1.0  0.87566  0.69443  0.18025  1.0000
  H   H6574     1.0  0.90854  0.66909  0.19047  1.0000
  H   H6575     1.0  0.89028  0.65092  0.19994  1.0000
  H   H6576     1.0  0.85301  0.68852  0.18508  1.0000
  H   H6577     1.0  0.87170  0.70642  0.17441  1.0000
  H   H6578     1.0  0.97395  0.72391  0.40821  1.0000
  C   C3854     1.0  0.90968  0.73319  0.09274  1.0000
  H   H6579     1.0  0.94413  0.66951  0.45519  1.0000
  Fe  Fe567     1.0  0.89011  0.48484  0.41640  1.0000
  H   H6580     1.0  0.97668  0.65865  0.39695  1.0000
  C   C3855     1.0  0.96285  0.64122  0.40840  1.0000
  C   C3856     1.0  0.79642  0.71613  0.02136  1.0000
  C   C3857     1.0  0.79638  0.70767  0.01052  1.0000
  C   C3858     1.0  0.78857  0.71498  0.99806  1.0000
  C   C3859     1.0  0.80739  0.70143  0.41802  1.0000
  H   H6581     1.0  0.87774  0.67770  0.22435  1.0000
  H   H6582     1.0  0.80230  0.69542  0.01183  1.0000
  H   H6583     1.0  0.78212  0.68688  0.42283  1.0000
  H   H6584     1.0  0.80886  0.72380  0.42143  1.0000
  H   H6585     1.0  0.91769  0.70564  0.47191  1.0000
  H   H6586     1.0  0.74270  0.55954  0.12031  1.0000
  C   C3860     1.0  0.95021  0.68075  0.39029  1.0000
  H   H6587     1.0  0.79901  0.68224  0.16365  1.0000
  H   H6588     1.0  0.83014  0.70937  0.16744  1.0000
  C   C3861     1.0  0.80964  0.71432  0.13559  1.0000
  H   H6589     1.0  0.87619  0.56473  0.41558  1.0000
  C   C3862     1.0  0.84792  0.72334  0.38233  1.0000
  C   C3863     1.0  0.84175  0.72033  0.37114  1.0000
  C   C3864     1.0  0.93643  0.49809  0.41357  1.0000
  H   H6590     1.0  0.81339  0.66535  0.40954  1.0000
  H   H6591     1.0  0.85660  0.71435  0.38780  1.0000
  H   H6592     1.0  0.84574  0.70901  0.36799  1.0000
  H   H6593     1.0  0.82343  0.50150  0.36969  1.0000
  C   C3865     1.0  0.83019  0.73176  0.36423  1.0000
  C   C3866     1.0  0.82519  0.69466  0.15443  1.0000
  H   H6594     1.0  0.77965  0.63365  0.08088  1.0000
  H   H6595     1.0  0.81032  0.51195  0.39177  1.0000
  H   H6596     1.0  0.83087  0.70777  0.98471  1.0000
  H   H6597     1.0  0.82393  0.65717  0.04815  1.0000
  H   H6598     1.0  0.75690  0.51058  0.09726  1.0000
  H   H6599     1.0  0.83379  0.66719  0.42869  1.0000
  C   C3867     1.0  0.75759  0.51005  0.12070  1.0000
  C   C3868     1.0  0.85094  0.63264  0.29477  1.0000
  C   C3869     1.0  0.83688  0.62771  0.30251  1.0000
  C   C3870     1.0  0.82414  0.63214  0.29493  1.0000
  C   C3871     1.0  0.82533  0.64163  0.27967  1.0000
  C   C3872     1.0  0.83930  0.64677  0.27219  1.0000
  C   C3873     1.0  0.85202  0.64226  0.27965  1.0000
  H   H6600     1.0  0.83593  0.62023  0.31418  1.0000
  H   H6601     1.0  0.81341  0.62803  0.30084  1.0000
  H   H6602     1.0  0.84046  0.65403  0.26057  1.0000
  H   H6603     1.0  0.86283  0.64615  0.27361  1.0000
  C   C3874     1.0  0.92465  0.60125  0.35276  1.0000
  C   C3875     1.0  0.93728  0.59803  0.36013  1.0000
  H   H6604     1.0  0.83431  0.68697  0.42896  1.0000
  C   C3876     1.0  0.93714  0.61998  0.33164  1.0000
  C   C3877     1.0  0.92461  0.61225  0.33850  1.0000
  H   H6605     1.0  0.93740  0.58959  0.37117  1.0000
  H   H6606     1.0  0.91507  0.61460  0.33259  1.0000
  C   C3878     1.0  0.86224  0.65723  0.37614  1.0000
  C   C3879     1.0  0.86983  0.64429  0.38590  1.0000
  C   C3880     1.0  0.87770  0.64652  0.39618  1.0000
  C   C3881     1.0  0.87809  0.66169  0.39669  1.0000
  C   C3882     1.0  0.87088  0.67466  0.38662  1.0000
  C   C3883     1.0  0.86298  0.67241  0.37634  1.0000
  H   H6607     1.0  0.86939  0.63255  0.38578  1.0000
  H   H6608     1.0  0.88342  0.63644  0.40382  1.0000
  H   H6609     1.0  0.87138  0.68638  0.38678  1.0000
  H   H6610     1.0  0.85741  0.68240  0.36853  1.0000
  H   H6611     1.0  0.84710  0.69946  0.15563  1.0000
  H   H6612     1.0  0.83234  0.64253  0.06304  1.0000
  C   C3884     1.0  0.83624  0.53237  0.39845  1.0000
  C   C3885     1.0  0.82216  0.54255  0.39545  1.0000
  C   C3886     1.0  0.82185  0.55822  0.38759  1.0000
  C   C3887     1.0  0.83564  0.56400  0.38240  1.0000
  C   C3888     1.0  0.84990  0.55385  0.38518  1.0000
  C   C3889     1.0  0.85020  0.53801  0.39329  1.0000
  H   H6613     1.0  0.81134  0.53836  0.39937  1.0000
  H   H6614     1.0  0.81080  0.56594  0.38552  1.0000
  H   H6615     1.0  0.86054  0.55827  0.38111  1.0000
  H   H6616     1.0  0.86113  0.53016  0.39544  1.0000
  N   N273      1.0  0.95959  0.66753  0.41622  1.0000
  C   C3890     1.0  0.81074  0.69687  0.39177  1.0000
  C   C3891     1.0  0.96878  0.67982  0.41406  1.0000
  H   H6617     1.0  0.78419  0.62199  0.20173  1.0000
  C   C3892     1.0  0.95328  0.66119  0.43336  1.0000
  H   H6618     1.0  0.76402  0.52626  0.09890  1.0000
  S   S1134     1.0  0.99093  0.50079  0.44302  1.0000
  C   C3893     1.0  0.94249  0.67339  0.44290  1.0000
  C   C3894     1.0  0.80708  0.67531  0.41545  1.0000
  H   H6619     1.0  0.82041  0.67309  0.14050  1.0000
  H   H6620     1.0  0.93918  0.68604  0.38591  1.0000
  C   C3895     1.0  0.81579  0.68596  0.38003  1.0000
  H   H6621     1.0  0.89422  0.72262  0.21739  1.0000
  H   H6622     1.0  0.96291  0.65417  0.43949  1.0000
  H   H6623     1.0  0.91869  0.71765  0.42776  1.0000
  C   C3896     1.0  0.93770  0.72032  0.40745  1.0000
  S   S1135     1.0  0.88054  0.69663  0.46626  1.0000
  H   H6624     1.0  0.93708  0.62842  0.32056  1.0000
  H   H6625     1.0  0.88165  0.70358  0.20883  1.0000
  H   H6626     1.0  0.81908  0.71556  0.11052  1.0000
  H   H6627     1.0  0.82423  0.68548  0.16556  1.0000
  C   C3897     1.0  0.83464  0.70577  0.15597  1.0000
  Fe  Fe568     1.0  0.98284  0.62225  0.34522  1.0000
  N   N274      1.0  0.83090  0.67469  0.31373  1.0000
  C   C3898     1.0  0.82424  0.67415  0.30035  1.0000
  C   C3899     1.0  0.82632  0.66165  0.32734  1.0000
  C   C3900     1.0  0.84862  0.67183  0.30835  1.0000
  C   C3901     1.0  0.82411  0.69072  0.31750  1.0000
  C   C3902     1.0  0.83030  0.68409  0.28405  1.0000
  C   C3903     1.0  0.80849  0.66278  0.33379  1.0000
  C   C3904     1.0  0.85837  0.66604  0.32116  1.0000
  C   C3905     1.0  0.82777  0.69362  0.33197  1.0000
  H   H6628     1.0  0.82665  0.66189  0.29888  1.0000
  H   H6629     1.0  0.81118  0.67812  0.30288  1.0000
  H   H6630     1.0  0.83132  0.66064  0.33753  1.0000
  H   H6631     1.0  0.83138  0.65010  0.32387  1.0000
  H   H6632     1.0  0.85296  0.66266  0.30119  1.0000
  H   H6633     1.0  0.85228  0.68265  0.30056  1.0000
  H   H6634     1.0  0.82819  0.69995  0.30741  1.0000
  H   H6635     1.0  0.81110  0.69395  0.31880  1.0000
  H   H6636     1.0  0.82751  0.69676  0.28408  1.0000
  H   H6637     1.0  0.84308  0.68000  0.27953  1.0000
  H   H6638     1.0  0.82433  0.68271  0.27547  1.0000
  H   H6639     1.0  0.80260  0.67386  0.33786  1.0000
  H   H6640     1.0  0.80269  0.66146  0.32509  1.0000
  H   H6641     1.0  0.80672  0.65295  0.34415  1.0000
  H   H6642     1.0  0.85741  0.65395  0.32772  1.0000
  H   H6643     1.0  0.85526  0.67386  0.32947  1.0000
  H   H6644     1.0  0.87101  0.66540  0.31544  1.0000
  H   H6645     1.0  0.83847  0.69857  0.32859  1.0000
  H   H6646     1.0  0.82906  0.68320  0.34168  1.0000
  H   H6647     1.0  0.81771  0.70227  0.33712  1.0000
  N   N275      1.0  0.79321  0.66383  0.06912  1.0000
  C   C3906     1.0  0.79553  0.67684  0.07507  1.0000
  C   C3907     1.0  0.79182  0.67008  0.05219  1.0000
  C   C3908     1.0  0.80690  0.64995  0.06999  1.0000
  C   C3909     1.0  0.77854  0.65857  0.07923  1.0000
  C   C3910     1.0  0.79994  0.67205  0.09130  1.0000
  C   C3911     1.0  0.77659  0.68226  0.04944  1.0000
  H   H6648     1.0  0.80472  0.68278  0.06659  1.0000
  H   H6649     1.0  0.78468  0.68629  0.07597  1.0000
  H   H6650     1.0  0.79304  0.66045  0.04627  1.0000
  H   H6651     1.0  0.80173  0.67581  0.04527  1.0000
  H   H6652     1.0  0.80753  0.64427  0.08244  1.0000
  H   H6653     1.0  0.80525  0.64064  0.06513  1.0000
  H   H6654     1.0  0.77965  0.65397  0.09168  1.0000
  H   H6655     1.0  0.76820  0.66856  0.07993  1.0000
  H   H6656     1.0  0.81169  0.66409  0.09114  1.0000
  H   H6657     1.0  0.80051  0.68275  0.09463  1.0000
  H   H6658     1.0  0.79104  0.66668  0.10074  1.0000
  H   H6659     1.0  0.77532  0.70875  0.16829  1.0000
  H   H6660     1.0  0.96084  0.69113  0.41607  1.0000
  H   H6661     1.0  0.81201  0.69268  0.36894  1.0000
  H   H6662     1.0  0.81082  0.72570  0.13712  1.0000
  H   H6663     1.0  0.83315  0.71557  0.12066  1.0000
  H   H6664     1.0  0.78967  0.64355  0.20999  1.0000
  H   H6665     1.0  0.74403  0.67523  0.22087  1.0000
  H   H6666     1.0  0.92993  0.67456  0.44297  1.0000
  S   S1136     1.0  0.96486  0.62718  0.33067  1.0000
  H   H6667     1.0  0.81395  0.72274  0.40125  1.0000
  S   S1137     1.0  0.98957  0.58758  0.39861  1.0000
  C   C3912     1.0  0.83773  0.67807  0.42167  1.0000
  S   S1138     1.0  0.97600  0.62698  0.36947  1.0000
  H   H6668     1.0  0.85783  0.72531  0.25365  1.0000
  C   C3913     1.0  0.93073  0.71902  0.42343  1.0000
  C   C3914     1.0  0.92450  0.69495  0.47848  1.0000
  H   H6669     1.0  0.76100  0.64669  0.07839  1.0000
  H   H6670     1.0  0.79558  0.51181  0.40922  1.0000
  H   H6671     1.0  0.84490  0.71124  0.21227  1.0000
  C   C3915     1.0  0.85920  0.73089  0.09812  1.0000
  H   H6672     1.0  0.81641  0.48960  0.41447  1.0000
  C   C3916     1.0  0.95499  0.72112  0.42853  1.0000
  H   H6673     1.0  0.82620  0.66244  0.06512  1.0000
  N   N276      1.0  0.80907  0.70243  0.15105  1.0000
  H   H6674     1.0  0.81322  0.73122  0.98282  1.0000
  H   H6675     1.0  0.82757  0.71256  0.41394  1.0000
  H   H6676     1.0  0.88997  0.72884  0.33411  1.0000
  H   H6677     1.0  0.93847  0.68530  0.41311  1.0000
  H   H6678     1.0  0.74992  0.50149  0.12605  1.0000
  C   C3917     1.0  0.97049  0.65419  0.40910  1.0000
  H   H6679     1.0  0.79224  0.50579  0.39358  1.0000
  H   H6680     1.0  0.74324  0.73105  0.28636  1.0000
  H   H6681     1.0  0.75798  0.73293  0.31952  1.0000
  C   C3918     1.0  0.85649  0.71429  0.25156  1.0000
  S   S1139     1.0  0.95012  0.48830  0.45464  1.0000
  H   H6682     1.0  0.80131  0.67005  0.14262  1.0000
  H   H6683     1.0  0.93146  0.52628  0.47815  1.0000
  H   H6684     1.0  0.92577  0.68543  0.47245  1.0000
  H   H6685     1.0  0.80514  0.72058  0.16401  1.0000
  S   S1140     1.0  0.76852  0.62184  0.17827  1.0000
  H   H6686     1.0  0.83653  0.67446  0.39980  1.0000
  H   H6687     1.0  0.80044  0.70259  0.17590  1.0000
  H   H6688     1.0  0.82876  0.68207  0.37684  1.0000
  H   H6689     1.0  0.75332  0.52255  0.07300  1.0000
  C   C3919     1.0  0.94977  0.60580  0.35331  1.0000
  H   H6690     1.0  0.87996  0.72093  0.35397  1.0000
  H   H6691     1.0  0.78678  0.68104  0.40418  1.0000
  Fe  Fe569     1.0  0.85551  0.49538  0.41806  1.0000
  H   H6692     1.0  0.86031  0.68777  0.21742  1.0000
  C   C3920     1.0  0.78104  0.73087  0.99624  1.0000
  H   H6693     1.0  0.77698  0.64590  0.06201  1.0000
  S   S1141     1.0  0.87128  0.50109  0.42982  1.0000
  C   C3921     1.0  0.84985  0.71763  0.23677  1.0000
  C   C3922     1.0  0.96091  0.72876  0.13657  1.0000
  H   H6694     1.0  0.95389  0.64576  0.40109  1.0000
  C   C3923     1.0  0.88510  0.72240  0.47403  1.0000
  H   H6695     1.0  0.78549  0.66673  0.42218  1.0000
  C   C3924     1.0  0.94971  0.61679  0.33905  1.0000
  C   C3925     1.0  0.81502  0.71582  0.41321  1.0000
  Fe  Fe570     1.0  0.80313  0.72159  0.05445  1.0000
  C   C3926     1.0  0.78091  0.63402  0.19551  1.0000
  C   C3927     1.0  0.92211  0.49329  0.41835  1.0000
  H   H6696     1.0  0.74853  0.69075  0.09015  1.0000
  N   N277      1.0  0.81427  0.68947  0.40785  1.0000
  H   H6697     1.0  0.96223  0.71715  0.14415  1.0000
  H   H6698     1.0  0.95696  0.69012  0.38692  1.0000
  H   H6699     1.0  0.79800  0.70232  0.39257  1.0000
  C   C3928     1.0  0.98094  0.67564  0.42441  1.0000
  C   C3929     1.0  0.85239  0.72005  0.20879  1.0000
  H   H6700     1.0  0.84230  0.70912  0.23879  1.0000
  H   H6701     1.0  0.76607  0.67702  0.05413  1.0000
  H   H6702     1.0  0.76992  0.50315  0.11926  1.0000
  H   H6703     1.0  0.79839  0.71693  0.13169  1.0000
  C   C3930     1.0  0.88303  0.70693  0.47906  1.0000
  S   S1142     1.0  0.89629  0.73159  0.13667  1.0000
  C   C3931     1.0  0.80060  0.69001  0.15166  1.0000
  H   H6704     1.0  0.97529  0.68269  0.40167  1.0000
  C   C3932     1.0  0.83185  0.68422  0.40617  1.0000
  H   H6705     1.0  0.94717  0.67311  0.35226  1.0000
  N   N278      1.0  0.85696  0.61161  0.24409  1.0000
  C   C3933     1.0  0.84028  0.61837  0.25162  1.0000
  C   C3934     1.0  0.86773  0.61954  0.24780  1.0000
  C   C3935     1.0  0.86140  0.59419  0.25046  1.0000
  C   C3936     1.0  0.85829  0.61441  0.22665  1.0000
  C   C3937     1.0  0.82739  0.61105  0.25015  1.0000
  C   C3938     1.0  0.86835  0.63636  0.23813  1.0000
  C   C3939     1.0  0.85908  0.58903  0.26853  1.0000
  C   C3940     1.0  0.87493  0.60915  0.21677  1.0000
  H   H6706     1.0  0.83905  0.61749  0.26436  1.0000
  H   H6707     1.0  0.83698  0.63116  0.24658  1.0000
  H   H6708     1.0  0.88005  0.61254  0.24640  1.0000
  H   H6709     1.0  0.86429  0.62025  0.26041  1.0000
  H   H6710     1.0  0.85481  0.58774  0.24662  1.0000
  H   H6711     1.0  0.87402  0.58952  0.24549  1.0000
  H   H6712     1.0  0.85068  0.60806  0.22414  1.0000
  H   H6713     1.0  0.85348  0.62693  0.22163  1.0000
  H   H6714     1.0  0.81587  0.61664  0.25680  1.0000
  H   H6715     1.0  0.82621  0.61343  0.23781  1.0000
  H   H6716     1.0  0.82921  0.59829  0.25534  1.0000
  H   H6717     1.0  0.85650  0.64392  0.23774  1.0000
  H   H6718     1.0  0.87445  0.64191  0.24350  1.0000
  H   H6719     1.0  0.87515  0.63626  0.22591  1.0000
  H   H6720     1.0  0.86358  0.57614  0.27178  1.0000
  H   H6721     1.0  0.84647  0.59144  0.27452  1.0000
  H   H6722     1.0  0.86572  0.59464  0.27322  1.0000
  H   H6723     1.0  0.87636  0.59739  0.21442  1.0000
  H   H6724     1.0  0.88457  0.60864  0.22230  1.0000
  H   H6725     1.0  0.87665  0.61775  0.20535  1.0000
  N   N279      1.0  0.90430  0.54663  0.39335  1.0000
  C   C3941     1.0  0.91936  0.54909  0.38147  1.0000
  C   C3942     1.0  0.89795  0.53544  0.38843  1.0000
  C   C3943     1.0  0.90839  0.53943  0.40927  1.0000
  C   C3944     1.0  0.89311  0.56243  0.39324  1.0000
  C   C3945     1.0  0.92984  0.55732  0.38592  1.0000
  C   C3946     1.0  0.89485  0.54055  0.37164  1.0000
  C   C3947     1.0  0.89673  0.53056  0.42204  1.0000
  S   S1143     1.0  0.82182  0.72660  0.35154  1.0000
  H   H6726     1.0  0.92691  0.53762  0.37910  1.0000
  H   H6727     1.0  0.91680  0.55621  0.36994  1.0000
  H   H6728     1.0  0.88687  0.53292  0.39651  1.0000
  H   H6729     1.0  0.90634  0.52383  0.38913  1.0000
  H   H6730     1.0  0.91977  0.53061  0.40805  1.0000
  H   H6731     1.0  0.91020  0.54853  0.41430  1.0000
  H   H6732     1.0  0.89170  0.56870  0.38114  1.0000
  H   H6733     1.0  0.85080  0.67496  0.41883  1.0000
  H   H6734     1.0  0.93967  0.55960  0.37568  1.0000
  H   H6735     1.0  0.92342  0.56884  0.38873  1.0000
  H   H6736     1.0  0.88735  0.55249  0.36933  1.0000
  H   H6737     1.0  0.90600  0.53992  0.36260  1.0000
  H   H6738     1.0  0.88855  0.53233  0.37011  1.0000
  H   H6739     1.0  0.90139  0.52607  0.43296  1.0000
  H   H6740     1.0  0.89572  0.52010  0.41869  1.0000
  H   H6741     1.0  0.88495  0.53801  0.42518  1.0000
  H   H6742     1.0  0.87182  0.55239  0.40547  1.0000
  C   C3948     1.0  0.77399  0.64541  0.07478  1.0000
  N   N280      1.0  0.92389  0.65591  0.36037  1.0000
  C   C3949     1.0  0.93435  0.64337  0.37011  1.0000
  C   C3950     1.0  0.93389  0.66067  0.34426  1.0000
  C   C3951     1.0  0.91142  0.64857  0.35893  1.0000
  C   C3952     1.0  0.91661  0.66942  0.36866  1.0000
  C   C3953     1.0  0.92596  0.63526  0.38638  1.0000
  C   C3954     1.0  0.94910  0.66540  0.34400  1.0000
  C   C3955     1.0  0.90010  0.65874  0.34829  1.0000
  C   C3956     1.0  0.91233  0.68599  0.35835  1.0000
  H   H6743     1.0  0.94116  0.63397  0.36360  1.0000
  H   H6744     1.0  0.94327  0.64828  0.37240  1.0000
  H   H6745     1.0  0.92721  0.67055  0.33671  1.0000
  H   H6746     1.0  0.93743  0.65093  0.33789  1.0000
  H   H6747     1.0  0.91699  0.63753  0.35458  1.0000
  H   H6748     1.0  0.90372  0.64504  0.37059  1.0000
  H   H6749     1.0  0.90574  0.66722  0.37742  1.0000
  H   H6750     1.0  0.92445  0.67042  0.37573  1.0000
  H   H6751     1.0  0.91958  0.62690  0.38528  1.0000
  H   H6752     1.0  0.93491  0.62821  0.39332  1.0000
  H   H6753     1.0  0.91773  0.64383  0.39318  1.0000
  H   H6754     1.0  0.95839  0.65482  0.34688  1.0000
  H   H6755     1.0  0.95377  0.67173  0.33195  1.0000
  C   C3957     1.0  0.80899  0.48843  0.40706  1.0000
  H   H6756     1.0  0.89210  0.66856  0.35345  1.0000
  H   H6757     1.0  0.89238  0.65143  0.34761  1.0000
  H   H6758     1.0  0.90624  0.66296  0.33606  1.0000
  H   H6759     1.0  0.92299  0.69051  0.35155  1.0000
  H   H6760     1.0  0.90547  0.69422  0.36614  1.0000
  H   H6761     1.0  0.90499  0.68659  0.35020  1.0000
  N   N281      1.0  0.86147  0.71810  0.22117  1.0000
  H   H6762     1.0  0.97523  0.67474  0.43704  1.0000
  C   C3958     1.0  0.87384  0.70305  0.22080  1.0000
  H   H6763     1.0  0.86057  0.71784  0.19758  1.0000
  C   C3959     1.0  0.79991  0.71075  0.16423  1.0000
  H   H6764     1.0  0.81036  0.67560  0.38432  1.0000
  C   C3960     1.0  0.86759  0.68786  0.22539  1.0000
  H   H6765     1.0  0.83278  0.68821  0.14533  1.0000
  C   C3961     1.0  0.80149  0.50534  0.39964  1.0000
  C   C3962     1.0  0.75464  0.51944  0.10445  1.0000
  H   H6766     1.0  0.98742  0.68525  0.42105  1.0000
  H   H6767     1.0  0.88191  0.70129  0.22865  1.0000
  H   H6768     1.0  0.90040  0.73218  0.10363  1.0000
  S   S1144     1.0  0.74423  0.66115  0.11035  1.0000
  S   S1145     1.0  0.77914  0.73079  0.06802  1.0000
  H   H6769     1.0  0.88508  0.72849  0.46195  1.0000
  C   C3963     1.0  0.94467  0.49749  0.42481  1.0000
  H   H6770     1.0  0.95867  0.72327  0.38956  1.0000
  H   H6771     1.0  0.74515  0.62494  0.21423  1.0000
  H   H6772     1.0  0.86773  0.70550  0.25126  1.0000
  H   H6773     1.0  0.84120  0.72902  0.23677  1.0000
  H   H6774     1.0  0.84385  0.49379  0.36395  1.0000
  H   H6775     1.0  0.93367  0.71889  0.44616  1.0000
  H   H6776     1.0  0.74489  0.73168  0.12965  1.0000
  H   H6777     1.0  0.90431  0.48556  0.43820  1.0000
  C   C3964     1.0  0.78233  0.71797  0.16429  1.0000
  H   H6778     1.0  0.97298  0.69352  0.47044  1.0000
  H   H6779     1.0  0.74796  0.54642  0.08335  1.0000
  H   H6780     1.0  0.87128  0.72388  0.33772  1.0000
  H   H6781     1.0  0.74683  0.56058  0.09979  1.0000
  C   C3965     1.0  0.86918  0.73196  0.21690  1.0000
  H   H6782     1.0  0.88193  0.72491  0.23644  1.0000
  C   C3966     1.0  0.92391  0.48805  0.44560  1.0000
  H   H6783     1.0  0.93656  0.72771  0.46822  1.0000
  H   H6784     1.0  0.94458  0.50860  0.47475  1.0000
  H   H6785     1.0  0.78042  0.72524  0.15266  1.0000
  H   H6786     1.0  0.77761  0.72571  0.17289  1.0000
  H   H6787     1.0  0.90037  0.50767  0.47427  1.0000
  C   C3967     1.0  0.90735  0.51331  0.47856  1.0000
  H   H6788     1.0  0.95738  0.52675  0.47991  1.0000
  C   C3968     1.0  0.84418  0.73253  0.98197  1.0000
  H   H6789     1.0  0.92099  0.72619  0.09590  1.0000
  H   H6790     1.0  0.90736  0.72771  0.08430  1.0000
  H   H6791     1.0  0.93338  0.70845  0.57543  1.0000
  N   N282      1.0  0.82900  0.71041  0.66464  1.0000
  H   H6792     1.0  0.85281  0.69550  0.63198  1.0000
  H   H6793     1.0  0.91950  0.72384  0.48274  1.0000
  C   C3969     1.0  0.85339  0.73260  0.73818  1.0000
  H   H6794     1.0  0.97663  0.68076  0.55397  1.0000
  C   C3970     1.0  0.91775  0.61983  0.80847  1.0000
  H   H6795     1.0  0.78130  0.67878  0.80376  1.0000
  H   H6796     1.0  0.98396  0.70037  0.64030  1.0000
  S   S1146     1.0  0.89058  0.51217  0.56558  1.0000
  H   H6797     1.0  0.85354  0.70717  0.65179  1.0000
  C   C3971     1.0  0.95405  0.69417  0.56362  1.0000
  S   S1147     1.0  0.96378  0.49528  0.60292  1.0000
  H   H6798     1.0  0.96994  0.68438  0.49113  1.0000
  H   H6799     1.0  0.81617  0.67956  0.78855  1.0000
  H   H6800     1.0  0.92790  0.64575  0.55246  1.0000
  Fe  Fe571     1.0  0.88523  0.69458  0.56816  1.0000
  Fe  Fe572     1.0  0.88207  0.56053  0.62774  1.0000
  S   S1148     1.0  0.88337  0.56562  0.65038  1.0000
  S   S1149     1.0  0.87531  0.53816  0.62792  1.0000
  Fe  Fe573     1.0  0.89136  0.59074  0.60803  1.0000
  S   S1150     1.0  0.89318  0.59837  0.62872  1.0000
  S   S1151     1.0  0.89767  0.60569  0.58387  1.0000
  Fe  Fe574     1.0  0.90555  0.57355  0.63624  1.0000
  S   S1152     1.0  0.92799  0.56766  0.64504  1.0000
  Fe  Fe575     1.0  0.87091  0.59022  0.64110  1.0000
  S   S1153     1.0  0.85216  0.60772  0.65364  1.0000
  S   S1154     1.0  0.90540  0.56627  0.61455  1.0000
  S   S1155     1.0  0.86788  0.58460  0.61952  1.0000
  S   S1156     1.0  0.87020  0.67766  0.58292  1.0000
  C   C3972     1.0  0.80113  0.67671  0.86082  1.0000
  C   C3973     1.0  0.93154  0.70675  0.82418  1.0000
  C   C3974     1.0  0.77704  0.70321  0.88433  1.0000
  H   H6801     1.0  0.90004  0.51381  0.53020  1.0000
  S   S1157     1.0  0.78413  0.70591  0.95578  1.0000
  S   S1158     1.0  0.82358  0.70510  0.92270  1.0000
  Fe  Fe576     1.0  0.76481  0.71224  0.94242  1.0000
  H   H6802     1.0  0.78377  0.69496  0.74818  1.0000
  C   C3975     1.0  0.78121  0.68548  0.77356  1.0000
  H   H6803     1.0  0.75199  0.69589  0.79124  1.0000
  C   C3976     1.0  0.80606  0.67385  0.79436  1.0000
  H   H6804     1.0  0.84663  0.70237  0.96906  1.0000
  C   C3977     1.0  0.84154  0.70943  0.64977  1.0000
  H   H6805     1.0  0.94499  0.52665  0.49908  1.0000
  C   C3978     1.0  0.97066  0.70386  0.57990  1.0000
  H   H6806     1.0  0.89884  0.52177  0.48529  1.0000
  Fe  Fe577     1.0  0.89298  0.71863  0.53804  1.0000
  Fe  Fe578     1.0  0.75317  0.64729  0.88832  1.0000
  S   S1159     1.0  0.77145  0.65287  0.89722  1.0000
  H   H6807     1.0  0.89169  0.62892  0.79210  1.0000
  S   S1160     1.0  0.76056  0.63102  0.87163  1.0000
  H   H6808     1.0  0.84096  0.68540  0.64896  1.0000
  S   S1161     1.0  0.85328  0.68272  0.81583  1.0000
  C   C3979     1.0  0.82997  0.69522  0.67689  1.0000
  S   S1162     1.0  0.87266  0.69999  0.83928  1.0000
  Fe  Fe579     1.0  0.84954  0.65649  0.74578  1.0000
  S   S1163     1.0  0.82418  0.66443  0.75642  1.0000
  S   S1164     1.0  0.86632  0.66967  0.74782  1.0000
  Fe  Fe580     1.0  0.84332  0.63120  0.73333  1.0000
  S   S1165     1.0  0.81719  0.63714  0.74323  1.0000
  S   S1166     1.0  0.85617  0.61070  0.72159  1.0000
  Fe  Fe581     1.0  0.82004  0.66218  0.73403  1.0000
  H   H6809     1.0  0.92089  0.62304  0.59709  1.0000
  Fe  Fe582     1.0  0.82367  0.63891  0.76486  1.0000
  S   S1167     1.0  0.81450  0.62849  0.79056  1.0000
  S   S1168     1.0  0.84559  0.65615  0.72250  1.0000
  S   S1169     1.0  0.84968  0.63101  0.75575  1.0000
  H   H6810     1.0  0.76726  0.68584  0.75737  1.0000
  C   C3980     1.0  0.85583  0.68012  0.79666  1.0000
  C   C3981     1.0  0.86508  0.68850  0.78382  1.0000
  C   C3982     1.0  0.86826  0.68523  0.76886  1.0000
  C   C3983     1.0  0.86176  0.67395  0.76654  1.0000
  C   C3984     1.0  0.85201  0.66597  0.77924  1.0000
  C   C3985     1.0  0.84915  0.66898  0.79430  1.0000
  S   S1170     1.0  0.89035  0.73193  0.51344  1.0000
  H   H6811     1.0  0.84708  0.65710  0.77759  1.0000
  H   H6812     1.0  0.84199  0.66243  0.80417  1.0000
  C   C3986     1.0  0.76709  0.64866  0.82030  1.0000
  C   C3987     1.0  0.77973  0.64010  0.82729  1.0000
  C   C3988     1.0  0.79419  0.63401  0.81801  1.0000
  C   C3989     1.0  0.79623  0.63666  0.80164  1.0000
  C   C3990     1.0  0.78362  0.64529  0.79460  1.0000
  C   C3991     1.0  0.76907  0.65118  0.80394  1.0000
  H   H6813     1.0  0.77843  0.63820  0.83983  1.0000
  H   H6814     1.0  0.80390  0.62732  0.82352  1.0000
  H   H6815     1.0  0.78502  0.64713  0.78201  1.0000
  H   H6816     1.0  0.75923  0.65756  0.79851  1.0000
  N   N283      1.0  0.83193  0.72558  0.96290  1.0000
  H   H6817     1.0  0.85994  0.72232  0.73283  1.0000
  C   C3992     1.0  0.94791  0.70196  0.81932  1.0000
  H   H6818     1.0  0.98753  0.56634  0.56374  1.0000
  C   C3993     1.0  0.93611  0.49191  0.50643  1.0000
  C   C3994     1.0  0.84409  0.70862  0.89390  1.0000
  N   N284      1.0  0.76074  0.59572  0.84089  1.0000
  H   H6819     1.0  0.77060  0.58479  0.82084  1.0000
  H   H6820     1.0  0.85150  0.69783  0.89885  1.0000
  C   C3995     1.0  0.75292  0.68639  0.93101  1.0000
  H   H6821     1.0  0.80930  0.73390  0.90385  1.0000
  H   H6822     1.0  0.80657  0.72978  0.96703  1.0000
  C   C3996     1.0  0.76396  0.66537  0.91061  1.0000
  C   C3997     1.0  0.77436  0.66865  0.91758  1.0000
  C   C3998     1.0  0.76892  0.67933  0.92754  1.0000
  C   C3999     1.0  0.80303  0.72860  0.71040  1.0000
  H   H6823     1.0  0.79555  0.71611  0.87784  1.0000
  H   H6824     1.0  0.78667  0.66288  0.91527  1.0000
  H   H6825     1.0  0.77707  0.68189  0.93277  1.0000
  H   H6826     1.0  0.92727  0.66398  0.57234  1.0000
  H   H6827     1.0  0.96670  0.63679  0.65371  1.0000
  H   H6828     1.0  0.86147  0.61517  0.59130  1.0000
  H   H6829     1.0  0.92189  0.57515  0.68524  1.0000
  H   H6830     1.0  0.93366  0.60526  0.59282  1.0000
  S   S1171     1.0  0.85239  0.72590  0.81470  1.0000
  Fe  Fe583     1.0  0.91818  0.70018  0.55634  1.0000
  H   H6831     1.0  0.92620  0.66341  0.59921  1.0000
  C   C4000     1.0  0.85225  0.60811  0.67300  1.0000
  C   C4001     1.0  0.85970  0.59500  0.68272  1.0000
  C   C4002     1.0  0.86023  0.59579  0.69784  1.0000
  C   C4003     1.0  0.85335  0.60969  0.70339  1.0000
  C   C4004     1.0  0.84551  0.62270  0.69384  1.0000
  C   C4005     1.0  0.84493  0.62188  0.67871  1.0000
  H   H6832     1.0  0.86507  0.58425  0.67856  1.0000
  H   H6833     1.0  0.86617  0.58563  0.70522  1.0000
  H   H6834     1.0  0.84014  0.63345  0.69802  1.0000
  H   H6835     1.0  0.83899  0.63201  0.67132  1.0000
  C   C4006     1.0  0.93852  0.58266  0.64013  1.0000
  C   C4007     1.0  0.95345  0.57917  0.64348  1.0000
  H   H6836     1.0  0.90965  0.56746  0.67830  1.0000
  C   C4008     1.0  0.94121  0.60955  0.62837  1.0000
  C   C4009     1.0  0.93238  0.59797  0.63275  1.0000
  H   H6837     1.0  0.95804  0.56751  0.64973  1.0000
  H   H6838     1.0  0.93619  0.62140  0.62298  1.0000
  H   H6839     1.0  0.92085  0.60102  0.63039  1.0000
  C   C4010     1.0  0.89096  0.62577  0.58381  1.0000
  C   C4011     1.0  0.89493  0.63696  0.57009  1.0000
  C   C4012     1.0  0.88913  0.65305  0.56987  1.0000
  C   C4013     1.0  0.87921  0.65789  0.58332  1.0000
  C   C4014     1.0  0.87548  0.64672  0.59706  1.0000
  C   C4015     1.0  0.88134  0.63070  0.59731  1.0000
  H   H6840     1.0  0.90225  0.63317  0.55958  1.0000
  H   H6841     1.0  0.89183  0.66166  0.55915  1.0000
  H   H6842     1.0  0.86771  0.65043  0.60745  1.0000
  H   H6843     1.0  0.87789  0.62220  0.60781  1.0000
  C   C4016     1.0  0.93069  0.61814  0.58810  1.0000
  H   H6844     1.0  0.83809  0.71528  0.72166  1.0000
  C   C4017     1.0  0.88726  0.72221  0.50044  1.0000
  H   H6845     1.0  0.95285  0.69107  0.81531  1.0000
  H   H6846     1.0  0.81326  0.61167  0.57457  1.0000
  C   C4018     1.0  0.94031  0.63916  0.55070  1.0000
  H   H6847     1.0  0.97098  0.51850  0.61451  1.0000
  H   H6848     1.0  0.74714  0.60876  0.85872  1.0000
  H   H6849     1.0  0.94831  0.62259  0.59675  1.0000
  H   H6850     1.0  0.85593  0.59790  0.57053  1.0000
  H   H6851     1.0  0.95986  0.65637  0.61600  1.0000
  N   N285      1.0  0.90241  0.64872  0.80602  1.0000
  N   N286      1.0  0.92711  0.50596  0.49666  1.0000
  C   C4019     1.0  0.93251  0.52199  0.62636  1.0000
  C   C4020     1.0  0.97036  0.68859  0.56186  1.0000
  C   C4021     1.0  0.83370  0.72582  0.94577  1.0000
  H   H6852     1.0  0.97092  0.66786  0.59904  1.0000
  C   C4022     1.0  0.85907  0.60877  0.57092  1.0000
  C   C4023     1.0  0.84211  0.64186  0.58387  1.0000
  H   H6853     1.0  0.91686  0.67517  0.80154  1.0000
  C   C4024     1.0  0.88634  0.51917  0.58305  1.0000
  C   C4025     1.0  0.88969  0.53364  0.58227  1.0000
  C   C4026     1.0  0.88620  0.53970  0.59588  1.0000
  C   C4027     1.0  0.87895  0.53151  0.61034  1.0000
  C   C4028     1.0  0.87528  0.51721  0.61105  1.0000
  C   C4029     1.0  0.87917  0.51094  0.59752  1.0000
  H   H6854     1.0  0.89512  0.54013  0.57109  1.0000
  H   H6855     1.0  0.88909  0.55071  0.59516  1.0000
  H   H6856     1.0  0.86948  0.51089  0.62212  1.0000
  H   H6857     1.0  0.87631  0.49992  0.59822  1.0000
  H   H6858     1.0  0.91926  0.64722  0.57728  1.0000
  H   H6859     1.0  0.82883  0.69621  0.95655  1.0000
  H   H6860     1.0  0.91949  0.72408  0.79429  1.0000
  N   N287      1.0  0.91503  0.50165  0.63425  1.0000
  H   H6861     1.0  0.81056  0.61086  0.59500  1.0000
  H   H6862     1.0  0.91763  0.69153  0.49057  1.0000
  H   H6863     1.0  0.84912  0.60179  0.59540  1.0000
  H   H6864     1.0  0.82307  0.69745  0.68859  1.0000
  S   S1172     1.0  0.74867  0.65629  0.83159  1.0000
  H   H6865     1.0  0.89127  0.51598  0.51431  1.0000
  C   C4030     1.0  0.75640  0.70261  0.79701  1.0000
  H   H6866     1.0  0.89057  0.67287  0.79866  1.0000
  C   C4031     1.0  0.75560  0.58116  0.85151  1.0000
  C   C4032     1.0  0.76202  0.59551  0.82398  1.0000
  H   H6867     1.0  0.94261  0.49919  0.58289  1.0000
  H   H6868     1.0  0.92764  0.50348  0.60989  1.0000
  H   H6869     1.0  0.83800  0.63802  0.61651  1.0000
  C   C4033     1.0  0.85121  0.64652  0.56684  1.0000
  H   H6870     1.0  0.92672  0.66494  0.78577  1.0000
  H   H6871     1.0  0.76632  0.60913  0.79990  1.0000
  H   H6872     1.0  0.98106  0.64483  0.62708  1.0000
  C   C4034     1.0  0.85193  0.61286  0.58731  1.0000
  Fe  Fe584     1.0  0.89412  0.70760  0.82257  1.0000
  H   H6873     1.0  0.90202  0.57408  0.69622  1.0000
  H   H6874     1.0  0.80813  0.66701  0.80611  1.0000
  H   H6875     1.0  0.84471  0.64689  0.55799  1.0000
  H   H6876     1.0  0.97347  0.71825  0.77821  1.0000
  C   C4035     1.0  0.84871  0.71614  0.87809  1.0000
  C   C4036     1.0  0.97342  0.56213  0.61368  1.0000
  C   C4037     1.0  0.96314  0.56324  0.59088  1.0000
  C   C4038     1.0  0.93203  0.72410  0.48115  1.0000
  Fe  Fe585     1.0  0.89576  0.48619  0.56569  1.0000
  H   H6877     1.0  0.96596  0.68879  0.61364  1.0000
  C   C4039     1.0  0.94749  0.55856  0.60003  1.0000
  C   C4040     1.0  0.77427  0.69343  0.75886  1.0000
  C   C4041     1.0  0.79849  0.71681  0.67343  1.0000
  H   H6878     1.0  0.93246  0.53342  0.62866  1.0000
  H   H6879     1.0  0.96321  0.55822  0.62235  1.0000
  C   C4042     1.0  0.81739  0.72900  0.71308  1.0000
  H   H6880     1.0  0.97870  0.64508  0.58569  1.0000
  C   C4043     1.0  0.98326  0.72739  0.53800  1.0000
  H   H6881     1.0  0.81672  0.71620  0.85016  1.0000
  C   C4044     1.0  0.74792  0.67239  0.91411  1.0000
  H   H6882     1.0  0.88913  0.51684  0.65757  1.0000
  C   C4045     1.0  0.82983  0.71495  0.90322  1.0000
  C   C4046     1.0  0.81326  0.71457  0.66007  1.0000
  C   C4047     1.0  0.97156  0.69536  0.48242  1.0000
  H   H6883     1.0  0.76723  0.71704  0.77617  1.0000
  H   H6884     1.0  0.97752  0.70860  0.53090  1.0000
  H   H6885     1.0  0.94830  0.54590  0.60120  1.0000
  H   H6886     1.0  0.93830  0.56501  0.59318  1.0000
  H   H6887     1.0  0.94326  0.56178  0.61166  1.0000
  H   H6888     1.0  0.95431  0.65341  0.64416  1.0000
  H   H6889     1.0  0.94785  0.68499  0.48215  1.0000
  S   S1173     1.0  0.87389  0.71983  0.55997  1.0000
  H   H6890     1.0  0.88788  0.62782  0.70243  1.0000
  H   H6891     1.0  0.90912  0.62282  0.70083  1.0000
  H   H6892     1.0  0.98281  0.55897  0.63448  1.0000
  H   H6893     1.0  0.88524  0.70062  0.51749  1.0000
  H   H6894     1.0  0.94282  0.60723  0.67616  1.0000
  H   H6895     1.0  0.89616  0.61430  0.71787  1.0000
  H   H6896     1.0  0.94205  0.49559  0.51362  1.0000
  C   C4048     1.0  0.82254  0.70067  0.72268  1.0000
  H   H6897     1.0  0.95338  0.71736  0.78544  1.0000
  H   H6898     1.0  0.93168  0.59481  0.69054  1.0000
  N   N288      1.0  0.80705  0.69168  0.87855  1.0000
  C   C4049     1.0  0.80776  0.68959  0.89548  1.0000
  C   C4050     1.0  0.79369  0.70550  0.87524  1.0000
  C   C4051     1.0  0.82256  0.69514  0.86840  1.0000
  C   C4052     1.0  0.80455  0.67663  0.87660  1.0000
  C   C4053     1.0  0.82149  0.67683  0.90121  1.0000
  C   C4054     1.0  0.82030  0.72890  0.89677  1.0000
  C   C4055     1.0  0.82288  0.70367  0.85109  1.0000
  H   H6899     1.0  0.91003  0.49295  0.49738  1.0000
  H   H6900     1.0  0.80846  0.70081  0.89775  1.0000
  H   H6901     1.0  0.79688  0.68657  0.90363  1.0000
  H   H6902     1.0  0.79324  0.70895  0.86264  1.0000
  C   C4056     1.0  0.83405  0.70861  0.97176  1.0000
  H   H6903     1.0  0.82681  0.70273  0.87338  1.0000
  H   H6904     1.0  0.83186  0.68415  0.86831  1.0000
  H   H6905     1.0  0.81510  0.66700  0.87801  1.0000
  H   H6906     1.0  0.79509  0.67221  0.88622  1.0000
  H   H6907     1.0  0.82069  0.67668  0.91371  1.0000
  H   H6908     1.0  0.82082  0.66491  0.90089  1.0000
  H   H6909     1.0  0.83314  0.67929  0.89460  1.0000
  H   H6910     1.0  0.92755  0.61226  0.80166  1.0000
  C   C4057     1.0  0.95164  0.72531  0.82470  1.0000
  H   H6911     1.0  0.75945  0.62106  0.81417  1.0000
  C   C4058     1.0  0.79493  0.71837  0.75891  1.0000
  H   H6912     1.0  0.96270  0.72744  0.51444  1.0000
  H   H6913     1.0  0.95316  0.68515  0.51357  1.0000
  H   H6914     1.0  0.91214  0.49088  0.60084  1.0000
  H   H6915     1.0  0.89914  0.48583  0.64618  1.0000
  C   C4059     1.0  0.79017  0.68580  0.79653  1.0000
  H   H6916     1.0  0.97452  0.58752  0.64024  1.0000
  H   H6917     1.0  0.83198  0.70096  0.63456  1.0000
  C   C4060     1.0  0.82696  0.71506  0.71956  1.0000
  Fe  Fe586     1.0  0.74363  0.64884  0.85825  1.0000
  C   C4061     1.0  0.95794  0.71127  0.81947  1.0000
  H   H6918     1.0  0.88132  0.66117  0.83237  1.0000
  C   C4062     1.0  0.82987  0.72372  0.67110  1.0000
  H   H6919     1.0  0.87694  0.65332  0.81296  1.0000
  H   H6920     1.0  0.94266  0.51332  0.63046  1.0000
  H   H6921     1.0  0.90827  0.65888  0.59899  1.0000
  C   C4063     1.0  0.80845  0.70020  0.71947  1.0000
  H   H6922     1.0  0.74677  0.71291  0.79934  1.0000
  C   C4064     1.0  0.92815  0.48840  0.63929  1.0000
  H   H6923     1.0  0.92094  0.61860  0.81979  1.0000
  H   H6924     1.0  0.79183  0.67665  0.76971  1.0000
  C   C4065     1.0  0.88698  0.64379  0.80939  1.0000
  H   H6925     1.0  0.81222  0.67327  0.85228  1.0000
  H   H6926     1.0  0.92637  0.61995  0.57733  1.0000
  H   H6927     1.0  0.83147  0.65144  0.58586  1.0000
  H   H6928     1.0  0.88194  0.49929  0.66578  1.0000
  C   C4066     1.0  0.77716  0.59503  0.84243  1.0000
  C   C4067     1.0  0.92525  0.72076  0.82947  1.0000
  H   H6929     1.0  0.80615  0.72128  0.75133  1.0000
  C   C4068     1.0  0.93391  0.70331  0.50478  1.0000
  C   C4069     1.0  0.77957  0.59219  0.85929  1.0000
  C   C4070     1.0  0.91646  0.51652  0.50738  1.0000
  C   C4071     1.0  0.91550  0.67220  0.79098  1.0000
  C   C4072     1.0  0.98120  0.67799  0.63815  1.0000
  H   H6930     1.0  0.78593  0.58562  0.83699  1.0000
  H   H6931     1.0  0.78098  0.60615  0.83591  1.0000
  H   H6932     1.0  0.76594  0.70479  0.75963  1.0000
  H   H6933     1.0  0.95489  0.67850  0.63050  1.0000
  C   C4073     1.0  0.96141  0.72429  0.77645  1.0000
  H   H6934     1.0  0.93957  0.48905  0.63076  1.0000
  C   C4074     1.0  0.79876  0.70317  0.77134  1.0000
  H   H6935     1.0  0.96118  0.72384  0.76443  1.0000
  H   H6936     1.0  0.79091  0.59504  0.85874  1.0000
  H   H6937     1.0  0.77018  0.59962  0.86647  1.0000
  H   H6938     1.0  0.78031  0.57967  0.86539  1.0000
  H   H6939     1.0  0.94802  0.71682  0.58996  1.0000
  H   H6940     1.0  0.97507  0.62823  0.58198  1.0000
  H   H6941     1.0  0.97214  0.70258  0.62668  1.0000
  S   S1174     1.0  0.74606  0.69982  0.94347  1.0000
  H   H6942     1.0  0.93163  0.72598  0.77514  1.0000
  H   H6943     1.0  0.90766  0.51321  0.61229  1.0000
  C   C4075     1.0  0.95815  0.70969  0.48561  1.0000
  H   H6944     1.0  0.96411  0.65533  0.65833  1.0000
  C   C4076     1.0  0.84505  0.72225  0.67641  1.0000
  H   H6945     1.0  0.75608  0.62036  0.84139  1.0000
  H   H6946     1.0  0.90027  0.66329  0.78296  1.0000
  H   H6947     1.0  0.96087  0.57632  0.58811  1.0000
  H   H6948     1.0  0.84978  0.61832  0.61630  1.0000
  C   C4077     1.0  0.82890  0.62416  0.60576  1.0000
  C   C4078     1.0  0.89916  0.49855  0.64371  1.0000
  H   H6949     1.0  0.80605  0.66521  0.78783  1.0000
  N   N289      1.0  0.78518  0.69590  0.78163  1.0000
  H   H6950     1.0  0.93848  0.59148  0.67075  1.0000
  C   C4079     1.0  0.94073  0.68658  0.51314  1.0000
  H   H6951     1.0  0.84032  0.72100  0.64131  1.0000
  N   N290      1.0  0.94139  0.70818  0.48761  1.0000
  H   H6952     1.0  0.84972  0.67493  0.67417  1.0000
  H   H6953     1.0  0.91341  0.68345  0.78224  1.0000
  H   H6954     1.0  0.82561  0.68706  0.97695  1.0000
  H   H6955     1.0  0.81173  0.70411  0.97020  1.0000
  H   H6956     1.0  0.83137  0.62818  0.56649  1.0000
  C   C4080     1.0  0.95480  0.64861  0.58271  1.0000
  H   H6957     1.0  0.84632  0.71260  0.68690  1.0000
  H   H6958     1.0  0.93412  0.68441  0.52553  1.0000
  H   H6959     1.0  0.76417  0.57044  0.84838  1.0000
  H   H6960     1.0  0.95054  0.67516  0.60623  1.0000
  H   H6961     1.0  0.98852  0.57576  0.58644  1.0000
  H   H6962     1.0  0.90723  0.52689  0.63077  1.0000
  H   H6963     1.0  0.86996  0.69737  0.78541  1.0000
  H   H6964     1.0  0.83026  0.68992  0.72720  1.0000
  C   C4081     1.0  0.90140  0.66436  0.79452  1.0000
  H   H6965     1.0  0.95537  0.61734  0.57845  1.0000
  H   H6966     1.0  0.95330  0.66152  0.57801  1.0000
  H   H6967     1.0  0.95116  0.65612  0.55368  1.0000
  H   H6968     1.0  0.81200  0.70526  0.65499  1.0000
  H   H6969     1.0  0.91269  0.72439  0.83353  1.0000
  C   C4082     1.0  0.90529  0.64982  0.82127  1.0000
  C   C4083     1.0  0.94538  0.62495  0.58508  1.0000
  H   H6970     1.0  0.79372  0.66806  0.86293  1.0000
  N   N291      1.0  0.98013  0.66904  0.62686  1.0000
  H   H6971     1.0  0.97055  0.70756  0.81557  1.0000
  C   C4084     1.0  0.82617  0.62628  0.57926  1.0000
  N   N292      1.0  0.94430  0.64208  0.57694  1.0000
  Fe  Fe587     1.0  0.89146  0.72484  0.57011  1.0000
  H   H6972     1.0  0.79099  0.69325  0.80409  1.0000
  C   C4085     1.0  0.94669  0.48675  0.58731  1.0000
  H   H6973     1.0  0.94100  0.62633  0.55385  1.0000
  H   H6974     1.0  0.85614  0.61814  0.56078  1.0000
  C   C4086     1.0  0.93529  0.72997  0.82982  1.0000
  H   H6975     1.0  0.88034  0.72958  0.70918  1.0000
  C   C4087     1.0  0.88334  0.63950  0.79560  1.0000
  H   H6976     1.0  0.96563  0.55968  0.57949  1.0000
  S   S1175     1.0  0.94398  0.68877  0.55264  1.0000
  H   H6977     1.0  0.76823  0.71374  0.88024  1.0000
  H   H6978     1.0  0.98288  0.69770  0.48277  1.0000
  H   H6979     1.0  0.91512  0.63701  0.78683  1.0000
  Fe  Fe588     1.0  0.86516  0.70082  0.81735  1.0000
  H   H6980     1.0  0.93421  0.52368  0.61346  1.0000
  S   S1176     1.0  0.90275  0.69279  0.54536  1.0000
  C   C4088     1.0  0.91772  0.50039  0.48871  1.0000
  H   H6981     1.0  0.97058  0.67848  0.64789  1.0000
  H   H6982     1.0  0.97923  0.72192  0.55049  1.0000
  H   H6983     1.0  0.92556  0.49266  0.48081  1.0000
  C   C4089     1.0  0.84658  0.68565  0.67902  1.0000
  S   S1177     1.0  0.80340  0.68216  0.72205  1.0000
  C   C4090     1.0  0.94598  0.70415  0.57394  1.0000
  C   C4091     1.0  0.84166  0.69702  0.64101  1.0000
  S   S1178     1.0  0.98081  0.71094  0.58943  1.0000
  H   H6984     1.0  0.87211  0.60590  0.56902  1.0000
  H   H6985     1.0  0.78815  0.71729  0.75098  1.0000
  H   H6986     1.0  0.87144  0.63678  0.79935  1.0000
  H   H6987     1.0  0.77315  0.67812  0.78182  1.0000
  H   H6988     1.0  0.90475  0.63860  0.83012  1.0000
  H   H6989     1.0  0.84981  0.64242  0.59121  1.0000
  H   H6990     1.0  0.83124  0.62152  0.62970  1.0000
  H   H6991     1.0  0.86312  0.63882  0.56480  1.0000
  C   C4092     1.0  0.89361  0.66272  0.82929  1.0000
  C   C4093     1.0  0.88525  0.70675  0.50543  1.0000
  H   H6992     1.0  0.88614  0.63366  0.81961  1.0000
  S   S1179     1.0  0.90156  0.69962  0.57984  1.0000
  C   C4094     1.0  0.79858  0.71421  0.71359  1.0000
  C   C4095     1.0  0.98110  0.53863  0.60130  1.0000
  H   H6993     1.0  0.80503  0.70625  0.77869  1.0000
  H   H6994     1.0  0.95149  0.64695  0.59575  1.0000
  H   H6995     1.0  0.92363  0.64338  0.60597  1.0000
  S   S1180     1.0  0.77992  0.72004  0.91892  1.0000
  C   C4096     1.0  0.81943  0.61137  0.58371  1.0000
  C   C4097     1.0  0.92125  0.65443  0.59714  1.0000
  N   N293      1.0  0.83758  0.62613  0.58871  1.0000
  Fe  Fe589     1.0  0.86173  0.72580  0.83520  1.0000
  H   H6996     1.0  0.91519  0.51834  0.64757  1.0000
  C   C4098     1.0  0.88306  0.69919  0.49480  1.0000
  H   H6997     1.0  0.87574  0.69146  0.75905  1.0000
  H   H6998     1.0  0.93942  0.67747  0.50788  1.0000
  H   H6999     1.0  0.81801  0.69795  0.84479  1.0000
  C   C4099     1.0  0.74239  0.68277  0.92443  1.0000
  C   C4100     1.0  0.90218  0.51032  0.51883  1.0000
  C   C4101     1.0  0.82441  0.69862  0.96855  1.0000
  C   C4102     1.0  0.91674  0.51740  0.63528  1.0000
  H   H7000     1.0  0.94533  0.64209  0.53786  1.0000
  H   H7001     1.0  0.92102  0.70450  0.50642  1.0000
  H   H7002     1.0  0.74807  0.59716  0.93510  1.0000
  N   N294      1.0  0.90334  0.60719  0.68003  1.0000
  C   C4103     1.0  0.89067  0.62065  0.67425  1.0000
  C   C4104     1.0  0.89948  0.60422  0.69775  1.0000
  C   C4105     1.0  0.90302  0.59288  0.67474  1.0000
  C   C4106     1.0  0.91891  0.61198  0.67289  1.0000
  C   C4107     1.0  0.89001  0.62338  0.65683  1.0000
  C   C4108     1.0  0.89819  0.61826  0.70485  1.0000
  C   C4109     1.0  0.90965  0.57661  0.68431  1.0000
  C   C4110     1.0  0.93364  0.60055  0.67794  1.0000
  H   H7003     1.0  0.87882  0.61901  0.68126  1.0000
  H   H7004     1.0  0.89180  0.63196  0.67593  1.0000
  H   H7005     1.0  0.90809  0.59434  0.70305  1.0000
  H   H7006     1.0  0.88807  0.60042  0.70252  1.0000
  H   H7007     1.0  0.89074  0.59257  0.67515  1.0000
  H   H7008     1.0  0.90922  0.59341  0.66222  1.0000
  H   H7009     1.0  0.92153  0.61368  0.65989  1.0000
  H   H7010     1.0  0.91856  0.62376  0.67462  1.0000
  H   H7011     1.0  0.90140  0.62468  0.64862  1.0000
  H   H7012     1.0  0.88583  0.61387  0.65480  1.0000
  H   H7013     1.0  0.88121  0.63437  0.65379  1.0000
  H   H7014     1.0  0.88991  0.50467  0.63686  1.0000
  H   H7015     1.0  0.96225  0.63650  0.55651  1.0000
  H   H7016     1.0  0.88140  0.68725  0.49879  1.0000
  S   S1181     1.0  0.96825  0.61984  0.62250  1.0000
  H   H7017     1.0  0.82590  0.61238  0.61026  1.0000
  H   H7018     1.0  0.85310  0.65857  0.56491  1.0000
  C   C4111     1.0  0.97869  0.69349  0.56993  1.0000
  C   C4112     1.0  0.95017  0.64377  0.55939  1.0000
  C   C4113     1.0  0.92785  0.65204  0.58015  1.0000
  H   H7019     1.0  0.95739  0.48578  0.48798  1.0000
  C   C4114     1.0  0.83768  0.62564  0.61751  1.0000
  H   H7020     1.0  0.90360  0.49741  0.52162  1.0000
  H   H7021     1.0  0.95296  0.72975  0.54764  1.0000
  C   C4115     1.0  0.89275  0.50382  0.65952  1.0000
  N   N295      1.0  0.97695  0.55634  0.59872  1.0000
  H   H7022     1.0  0.77958  0.60988  0.81082  1.0000
  C   C4116     1.0  0.96270  0.59054  0.63827  1.0000
  C   C4117     1.0  0.95665  0.60570  0.63043  1.0000
  H   H7023     1.0  0.89418  0.67463  0.82204  1.0000
  H   H7024     1.0  0.85971  0.71122  0.87093  1.0000
  H   H7025     1.0  0.78758  0.71391  0.71126  1.0000
  H   H7026     1.0  0.85617  0.69209  0.67409  1.0000
  H   H7027     1.0  0.82030  0.72530  0.68157  1.0000
  H   H7028     1.0  0.79693  0.72755  0.67775  1.0000
  Fe  Fe590     1.0  0.79850  0.71612  0.93243  1.0000
  H   H7029     1.0  0.82871  0.60044  0.58447  1.0000
  H   H7030     1.0  0.92902  0.49749  0.65943  1.0000
  S   S1182     1.0  0.88740  0.70633  0.80103  1.0000
  H   H7031     1.0  0.81596  0.63644  0.58043  1.0000
  C   C4118     1.0  0.74997  0.61038  0.84571  1.0000
  H   H7032     1.0  0.90712  0.61508  0.81070  1.0000
  S   S1183     1.0  0.91919  0.69516  0.82335  1.0000
  H   H7033     1.0  0.84633  0.68139  0.69181  1.0000
  H   H7034     1.0  0.81745  0.63287  0.60707  1.0000
  C   C4119     1.0  0.92298  0.73279  0.78338  1.0000
  H   H7035     1.0  0.88307  0.64935  0.78519  1.0000
  H   H7036     1.0  0.92732  0.64016  0.79738  1.0000
  H   H7037     1.0  0.81228  0.72552  0.65069  1.0000
  H   H7038     1.0  0.89682  0.66218  0.84044  1.0000
  C   C4120     1.0  0.95427  0.70888  0.58217  1.0000
  C   C4121     1.0  0.97993  0.65225  0.63542  1.0000
  C   C4122     1.0  0.91590  0.63695  0.79890  1.0000
  H   H7039     1.0  0.80769  0.69457  0.76494  1.0000
  H   H7040     1.0  0.91737  0.65162  0.81963  1.0000
  Fe  Fe591     1.0  0.87529  0.73142  0.80018  1.0000
  H   H7041     1.0  0.79845  0.70645  0.68339  1.0000
  H   H7042     1.0  0.79420  0.68798  0.85543  1.0000
  H   H7043     1.0  0.82426  0.68713  0.67421  1.0000
  C   C4123     1.0  0.96534  0.67677  0.62070  1.0000
  H   H7044     1.0  0.96989  0.57521  0.61124  1.0000
  C   C4124     1.0  0.77114  0.70849  0.78645  1.0000
  H   H7045     1.0  0.83530  0.70362  0.84480  1.0000
  H   H7046     1.0  0.77415  0.69295  0.88222  1.0000
  C   C4125     1.0  0.91191  0.48839  0.61362  1.0000
  H   H7047     1.0  0.95955  0.71302  0.49600  1.0000
  H   H7048     1.0  0.92320  0.51896  0.51470  1.0000
  H   H7049     1.0  0.95905  0.50905  0.49454  1.0000
  S   S1184     1.0  0.88382  0.73345  0.82033  1.0000
  H   H7050     1.0  0.77440  0.71565  0.79279  1.0000
  Fe  Fe592     1.0  0.77641  0.73095  0.95870  1.0000
  H   H7051     1.0  0.74173  0.58226  0.93066  1.0000
  H   H7052     1.0  0.92800  0.48495  0.51519  1.0000
  H   H7053     1.0  0.85653  0.72504  0.96028  1.0000
  H   H7054     1.0  0.86030  0.48470  0.50422  1.0000
  C   C4126     1.0  0.97246  0.52935  0.61679  1.0000
  C   C4127     1.0  0.96531  0.64961  0.64860  1.0000
  C   C4128     1.0  0.76713  0.60979  0.81171  1.0000
  H   H7055     1.0  0.93495  0.71127  0.51166  1.0000
  H   H7056     1.0  0.78865  0.72849  0.76449  1.0000
  H   H7057     1.0  0.91169  0.52816  0.50031  1.0000
  C   C4129     1.0  0.93078  0.48631  0.65590  1.0000
  H   H7058     1.0  0.96061  0.53557  0.62184  1.0000
  H   H7059     1.0  0.78789  0.71840  0.66877  1.0000
  H   H7060     1.0  0.86220  0.72110  0.75991  1.0000
  H   H7061     1.0  0.84345  0.71604  0.94208  1.0000
  H   H7062     1.0  0.75541  0.58060  0.86398  1.0000
  C   C4130     1.0  0.91576  0.50245  0.61720  1.0000
  H   H7063     1.0  0.86195  0.73233  0.70366  1.0000
  C   C4131     1.0  0.98713  0.55731  0.62224  1.0000
  H   H7064     1.0  0.89995  0.48656  0.61982  1.0000
  H   H7065     1.0  0.85892  0.72943  0.59255  1.0000
  H   H7066     1.0  0.97922  0.53483  0.59140  1.0000
  C   C4132     1.0  0.95049  0.51954  0.49001  1.0000
  H   H7067     1.0  0.88389  0.72845  0.73252  1.0000
  H   H7068     1.0  0.97790  0.64534  0.56620  1.0000
  C   C4133     1.0  0.97259  0.64125  0.57879  1.0000
  H   H7069     1.0  0.77533  0.70213  0.89714  1.0000
  H   H7070     1.0  0.82290  0.72369  0.94390  1.0000
  C   C4134     1.0  0.83912  0.73009  0.87168  1.0000
  H   H7071     1.0  0.75095  0.59451  0.82182  1.0000
  H   H7072     1.0  0.90113  0.49937  0.66739  1.0000
  Fe  Fe593     1.0  0.98787  0.49343  0.58755  1.0000
  H   H7073     1.0  0.98305  0.50918  0.50220  1.0000
  S   S1185     1.0  0.90974  0.72591  0.54746  1.0000
  C   C4135     1.0  0.96165  0.66834  0.60995  1.0000
  H   H7074     1.0  0.75843  0.69544  0.80865  1.0000
  H   H7075     1.0  0.97982  0.52515  0.62573  1.0000
  C   C4136     1.0  0.98272  0.69521  0.63103  1.0000
  C   C4137     1.0  0.95241  0.73040  0.52384  1.0000
  C   C4138     1.0  0.93815  0.51508  0.48421  1.0000
  C   C4139     1.0  0.85087  0.72633  0.75615  1.0000
  H   H7076     1.0  0.94841  0.71932  0.53003  1.0000
  H   H7077     1.0  0.85572  0.72107  0.66687  1.0000
  C   C4140     1.0  0.88711  0.73004  0.48473  1.0000
  H   H7078     1.0  0.84423  0.71683  0.75958  1.0000
  C   C4141     1.0  0.84474  0.73204  0.96492  1.0000
  C   C4142     1.0  0.98759  0.71405  0.52908  1.0000
  H   H7079     1.0  0.84421  0.73321  0.68010  1.0000
  Fe  Fe594     1.0  0.98993  0.72913  0.81598  1.0000
  H   H7080     1.0  0.99025  0.64694  0.64100  1.0000
  S   S1186     1.0  0.74133  0.59462  0.89198  1.0000
  C   C4143     1.0  0.99079  0.56277  0.58787  1.0000
  H   H7081     1.0  0.89676  0.74587  0.38030  1.0000
  H   H7082     1.0  0.95066  0.73498  0.18501  1.0000
  H   H7083     1.0  0.77070  0.80204  0.29207  1.0000
  H   H7084     1.0  0.77864  0.93349  0.21406  1.0000
  Fe  Fe595     1.0  0.78766  0.87756  0.25007  1.0000
  S   S1187     1.0  0.78377  0.89172  0.26804  1.0000
  S   S1188     1.0  0.80112  0.85254  0.25478  1.0000
  H   H7085     1.0  0.83989  0.80693  0.27089  1.0000
  H   H7086     1.0  0.80392  0.82795  0.31685  1.0000
  H   H7087     1.0  0.77168  0.95553  0.18450  1.0000
  S   S1189     1.0  0.76226  0.88217  0.24943  1.0000
  S   S1190     1.0  0.79282  0.89722  0.22957  1.0000
  Fe  Fe596     1.0  0.92202  0.81860  0.24603  1.0000
  S   S1191     1.0  0.91556  0.81887  0.22378  1.0000
  S   S1192     1.0  0.93951  0.83309  0.24384  1.0000
  Fe  Fe597     1.0  0.89821  0.79926  0.26625  1.0000
  S   S1193     1.0  0.88969  0.79821  0.24554  1.0000
  S   S1194     1.0  0.88804  0.78608  0.29036  1.0000
  Fe  Fe598     1.0  0.91531  0.79353  0.23402  1.0000
  S   S1195     1.0  0.92557  0.77496  0.21975  1.0000
  Fe  Fe599     1.0  0.89058  0.82371  0.23725  1.0000
  S   S1196     1.0  0.87381  0.84268  0.22415  1.0000
  S   S1197     1.0  0.92392  0.79264  0.25526  1.0000
  S   S1198     1.0  0.89689  0.82533  0.25893  1.0000
  S   S1199     1.0  0.92616  0.76080  0.11783  1.0000
  S   S1200     1.0  0.82118  0.78406  0.28401  1.0000
  C   C4144     1.0  0.79218  0.94456  0.25396  1.0000
  H   H7088     1.0  0.76395  0.85870  0.28743  1.0000
  C   C4145     1.0  0.86880  0.78594  0.29018  1.0000
  C   C4146     1.0  0.86068  0.79817  0.28027  1.0000
  C   C4147     1.0  0.84588  0.79764  0.27884  1.0000
  C   C4148     1.0  0.83905  0.78493  0.28735  1.0000
  C   C4149     1.0  0.84684  0.77290  0.29782  1.0000
  C   C4150     1.0  0.86180  0.77338  0.29916  1.0000
  H   H7089     1.0  0.86598  0.80797  0.27357  1.0000
  H   H7090     1.0  0.84162  0.76301  0.30442  1.0000
  H   H7091     1.0  0.86822  0.76375  0.30657  1.0000
  C   C4151     1.0  0.91171  0.77500  0.20953  1.0000
  C   C4152     1.0  0.90039  0.78866  0.20595  1.0000
  C   C4153     1.0  0.88953  0.78886  0.19746  1.0000
  H   H7092     1.0  0.90177  0.74848  0.33393  1.0000
  C   C4154     1.0  0.83523  0.89931  0.22643  1.0000
  C   C4155     1.0  0.91210  0.76150  0.20466  1.0000
  H   H7093     1.0  0.90015  0.79919  0.20951  1.0000
  C   C4156     1.0  0.77539  0.81321  0.31603  1.0000
  H   H7094     1.0  0.98300  0.75486  0.18945  1.0000
  H   H7095     1.0  0.85779  0.76684  0.36291  1.0000
  C   C4157     1.0  0.77829  0.94370  0.26543  1.0000
  C   C4158     1.0  0.77062  0.95630  0.27288  1.0000
  C   C4159     1.0  0.82507  0.74642  0.36828  1.0000
  S   S1201     1.0  0.78396  0.74071  0.33477  1.0000
  H   H7096     1.0  0.95607  0.77009  0.10909  1.0000
  H   H7097     1.0  0.77350  0.93329  0.26867  1.0000
  H   H7098     1.0  0.75996  0.95552  0.28187  1.0000
  S   S1202     1.0  0.80080  0.77027  0.32744  1.0000
  C   C4160     1.0  0.82130  0.85024  0.24635  1.0000
  C   C4161     1.0  0.82670  0.85903  0.23146  1.0000
  C   C4162     1.0  0.84288  0.85655  0.22469  1.0000
  C   C4163     1.0  0.85368  0.84550  0.23290  1.0000
  C   C4164     1.0  0.84829  0.83695  0.24790  1.0000
  C   C4165     1.0  0.83209  0.83927  0.25458  1.0000
  H   H7099     1.0  0.81841  0.86746  0.22501  1.0000
  H   H7100     1.0  0.84704  0.86317  0.21305  1.0000
  H   H7101     1.0  0.85662  0.82859  0.25431  1.0000
  H   H7102     1.0  0.82789  0.83282  0.26627  1.0000
  H   H7103     1.0  0.93831  0.86170  0.20271  1.0000
  C   C4166     1.0  0.97973  0.79991  0.24781  1.0000
  C   C4167     1.0  0.96391  0.80717  0.24755  1.0000
  C   C4168     1.0  0.95916  0.82354  0.24467  1.0000
  C   C4169     1.0  0.97036  0.83261  0.24182  1.0000
  C   C4170     1.0  0.79042  0.98208  0.21150  1.0000
  S   S1203     1.0  0.77214  0.74096  0.98019  1.0000
  H   H7104     1.0  0.95538  0.80009  0.24973  1.0000
  H   H7105     1.0  0.96676  0.84528  0.23960  1.0000
  H   H7106     1.0  0.89554  0.76277  0.10826  1.0000
  H   H7107     1.0  0.88105  0.79956  0.19444  1.0000
  H   H7108     1.0  0.91802  0.75320  0.09222  1.0000
  H   H7109     1.0  0.81932  0.82673  0.29971  1.0000
  H   H7110     1.0  0.86043  0.78143  0.25423  1.0000
  H   H7111     1.0  0.76603  0.74077  0.27143  1.0000
  H   H7112     1.0  0.81842  0.87891  0.25644  1.0000
  C   C4171     1.0  0.83303  0.74742  0.10023  1.0000
  C   C4172     1.0  0.75334  0.77790  0.06920  1.0000
  N   N296      1.0  0.84688  0.89541  0.25059  1.0000
  C   C4173     1.0  0.84587  0.91291  0.24689  1.0000
  H   H7113     1.0  0.77014  0.86715  0.29962  1.0000
  C   C4174     1.0  0.86153  0.88742  0.25695  1.0000
  C   C4175     1.0  0.83228  0.89182  0.26261  1.0000
  C   C4176     1.0  0.84502  0.92007  0.26079  1.0000
  H   H7114     1.0  0.84899  0.77445  0.33816  1.0000
  C   C4177     1.0  0.86572  0.86931  0.26060  1.0000
  C   C4178     1.0  0.82757  0.87648  0.26332  1.0000
  H   H7115     1.0  0.85604  0.91613  0.23741  1.0000
  H   H7116     1.0  0.83518  0.91950  0.24226  1.0000
  H   H7117     1.0  0.86714  0.86428  0.25032  1.0000
  H   H7118     1.0  0.89368  0.75527  0.06439  1.0000
  H   H7119     1.0  0.87198  0.89145  0.24859  1.0000
  H   H7120     1.0  0.86067  0.89066  0.26818  1.0000
  H   H7121     1.0  0.83337  0.89157  0.27463  1.0000
  H   H7122     1.0  0.82188  0.90142  0.26030  1.0000
  H   H7123     1.0  0.85638  0.91661  0.26456  1.0000
  H   H7124     1.0  0.84248  0.93309  0.25692  1.0000
  H   H7125     1.0  0.83536  0.91715  0.27094  1.0000
  Fe  Fe600     1.0  0.75859  0.89770  0.26605  1.0000
  H   H7126     1.0  0.85517  0.81761  0.19439  1.0000
  H   H7127     1.0  0.75326  0.95507  0.23667  1.0000
  H   H7128     1.0  0.85715  0.86432  0.27080  1.0000
  N   N297      1.0  0.96736  0.82787  0.19597  1.0000
  C   C4179     1.0  0.95967  0.84346  0.20062  1.0000
  H   H7129     1.0  0.83515  0.82689  0.22540  1.0000
  H   H7130     1.0  0.83623  0.91154  0.22041  1.0000
  H   H7131     1.0  0.87344  0.73531  0.20389  1.0000
  C   C4180     1.0  0.94235  0.85017  0.19922  1.0000
  C   C4181     1.0  0.77703  0.81090  0.28368  1.0000
  C   C4182     1.0  0.77296  0.85671  0.29438  1.0000
  C   C4183     1.0  0.77659  0.96994  0.26872  1.0000
  H   H7132     1.0  0.75933  0.81975  0.24741  1.0000
  H   H7133     1.0  0.95929  0.79228  0.14308  1.0000
  C   C4184     1.0  0.79829  0.95810  0.24988  1.0000
  C   C4185     1.0  0.89828  0.77337  0.33248  1.0000
  C   C4186     1.0  0.86949  0.74560  0.34449  1.0000
  H   H7134     1.0  0.80419  0.84409  0.29994  1.0000
  C   C4187     1.0  0.94450  0.75128  0.12276  1.0000
  H   H7135     1.0  0.74600  0.91115  0.18224  1.0000
  C   C4188     1.0  0.77241  0.84180  0.30761  1.0000
  S   S1204     1.0  0.77222  0.77593  0.05680  1.0000
  H   H7136     1.0  0.82501  0.75917  0.11959  1.0000
  Fe  Fe601     1.0  0.87268  0.74735  0.14339  1.0000
  H   H7137     1.0  0.75834  0.75547  0.08500  1.0000
  H   H7138     1.0  0.96901  0.74609  0.16072  1.0000
  Fe  Fe602     1.0  0.78805  0.75257  0.06413  1.0000
  H   H7139     1.0  0.80289  0.81106  0.29819  1.0000
  H   H7140     1.0  0.77592  0.80206  0.34034  1.0000
  C   C4189     1.0  0.95739  0.75858  0.11683  1.0000
  H   H7141     1.0  0.74778  0.81173  0.26611  1.0000
  H   H7142     1.0  0.83603  0.89308  0.21716  1.0000
  N   N298      1.0  0.87853  0.75536  0.34820  1.0000
  H   H7143     1.0  0.74293  0.80922  0.03056  1.0000
  C   C4190     1.0  0.97341  0.74895  0.19047  1.0000
  H   H7144     1.0  0.83295  0.73979  0.98725  1.0000
  C   C4191     1.0  0.89169  0.75881  0.33415  1.0000
  C   C4192     1.0  0.98303  0.82241  0.20071  1.0000
  C   C4193     1.0  0.78913  0.93613  0.20492  1.0000
  H   H7145     1.0  0.84411  0.77697  0.25109  1.0000
  C   C4194     1.0  0.84135  0.73627  0.20470  1.0000
  C   C4195     1.0  0.74394  0.78827  0.30555  1.0000
  H   H7146     1.0  0.86528  0.75149  0.33345  1.0000
  H   H7147     1.0  0.91140  0.79625  0.07401  1.0000
  H   H7148     1.0  0.75336  0.97486  0.20990  1.0000
  C   C4196     1.0  0.88491  0.74592  0.36253  1.0000
  C   C4197     1.0  0.74189  0.79154  0.06588  1.0000
  H   H7149     1.0  0.74776  0.83647  0.26881  1.0000
  C   C4198     1.0  0.83456  0.75119  0.11368  1.0000
  H   H7150     1.0  0.91895  0.75039  0.07334  1.0000
  H   H7151     1.0  0.77527  0.75149  0.00576  1.0000
  Fe  Fe603     1.0  0.88358  0.75923  0.16626  1.0000
  C   C4199     1.0  0.79044  0.97082  0.25714  1.0000
  C   C4200     1.0  0.91084  0.78411  0.08078  1.0000
  H   H7152     1.0  0.81609  0.75526  0.36305  1.0000
  H   H7153     1.0  0.92074  0.75086  0.20757  1.0000
  H   H7154     1.0  0.88768  0.76079  0.32304  1.0000
  N   N299      1.0  0.95660  0.76665  0.17065  1.0000
  C   C4201     1.0  0.94105  0.77815  0.16995  1.0000
  H   H7155     1.0  0.77650  0.77893  0.00717  1.0000
  C   C4202     1.0  0.97021  0.77413  0.16127  1.0000
  C   C4203     1.0  0.95822  0.76118  0.18752  1.0000
  C   C4204     1.0  0.93904  0.79368  0.17490  1.0000
  H   H7156     1.0  0.76212  0.86062  0.23065  1.0000
  C   C4205     1.0  0.96951  0.78227  0.14406  1.0000
  H   H7157     1.0  0.77738  0.82204  0.33580  1.0000
  H   H7158     1.0  0.93860  0.78118  0.15795  1.0000
  H   H7159     1.0  0.93120  0.77274  0.17760  1.0000
  H   H7160     1.0  0.79951  0.92736  0.20849  1.0000
  S   S1205     1.0  0.84991  0.74162  0.40099  1.0000
  H   H7161     1.0  0.97163  0.78282  0.16707  1.0000
  H   H7162     1.0  0.98025  0.78708  0.13838  1.0000
  H   H7163     1.0  0.95824  0.77121  0.19231  1.0000
  H   H7164     1.0  0.94782  0.75673  0.19539  1.0000
  H   H7165     1.0  0.94784  0.80053  0.16742  1.0000
  H   H7166     1.0  0.92724  0.80106  0.17359  1.0000
  H   H7167     1.0  0.93932  0.79176  0.18745  1.0000
  H   H7168     1.0  0.97080  0.80893  0.17083  1.0000
  C   C4206     1.0  0.97849  0.81664  0.17059  1.0000
  C   C4207     1.0  0.84847  0.74502  0.11929  1.0000
  H   H7169     1.0  0.83257  0.73968  0.21509  1.0000
  H   H7170     1.0  0.78859  0.73854  0.02797  1.0000
  H   H7171     1.0  0.75235  0.81822  0.01113  1.0000
  H   H7172     1.0  0.78469  0.85624  0.28635  1.0000
  C   C4208     1.0  0.74843  0.74336  0.31675  1.0000
  C   C4209     1.0  0.77547  0.96628  0.18426  1.0000
  N   N300      1.0  0.83922  0.80224  0.22510  1.0000
  H   H7173     1.0  0.77574  0.83556  0.27879  1.0000
  C   C4210     1.0  0.82323  0.80015  0.23503  1.0000
  C   C4211     1.0  0.84433  0.79250  0.21274  1.0000
  C   C4212     1.0  0.83763  0.81934  0.21683  1.0000
  H   H7174     1.0  0.79409  0.80688  0.32921  1.0000
  C   C4213     1.0  0.81550  0.81084  0.24689  1.0000
  C   C4214     1.0  0.83998  0.77628  0.21747  1.0000
  C   C4215     1.0  0.77242  0.82641  0.28941  1.0000
  H   H7175     1.0  0.82743  0.82331  0.21098  1.0000
  S   S1206     1.0  0.81149  0.74400  0.04892  1.0000
  H   H7176     1.0  0.82349  0.78793  0.24186  1.0000
  H   H7177     1.0  0.81484  0.80232  0.22730  1.0000
  H   H7178     1.0  0.83920  0.79885  0.20225  1.0000
  H   H7179     1.0  0.78017  0.80165  0.31262  1.0000
  S   S1207     1.0  0.80168  0.92911  0.24411  1.0000
  H   H7180     1.0  0.75975  0.84229  0.31349  1.0000
  C   C4216     1.0  0.88709  0.76381  0.10093  1.0000
  H   H7181     1.0  0.86545  0.76214  0.06740  1.0000
  H   H7182     1.0  0.87928  0.78696  0.10720  1.0000
  H   H7183     1.0  0.80482  0.80693  0.25463  1.0000
  C   C4217     1.0  0.79743  0.82385  0.29658  1.0000
  H   H7184     1.0  0.81159  0.82323  0.24093  1.0000
  H   H7185     1.0  0.82714  0.77747  0.21898  1.0000
  H   H7186     1.0  0.84379  0.76879  0.22820  1.0000
  H   H7187     1.0  0.97773  0.74080  0.18235  1.0000
  C   C4218     1.0  0.86072  0.73463  0.11164  1.0000
  H   H7188     1.0  0.85377  0.73801  0.98192  1.0000
  H   H7189     1.0  0.80281  0.74134  0.27581  1.0000
  Fe  Fe604     1.0  0.80780  0.74390  0.33443  1.0000
  H   H7190     1.0  0.83735  0.86701  0.25955  1.0000
  H   H7191     1.0  0.84961  0.87816  0.23684  1.0000
  H   H7192     1.0  0.84899  0.80672  0.24256  1.0000
  S   S1208     1.0  0.75458  0.78287  0.33288  1.0000
  H   H7193     1.0  0.74497  0.80109  0.05633  1.0000
  H   H7194     1.0  0.84592  0.76998  0.20777  1.0000
  H   H7195     1.0  0.82241  0.75260  0.09578  1.0000
  Fe  Fe605     1.0  0.79410  0.73900  0.30968  1.0000
  H   H7196     1.0  0.88419  0.74528  0.08281  1.0000
  C   C4219     1.0  0.85208  0.82375  0.20421  1.0000
  Fe  Fe606     1.0  0.80929  0.76663  0.30275  1.0000
  H   H7197     1.0  0.75932  0.82940  0.29301  1.0000
  S   S1209     1.0  0.75892  0.91173  0.20765  1.0000
  C   C4220     1.0  0.74946  0.76588  0.08208  1.0000
  C   C4221     1.0  0.80649  0.83113  0.30387  1.0000
  H   H7198     1.0  0.76234  0.81454  0.31945  1.0000
  C   C4222     1.0  0.78115  0.81125  0.33106  1.0000
  H   H7199     1.0  0.81103  0.74093  0.24731  1.0000
  Fe  Fe607     1.0  0.78653  0.91200  0.24752  1.0000
  H   H7200     1.0  0.77360  0.81308  0.27229  1.0000
  H   H7201     1.0  0.88977  0.78711  0.07280  1.0000
  C   C4223     1.0  0.78102  0.73924  0.00714  1.0000
  H   H7202     1.0  0.78987  0.80594  0.28177  1.0000
  H   H7203     1.0  0.89328  0.78343  0.32375  1.0000
  H   H7204     1.0  0.86198  0.76728  0.08574  1.0000
  C   C4224     1.0  0.90122  0.76172  0.19612  1.0000
  H   H7205     1.0  0.80062  0.82849  0.28366  1.0000
  Fe  Fe608     1.0  0.77791  0.76674  0.32508  1.0000
  H   H7206     1.0  0.75446  0.75299  0.30974  1.0000
  H   H7207     1.0  0.82345  0.89946  0.23431  1.0000
  S   S1210     1.0  0.87549  0.77572  0.18281  1.0000
  H   H7208     1.0  0.76786  0.74837  0.28673  1.0000
  C   C4225     1.0  0.96902  0.83045  0.17847  1.0000
  H   H7209     1.0  0.98183  0.75676  0.11653  1.0000
  N   N301      1.0  0.89593  0.76244  0.08442  1.0000
  H   H7210     1.0  0.77364  0.95314  0.23266  1.0000
  H   H7211     1.0  0.97226  0.79525  0.21588  1.0000
  H   H7212     1.0  0.86434  0.77624  0.11226  1.0000
  C   C4226     1.0  0.84861  0.89088  0.23527  1.0000
  C   C4227     1.0  0.74294  0.90444  0.20747  1.0000
  C   C4228     1.0  0.89362  0.75392  0.36937  1.0000
  H   H7213     1.0  0.90633  0.78461  0.09335  1.0000
  H   H7214     1.0  0.90650  0.77614  0.06237  1.0000
  H   H7215     1.0  0.95723  0.83348  0.17557  1.0000
  H   H7216     1.0  0.96938  0.77388  0.13728  1.0000
  C   C4229     1.0  0.91118  0.75035  0.08528  1.0000
  H   H7217     1.0  0.76280  0.84482  0.24697  1.0000
  H   H7218     1.0  0.75472  0.78052  0.30131  1.0000
  C   C4230     1.0  0.85482  0.78148  0.24475  1.0000
  C   C4231     1.0  0.88667  0.75692  0.07627  1.0000
  H   H7219     1.0  0.88113  0.75387  0.10669  1.0000
  H   H7220     1.0  0.98905  0.81051  0.19883  1.0000
  H   H7221     1.0  0.91115  0.77076  0.32743  1.0000
  Fe  Fe609     1.0  0.90624  0.75190  0.13626  1.0000
  H   H7222     1.0  0.77788  0.84305  0.31661  1.0000
  C   C4232     1.0  0.75913  0.74606  0.28164  1.0000
  H   H7223     1.0  0.93388  0.74773  0.17738  1.0000
  C   C4233     1.0  0.75170  0.78502  0.00624  1.0000
  C   C4234     1.0  0.86687  0.76999  0.35211  1.0000
  H   H7224     1.0  0.83464  0.73573  0.19634  1.0000
  H   H7225     1.0  0.94686  0.81835  0.19923  1.0000
  H   H7226     1.0  0.85178  0.79156  0.34210  1.0000
  S   S1211     1.0  0.84992  0.75069  0.13585  1.0000
  C   C4235     1.0  0.85807  0.78005  0.33908  1.0000
  H   H7227     1.0  0.97402  0.84095  0.17195  1.0000
  C   C4236     1.0  0.87044  0.76730  0.07424  1.0000
  S   S1212     1.0  0.76083  0.91949  0.24718  1.0000
  H   H7228     1.0  0.87729  0.86523  0.26407  1.0000
  C   C4237     1.0  0.75732  0.84995  0.23668  1.0000
  H   H7229     1.0  0.85985  0.89313  0.22704  1.0000
  C   C4238     1.0  0.96462  0.79871  0.20723  1.0000
  S   S1213     1.0  0.88263  0.76826  0.14087  1.0000
  H   H7230     1.0  0.86994  0.78592  0.09242  1.0000
  H   H7231     1.0  0.95521  0.79189  0.21232  1.0000
  S   S1214     1.0  0.78616  0.76466  0.29997  1.0000
  C   C4239     1.0  0.94636  0.74168  0.17422  1.0000
  H   H7232     1.0  0.94083  0.85225  0.18705  1.0000
  H   H7233     1.0  0.82707  0.76068  0.38290  1.0000
  C   C4240     1.0  0.85144  0.79832  0.23484  1.0000
  H   H7234     1.0  0.76121  0.84187  0.22844  1.0000
  S   S1215     1.0  0.90795  0.74456  0.16151  1.0000
  H   H7235     1.0  0.89675  0.77714  0.34349  1.0000
  H   H7236     1.0  0.82333  0.81017  0.25458  1.0000
  H   H7237     1.0  0.85728  0.79052  0.20830  1.0000
  H   H7238     1.0  0.96619  0.85271  0.19341  1.0000
  C   C4241     1.0  0.76272  0.96417  0.21202  1.0000
  C   C4242     1.0  0.88985  0.77539  0.19261  1.0000
  N   N302      1.0  0.77975  0.82641  0.30249  1.0000
  H   H7239     1.0  0.86250  0.82171  0.20926  1.0000
  H   H7240     1.0  0.89350  0.73502  0.36002  1.0000
  H   H7241     1.0  0.82190  0.87172  0.27563  1.0000
  Fe  Fe610     1.0  0.76687  0.90337  0.23057  1.0000
  C   C4243     1.0  0.95685  0.75314  0.16382  1.0000
  C   C4244     1.0  0.83124  0.74943  0.37954  1.0000
  H   H7242     1.0  0.76503  0.79207  0.01954  1.0000
  H   H7243     1.0  0.80902  0.95885  0.24100  1.0000
  C   C4245     1.0  0.74961  0.73433  0.29339  1.0000
  H   H7244     1.0  0.95299  0.75756  0.15244  1.0000
  C   C4246     1.0  0.76490  0.78188  0.01520  1.0000
  H   H7245     1.0  0.86616  0.78243  0.32744  1.0000
  H   H7246     1.0  0.86305  0.77331  0.23745  1.0000
  H   H7247     1.0  0.98330  0.78723  0.25025  1.0000
  H   H7248     1.0  0.84925  0.83654  0.19901  1.0000
  H   H7249     1.0  0.87239  0.77789  0.35514  1.0000
  H   H7250     1.0  0.86305  0.79989  0.22712  1.0000
  S   S1216     1.0  0.79704  0.74533  0.08639  1.0000
  C   C4247     1.0  0.76284  0.96116  0.22956  1.0000
  N   N303      1.0  0.77787  0.96607  0.20019  1.0000
  H   H7251     1.0  0.85866  0.74439  0.35377  1.0000
  C   C4248     1.0  0.84540  0.73738  0.09230  1.0000
  H   H7252     1.0  0.97101  0.74144  0.20246  1.0000
  H   H7253     1.0  0.97142  0.79505  0.19620  1.0000
  H   H7254     1.0  0.92310  0.77705  0.07919  1.0000
  H   H7255     1.0  0.79470  0.95227  0.21468  1.0000
  C   C4249     1.0  0.95691  0.81641  0.20489  1.0000
  H   H7256     1.0  0.98151  0.76518  0.16087  1.0000
  H   H7257     1.0  0.84797  0.74568  0.19873  1.0000
  H   H7258     1.0  0.88634  0.74162  0.22180  1.0000
  C   C4250     1.0  0.98625  0.82536  0.24174  1.0000
  C   C4251     1.0  0.79151  0.95266  0.20359  1.0000
  C   C4252     1.0  0.87464  0.77918  0.10289  1.0000
  H   H7259     1.0  0.76083  0.97225  0.23345  1.0000
  H   H7260     1.0  0.88627  0.76491  0.37284  1.0000
  H   H7261     1.0  0.95998  0.84267  0.21301  1.0000
  C   C4253     1.0  0.97194  0.75109  0.12106  1.0000
  C   C4254     1.0  0.90025  0.77761  0.07451  1.0000
  H   H7262     1.0  0.95151  0.81838  0.21701  1.0000
  H   H7263     1.0  0.87521  0.74205  0.37223  1.0000
  H   H7264     1.0  0.90492  0.75588  0.36129  1.0000
  H   H7265     1.0  0.78843  0.93430  0.19356  1.0000
  H   H7266     1.0  0.90140  0.75121  0.19261  1.0000
  H   H7267     1.0  0.87101  0.77943  0.06760  1.0000
  H   H7268     1.0  0.93446  0.84262  0.20740  1.0000
  H   H7269     1.0  0.98128  0.82119  0.21359  1.0000
  H   H7270     1.0  0.80231  0.95433  0.19432  1.0000
  H   H7271     1.0  0.75792  0.95477  0.21049  1.0000
  C   C4255     1.0  0.84258  0.73784  0.38668  1.0000
  C   C4256     1.0  0.78194  0.98146  0.19913  1.0000
  C   C4257     1.0  0.97369  0.73615  0.13100  1.0000
  H   H7272     1.0  0.75150  0.75725  0.27692  1.0000
  H   H7273     1.0  0.75524  0.79280  0.99460  1.0000
  H   H7274     1.0  0.76416  0.77157  0.02522  1.0000
  H   H7275     1.0  0.78676  0.96627  0.17530  1.0000
  H   H7276     1.0  0.98383  0.82130  0.15813  1.0000
  H   H7277     1.0  0.74897  0.80516  0.24897  1.0000
  Fe  Fe611     1.0  0.81975  0.73459  0.07175  1.0000
  H   H7278     1.0  0.75236  0.77348  0.00367  1.0000
  S   S1217     1.0  0.81825  0.74067  0.30967  1.0000
  H   H7279     1.0  0.74807  0.74941  0.33851  1.0000
  C   C4258     1.0  0.74831  0.81570  0.25330  1.0000
  H   H7280     1.0  0.80277  0.97527  0.20956  1.0000
  H   H7281     1.0  0.98860  0.80952  0.17572  1.0000
  H   H7282     1.0  0.78428  0.97806  0.22371  1.0000
  H   H7283     1.0  0.86049  0.74248  0.22031  1.0000
  H   H7284     1.0  0.79525  0.98118  0.25399  1.0000
  C   C4259     1.0  0.94631  0.73637  0.13267  1.0000
  S   S1218     1.0  0.87158  0.73980  0.16935  1.0000
  H   H7285     1.0  0.76264  0.97919  0.16584  1.0000
  C   C4260     1.0  0.76306  0.98025  0.17764  1.0000
  H   H7286     1.0  0.75106  0.98025  0.18503  1.0000
  H   H7287     1.0  0.99113  0.84453  0.19567  1.0000
  C   C4261     1.0  0.99094  0.80898  0.24486  1.0000
  H   H7288     1.0  0.74505  0.83740  0.64019  1.0000
  S   S1219     1.0  0.96378  0.73764  0.82428  1.0000
  C   C4262     1.0  0.96986  0.75351  0.54246  1.0000
  H   H7289     1.0  0.79111  0.95197  0.73437  1.0000
  H   H7290     1.0  0.82915  0.92992  0.71124  1.0000
  S   S1220     1.0  0.88615  0.74363  0.58398  1.0000
  H   H7291     1.0  0.88415  0.78314  0.53213  1.0000
  S   S1221     1.0  0.76247  0.76458  0.90757  1.0000
  S   S1222     1.0  0.84431  0.73983  0.85198  1.0000
  H   H7292     1.0  0.79635  0.95056  0.70691  1.0000
  H   H7293     1.0  0.81444  0.96150  0.74735  1.0000
  C   C4263     1.0  0.93687  0.81263  0.74619  1.0000
  H   H7294     1.0  0.77724  0.82099  0.67436  1.0000
  C   C4264     1.0  0.81662  0.93208  0.71074  1.0000
  S   S1223     1.0  0.76113  0.91976  0.75407  1.0000
  C   C4265     1.0  0.75809  0.86436  0.68222  1.0000
  Fe  Fe612     1.0  0.77772  0.90218  0.74032  1.0000
  S   S1224     1.0  0.79785  0.88494  0.75000  1.0000
  H   H7295     1.0  0.93022  0.77563  0.77763  1.0000
  Fe  Fe613     1.0  0.88446  0.81723  0.71470  1.0000
  S   S1225     1.0  0.87061  0.83172  0.73239  1.0000
  S   S1226     1.0  0.87272  0.79916  0.71259  1.0000
  Fe  Fe614     1.0  0.91423  0.82955  0.71019  1.0000
  S   S1227     1.0  0.90254  0.84494  0.72760  1.0000
  S   S1228     1.0  0.94055  0.82429  0.70086  1.0000
  Fe  Fe615     1.0  0.89233  0.82428  0.74224  1.0000
  S   S1229     1.0  0.89308  0.81272  0.76750  1.0000
  Fe  Fe616     1.0  0.88197  0.85088  0.71593  1.0000
  S   S1230     1.0  0.86727  0.87512  0.70882  1.0000
  S   S1231     1.0  0.90544  0.80849  0.72569  1.0000
  S   S1232     1.0  0.89447  0.83689  0.69724  1.0000
  H   H7296     1.0  0.84479  0.74413  0.95788  1.0000
  H   H7297     1.0  0.85785  0.79000  0.56146  1.0000
  H   H7298     1.0  0.83113  0.77601  0.74471  1.0000
  N   N304      1.0  0.94238  0.75163  0.77614  1.0000
  C   C4266     1.0  0.93170  0.73762  0.48859  1.0000
  H   H7299     1.0  0.92726  0.77787  0.75316  1.0000
  H   H7300     1.0  0.92490  0.73613  0.50093  1.0000
  H   H7301     1.0  0.78213  0.82824  0.68832  1.0000
  C   C4267     1.0  0.80900  0.94971  0.70652  1.0000
  Fe  Fe617     1.0  0.81561  0.76898  0.65195  1.0000
  S   S1233     1.0  0.83332  0.76976  0.66468  1.0000
  S   S1234     1.0  0.82089  0.75485  0.63318  1.0000
  Fe  Fe618     1.0  0.78792  0.78653  0.67346  1.0000
  S   S1235     1.0  0.80353  0.78872  0.68783  1.0000
  S   S1236     1.0  0.76165  0.79381  0.68304  1.0000
  Fe  Fe619     1.0  0.82008  0.79465  0.66470  1.0000
  S   S1237     1.0  0.83313  0.81380  0.66064  1.0000
  Fe  Fe620     1.0  0.81543  0.76375  0.68684  1.0000
  H   H7302     1.0  0.95699  0.76338  0.79544  1.0000
  S   S1238     1.0  0.80353  0.79459  0.65012  1.0000
  S   S1239     1.0  0.79866  0.76089  0.67427  1.0000
  H   H7303     1.0  0.99093  0.83866  0.64253  1.0000
  C   C4268     1.0  0.75258  0.81784  0.65841  1.0000
  H   H7304     1.0  0.74492  0.87290  0.87555  1.0000
  H   H7305     1.0  0.83138  0.80066  0.54966  1.0000
  H   H7306     1.0  0.77947  0.84071  0.66938  1.0000
  H   H7307     1.0  0.84966  0.75003  0.56552  1.0000
  N   N305      1.0  0.86192  0.74591  0.73167  1.0000
  H   H7308     1.0  0.91205  0.73820  0.77884  1.0000
  H   H7309     1.0  0.93038  0.74076  0.83400  1.0000
  H   H7310     1.0  0.77112  0.86238  0.68011  1.0000
  C   C4269     1.0  0.86247  0.80334  0.69752  1.0000
  C   C4270     1.0  0.86477  0.81534  0.68412  1.0000
  C   C4271     1.0  0.85600  0.81837  0.67255  1.0000
  C   C4272     1.0  0.84505  0.80932  0.67434  1.0000
  C   C4273     1.0  0.84302  0.79718  0.68761  1.0000
  C   C4274     1.0  0.85156  0.79436  0.69920  1.0000
  H   H7311     1.0  0.87328  0.82226  0.68268  1.0000
  H   H7312     1.0  0.85767  0.82772  0.66224  1.0000
  H   H7313     1.0  0.83467  0.79012  0.68910  1.0000
  H   H7314     1.0  0.84945  0.78538  0.70964  1.0000
  C   C4275     1.0  0.88809  0.79462  0.77052  1.0000
  C   C4276     1.0  0.88111  0.79212  0.75972  1.0000
  C   C4277     1.0  0.87739  0.77768  0.76165  1.0000
  C   C4278     1.0  0.88040  0.76564  0.77455  1.0000
  C   C4279     1.0  0.88731  0.76806  0.78550  1.0000
  C   C4280     1.0  0.89122  0.78255  0.78347  1.0000
  H   H7315     1.0  0.87846  0.80132  0.74980  1.0000
  H   H7316     1.0  0.87206  0.77594  0.75312  1.0000
  H   H7317     1.0  0.88976  0.75875  0.79542  1.0000
  H   H7318     1.0  0.89665  0.78440  0.79186  1.0000
  S   S1240     1.0  0.75872  0.89199  0.73813  1.0000
  C   C4281     1.0  0.81716  0.88302  0.73860  1.0000
  C   C4282     1.0  0.82056  0.89189  0.72329  1.0000
  C   C4283     1.0  0.83613  0.88992  0.71443  1.0000
  C   C4284     1.0  0.84823  0.87870  0.72069  1.0000
  C   C4285     1.0  0.84480  0.86987  0.73601  1.0000
  C   C4286     1.0  0.82933  0.87209  0.74497  1.0000
  H   H7319     1.0  0.81116  0.90002  0.71820  1.0000
  H   H7320     1.0  0.83872  0.89667  0.70251  1.0000
  H   H7321     1.0  0.85411  0.86144  0.74105  1.0000
  H   H7322     1.0  0.82676  0.86524  0.75685  1.0000
  H   H7323     1.0  0.80096  0.84432  0.69093  1.0000
  H   H7324     1.0  0.81624  0.92638  0.70150  1.0000
  H   H7325     1.0  0.85393  0.78031  0.52687  1.0000
  H   H7326     1.0  0.92743  0.80856  0.75593  1.0000
  H   H7327     1.0  0.84046  0.76103  0.53298  1.0000
  H   H7328     1.0  0.98011  0.74103  0.50796  1.0000
  C   C4287     1.0  0.75349  0.86923  0.66607  1.0000
  H   H7329     1.0  0.93702  0.76115  0.80478  1.0000
  Fe  Fe621     1.0  0.74220  0.91084  0.74975  1.0000
  H   H7330     1.0  0.75870  0.85463  0.72852  1.0000
  C   C4288     1.0  0.96155  0.81245  0.76290  1.0000
  C   C4289     1.0  0.94183  0.76758  0.77869  1.0000
  H   H7331     1.0  0.95210  0.75815  0.75118  1.0000
  C   C4290     1.0  0.96899  0.85712  0.70462  1.0000
  C   C4291     1.0  0.95368  0.86315  0.70201  1.0000
  C   C4292     1.0  0.94453  0.85305  0.70164  1.0000
  C   C4293     1.0  0.95090  0.83694  0.70327  1.0000
  C   C4294     1.0  0.96616  0.83088  0.70597  1.0000
  C   C4295     1.0  0.97506  0.84090  0.70695  1.0000
  H   H7332     1.0  0.94890  0.87568  0.70018  1.0000
  H   H7333     1.0  0.93279  0.85782  0.69945  1.0000
  H   H7334     1.0  0.97118  0.81843  0.70711  1.0000
  C   C4296     1.0  0.75889  0.84656  0.70794  1.0000
  C   C4297     1.0  0.86833  0.74603  0.59823  1.0000
  C   C4298     1.0  0.86537  0.75689  0.60771  1.0000
  C   C4299     1.0  0.85098  0.75957  0.61865  1.0000
  C   C4300     1.0  0.83935  0.75155  0.62001  1.0000
  H   H7335     1.0  0.75809  0.85980  0.65935  1.0000
  H   H7336     1.0  0.74337  0.78730  0.95399  1.0000
  H   H7337     1.0  0.87423  0.76330  0.60656  1.0000
  H   H7338     1.0  0.84880  0.76799  0.62587  1.0000
  H   H7339     1.0  0.96705  0.81252  0.77243  1.0000
  H   H7340     1.0  0.96817  0.85047  0.65765  1.0000
  N   N306      1.0  0.81047  0.95984  0.71656  1.0000
  H   H7341     1.0  0.82188  0.98031  0.72577  1.0000
  N   N307      1.0  0.85584  0.77175  0.55121  1.0000
  S   S1241     1.0  0.82392  0.74664  0.70777  1.0000
  H   H7342     1.0  0.77193  0.84457  0.70464  1.0000
  N   N308      1.0  0.75217  0.85052  0.69350  1.0000
  H   H7343     1.0  0.90073  0.74665  0.73085  1.0000
  H   H7344     1.0  0.81445  0.95382  0.69395  1.0000
  S   S1242     1.0  0.77862  0.91886  0.71674  1.0000
  Fe  Fe622     1.0  0.76062  0.93581  0.73032  1.0000
  H   H7345     1.0  0.79248  0.86182  0.70789  1.0000
  H   H7346     1.0  0.95812  0.80087  0.76669  1.0000
  H   H7347     1.0  0.95078  0.77329  0.76944  1.0000
  H   H7348     1.0  0.80058  0.83414  0.71130  1.0000
  H   H7349     1.0  0.83396  0.95938  0.70212  1.0000
  C   C4301     1.0  0.84543  0.75222  0.54256  1.0000
  C   C4302     1.0  0.82769  0.95942  0.71458  1.0000
  H   H7350     1.0  0.83773  0.76734  0.58457  1.0000
  H   H7351     1.0  0.98687  0.83613  0.70879  1.0000
  H   H7352     1.0  0.88864  0.74202  0.48077  1.0000
  C   C4303     1.0  0.76151  0.96663  0.75159  1.0000
  H   H7353     1.0  0.86407  0.77073  0.57195  1.0000
  H   H7354     1.0  0.76259  0.77034  0.93703  1.0000
  H   H7355     1.0  0.96295  0.86009  0.74743  1.0000
  H   H7356     1.0  0.93245  0.81535  0.73527  1.0000
  C   C4304     1.0  0.74821  0.80920  0.67371  1.0000
  H   H7357     1.0  0.76342  0.97098  0.77319  1.0000
  C   C4305     1.0  0.88533  0.77312  0.54231  1.0000
  C   C4306     1.0  0.87822  0.74030  0.73502  1.0000
  C   C4307     1.0  0.85136  0.78486  0.53775  1.0000
  H   H7358     1.0  0.82896  0.78569  0.57316  1.0000
  C   C4308     1.0  0.84577  0.75973  0.55581  1.0000
  N   N309      1.0  0.94742  0.82589  0.76179  1.0000
  C   C4309     1.0  0.93474  0.82252  0.77634  1.0000
  H   H7359     1.0  0.92640  0.76453  0.74241  1.0000
  C   C4310     1.0  0.95141  0.84112  0.76152  1.0000
  H   H7360     1.0  0.95907  0.73967  0.79114  1.0000
  C   C4311     1.0  0.93861  0.82182  0.79213  1.0000
  C   C4312     1.0  0.82499  0.73649  0.88108  1.0000
  C   C4313     1.0  0.75203  0.77759  0.93330  1.0000
  H   H7361     1.0  0.75100  0.83834  0.67665  1.0000
  H   H7362     1.0  0.92357  0.83151  0.77546  1.0000
  H   H7363     1.0  0.93176  0.81107  0.77760  1.0000
  H   H7364     1.0  0.96562  0.77435  0.51344  1.0000
  C   C4314     1.0  0.80254  0.96207  0.74587  1.0000
  H   H7365     1.0  0.94060  0.84960  0.76587  1.0000
  H   H7366     1.0  0.95940  0.83911  0.76963  1.0000
  H   H7367     1.0  0.83765  0.74367  0.54755  1.0000
  H   H7368     1.0  0.96116  0.76449  0.53915  1.0000
  H   H7369     1.0  0.94079  0.83309  0.79264  1.0000
  H   H7370     1.0  0.92833  0.81947  0.80179  1.0000
  H   H7371     1.0  0.94876  0.81213  0.79470  1.0000
  H   H7372     1.0  0.98142  0.79954  0.74828  1.0000
  H   H7373     1.0  0.89710  0.76541  0.53916  1.0000
  H   H7374     1.0  0.94848  0.83173  0.73656  1.0000
  H   H7375     1.0  0.83710  0.98079  0.70813  1.0000
  C   C4315     1.0  0.80329  0.95313  0.73339  1.0000
  H   H7376     1.0  0.95067  0.85565  0.73770  1.0000
  N   N310      1.0  0.97120  0.74178  0.53285  1.0000
  H   H7377     1.0  0.87595  0.75269  0.55477  1.0000
  C   C4316     1.0  0.96467  0.74819  0.56048  1.0000
  H   H7378     1.0  0.97065  0.76722  0.49588  1.0000
  C   C4317     1.0  0.85678  0.73784  0.59977  1.0000
  H   H7379     1.0  0.75866  0.87941  0.65889  1.0000
  C   C4318     1.0  0.84232  0.74068  0.61053  1.0000
  C   C4319     1.0  0.85500  0.77815  0.56528  1.0000
  H   H7380     1.0  0.75636  0.83528  0.71574  1.0000
  H   H7381     1.0  0.84024  0.78535  0.58667  1.0000
  C   C4320     1.0  0.92886  0.74523  0.78770  1.0000
  H   H7382     1.0  0.94363  0.73908  0.48794  1.0000
  H   H7383     1.0  0.95394  0.76239  0.51066  1.0000
  H   H7384     1.0  0.74545  0.89498  0.80990  1.0000
  H   H7385     1.0  0.87424  0.75939  0.53483  1.0000
  C   C4321     1.0  0.92688  0.76549  0.75423  1.0000
  C   C4322     1.0  0.94162  0.75388  0.75920  1.0000
  C   C4323     1.0  0.87266  0.76345  0.54580  1.0000
  H   H7386     1.0  0.95337  0.74431  0.56412  1.0000
  H   H7387     1.0  0.94577  0.74861  0.53691  1.0000
  H   H7388     1.0  0.80541  0.75570  0.95445  1.0000
  H   H7389     1.0  0.82570  0.78630  0.54297  1.0000
  N   N311      1.0  0.82584  0.84845  0.70596  1.0000
  C   C4324     1.0  0.84317  0.84835  0.70276  1.0000
  C   C4325     1.0  0.82045  0.84299  0.72350  1.0000
  C   C4326     1.0  0.81716  0.86508  0.70044  1.0000
  C   C4327     1.0  0.82410  0.83759  0.69693  1.0000
  C   C4328     1.0  0.85057  0.85661  0.68607  1.0000
  C   C4329     1.0  0.82826  0.82604  0.73062  1.0000
  C   C4330     1.0  0.79958  0.86978  0.70828  1.0000
  C   C4331     1.0  0.80749  0.83499  0.69909  1.0000
  H   H7390     1.0  0.84549  0.85395  0.71111  1.0000
  H   H7391     1.0  0.85034  0.83615  0.70474  1.0000
  H   H7392     1.0  0.80760  0.84364  0.72708  1.0000
  H   H7393     1.0  0.82250  0.85099  0.72977  1.0000
  H   H7394     1.0  0.82273  0.87362  0.70247  1.0000
  H   H7395     1.0  0.81809  0.86779  0.68749  1.0000
  H   H7396     1.0  0.82809  0.84192  0.68407  1.0000
  H   H7397     1.0  0.83208  0.82591  0.69933  1.0000
  H   H7398     1.0  0.84581  0.86948  0.68371  1.0000
  H   H7399     1.0  0.86340  0.85494  0.68514  1.0000
  H   H7400     1.0  0.84930  0.85163  0.67674  1.0000
  H   H7401     1.0  0.82578  0.81725  0.72574  1.0000
  H   H7402     1.0  0.84114  0.82439  0.72908  1.0000
  H   H7403     1.0  0.82335  0.82347  0.74349  1.0000
  H   H7404     1.0  0.79453  0.88171  0.70197  1.0000
  H   H7405     1.0  0.79810  0.87060  0.72064  1.0000
  H   H7406     1.0  0.79543  0.73936  0.70571  1.0000
  H   H7407     1.0  0.80859  0.82344  0.69638  1.0000
  N   N312      1.0  0.84236  0.78484  0.81670  1.0000
  C   C4332     1.0  0.85012  0.78209  0.83031  1.0000
  C   C4333     1.0  0.82496  0.79070  0.82255  1.0000
  C   C4334     1.0  0.84884  0.79751  0.80384  1.0000
  C   C4335     1.0  0.84610  0.76967  0.81122  1.0000
  C   C4336     1.0  0.86828  0.77747  0.82669  1.0000
  C   C4337     1.0  0.81683  0.77941  0.83658  1.0000
  C   C4338     1.0  0.84274  0.80227  0.78856  1.0000
  C   C4339     1.0  0.83483  0.76778  0.80207  1.0000
  H   H7408     1.0  0.84660  0.79270  0.83547  1.0000
  H   H7409     1.0  0.84617  0.77247  0.84002  1.0000
  H   H7410     1.0  0.81830  0.79364  0.81319  1.0000
  H   H7411     1.0  0.82278  0.80201  0.82623  1.0000
  H   H7412     1.0  0.84671  0.80837  0.80830  1.0000
  H   H7413     1.0  0.86179  0.79388  0.79996  1.0000
  H   H7414     1.0  0.85816  0.76771  0.80379  1.0000
  H   H7415     1.0  0.84627  0.75955  0.82147  1.0000
  H   H7416     1.0  0.87294  0.76773  0.82041  1.0000
  H   H7417     1.0  0.87360  0.78767  0.81996  1.0000
  H   H7418     1.0  0.87231  0.77334  0.83797  1.0000
  H   H7419     1.0  0.81981  0.77924  0.84773  1.0000
  H   H7420     1.0  0.80386  0.78357  0.83821  1.0000
  H   H7421     1.0  0.81983  0.76724  0.83481  1.0000
  H   H7422     1.0  0.84670  0.79256  0.78217  1.0000
  H   H7423     1.0  0.84805  0.81209  0.78057  1.0000
  H   H7424     1.0  0.82981  0.80659  0.79051  1.0000
  H   H7425     1.0  0.84191  0.76170  0.79245  1.0000
  H   H7426     1.0  0.82769  0.77877  0.79647  1.0000
  H   H7427     1.0  0.82699  0.75989  0.80977  1.0000
  H   H7428     1.0  0.97084  0.83056  0.66912  1.0000
  Fe  Fe623     1.0  0.77232  0.74373  0.92473  1.0000
  H   H7429     1.0  0.84395  0.73548  0.76282  1.0000
  H   H7430     1.0  0.80307  0.75705  0.97437  1.0000
  C   C4340     1.0  0.95531  0.73787  0.53595  1.0000
  H   H7431     1.0  0.83283  0.76847  0.72799  1.0000
  C   C4341     1.0  0.96601  0.76411  0.50879  1.0000
  Fe  Fe624     1.0  0.75789  0.91029  0.71589  1.0000
  H   H7432     1.0  0.97119  0.81620  0.73699  1.0000
  H   H7433     1.0  0.76440  0.81468  0.65161  1.0000
  H   H7434     1.0  0.83225  0.80275  0.52934  1.0000
  H   H7435     1.0  0.83669  0.73959  0.92186  1.0000
  C   C4342     1.0  0.76073  0.97315  0.73584  1.0000
  C   C4343     1.0  0.88976  0.75123  0.72631  1.0000
  H   H7436     1.0  0.98361  0.81862  0.74825  1.0000
  C   C4344     1.0  0.83413  0.79399  0.54033  1.0000
  S   S1243     1.0  0.79218  0.74072  0.93625  1.0000
  H   H7437     1.0  0.86809  0.76151  0.70888  1.0000
  H   H7438     1.0  0.80995  0.94105  0.73748  1.0000
  C   C4345     1.0  0.77506  0.83154  0.67925  1.0000
  H   H7439     1.0  0.83329  0.76477  0.56066  1.0000
  H   H7440     1.0  0.85861  0.79378  0.53484  1.0000
  H   H7441     1.0  0.82141  0.75793  0.96137  1.0000
  C   C4346     1.0  0.94442  0.76787  0.79475  1.0000
  H   H7442     1.0  0.98564  0.79929  0.79126  1.0000
  H   H7443     1.0  0.76174  0.95426  0.75631  1.0000
  S   S1244     1.0  0.76098  0.96166  0.72290  1.0000
  H   H7444     1.0  0.83336  0.73445  0.61151  1.0000
  H   H7445     1.0  0.78855  0.97560  0.71258  1.0000
  C   C4347     1.0  0.95799  0.74115  0.77885  1.0000
  H   H7446     1.0  0.97574  0.84501  0.67520  1.0000
  C   C4348     1.0  0.85348  0.75971  0.73924  1.0000
  S   S1245     1.0  0.98062  0.87015  0.70377  1.0000
  H   H7447     1.0  0.88497  0.76334  0.72827  1.0000
  H   H7448     1.0  0.88543  0.77730  0.55268  1.0000
  C   C4349     1.0  0.83562  0.76528  0.73978  1.0000
  C   C4350     1.0  0.83722  0.74076  0.93359  1.0000
  C   C4351     1.0  0.74929  0.77744  0.91891  1.0000
  H   H7449     1.0  0.94271  0.73828  0.51830  1.0000
  C   C4352     1.0  0.83175  0.97301  0.71890  1.0000
  H   H7450     1.0  0.85878  0.77008  0.73307  1.0000
  H   H7451     1.0  0.81755  0.74730  0.87620  1.0000
  C   C4353     1.0  0.75346  0.85916  0.71797  1.0000
  C   C4354     1.0  0.81141  0.75214  0.96445  1.0000
  C   C4355     1.0  0.97598  0.84118  0.66463  1.0000
  H   H7452     1.0  0.80994  0.92610  0.72196  1.0000
  H   H7453     1.0  0.82854  0.75153  0.93597  1.0000
  H   H7454     1.0  0.98853  0.75249  0.51453  1.0000
  H   H7455     1.0  0.82894  0.75643  0.74753  1.0000
  H   H7456     1.0  0.92551  0.74879  0.48200  1.0000
  C   C4356     1.0  0.83949  0.77921  0.57793  1.0000
  H   H7457     1.0  0.85712  0.74549  0.53759  1.0000
  C   C4357     1.0  0.74162  0.83072  0.65199  1.0000
  C   C4358     1.0  0.95916  0.85024  0.74551  1.0000
  C   C4359     1.0  0.98789  0.87430  0.65764  1.0000
  H   H7458     1.0  0.96977  0.84300  0.73943  1.0000
  H   H7459     1.0  0.91584  0.76296  0.76238  1.0000
  H   H7460     1.0  0.82808  0.73502  0.66231  1.0000
  H   H7461     1.0  0.79582  0.97437  0.74361  1.0000
  H   H7462     1.0  0.85059  0.75556  0.71188  1.0000
  H   H7463     1.0  0.79623  0.95620  0.75741  1.0000
  S   S1246     1.0  0.75349  0.90448  0.69511  1.0000
  C   C4360     1.0  0.97715  0.74923  0.51590  1.0000
  C   C4361     1.0  0.87070  0.73845  0.70445  1.0000
  H   H7464     1.0  0.92960  0.83697  0.74803  1.0000
  H   H7465     1.0  0.84088  0.96806  0.72605  1.0000
  H   H7466     1.0  0.98132  0.75705  0.54010  1.0000
  H   H7467     1.0  0.94749  0.80301  0.74503  1.0000
  C   C4362     1.0  0.94061  0.82763  0.74782  1.0000
  H   H7468     1.0  0.94124  0.78019  0.79621  1.0000
  H   H7469     1.0  0.74544  0.89900  0.78164  1.0000
  H   H7470     1.0  0.91842  0.75496  0.78962  1.0000
  H   H7471     1.0  0.83343  0.94820  0.72158  1.0000
  C   C4363     1.0  0.97508  0.81192  0.74822  1.0000
  H   H7472     1.0  0.75760  0.87008  0.71152  1.0000
  S   S1247     1.0  0.75594  0.73632  0.94736  1.0000
  H   H7473     1.0  0.97385  0.73887  0.56551  1.0000
  H   H7474     1.0  0.94227  0.74271  0.75613  1.0000
  H   H7475     1.0  0.96789  0.74661  0.77116  1.0000
  S   S1248     1.0  0.87517  0.74787  0.77670  1.0000
  H   H7476     1.0  0.85499  0.75722  0.75155  1.0000
  H   H7477     1.0  0.89313  0.75156  0.71350  1.0000
  H   H7478     1.0  0.96292  0.75827  0.56597  1.0000
  C   C4364     1.0  0.86262  0.75114  0.71424  1.0000
  C   C4365     1.0  0.76247  0.97610  0.76111  1.0000
  H   H7479     1.0  0.75360  0.87492  0.68736  1.0000
  H   H7480     1.0  0.87617  0.74410  0.69239  1.0000
  H   H7481     1.0  0.80371  0.97919  0.68572  1.0000
  C   C4366     1.0  0.75727  0.83640  0.68618  1.0000
  H   H7482     1.0  0.97694  0.87026  0.66405  1.0000
  H   H7483     1.0  0.75393  0.82587  0.69490  1.0000
  H   H7484     1.0  0.84174  0.73594  0.73488  1.0000
  H   H7485     1.0  0.98433  0.88612  0.65027  1.0000
  H   H7486     1.0  0.84931  0.74212  0.93252  1.0000
  H   H7487     1.0  0.93187  0.74006  0.79939  1.0000
  H   H7488     1.0  0.87765  0.73869  0.74778  1.0000
  C   C4367     1.0  0.80099  0.97609  0.71126  1.0000
  C   C4368     1.0  0.81568  0.73408  0.96973  1.0000
