data_image0
_chemical_formula_structural       H2C2Fe2SCFeSFeSHCFeH2NCSCHCSCNC2H4FeS2FeSHSHCH4CH4C4HCH2CNHC5H2NHFeH2C6H4CH2SH3SHCH3CH5CHCFeH2C2HCH8C2SH4CH8SHNH6CHSHC2H2CH3C5HSHC4HSH3FeH3SHCSH5SCSCH2C2HCHNFeH2C2HCH5SH2CHSHFeS2HFeS2CHCH2S3HCHSCHS2HCSH3CSCFeH2C6H2CHC6H2SHFeHC2H2C6H4CHC3HCH5SCFeH2NCSHC2H5CH3CHCH3C2H3C2HCNCHFeH2CH5C2SHCFeCHCH2NHC2H3SH14CHSCHCSCH3FeS2FeS2FeSFeS3HSHCHFeSH4SCH2CHCHCH2C3HCHC6H4C6H4SH2C7H4FeSFeC6H3CHC2HCHC2HCH3CH2CHCHSH5CH3C2HC2SHCFeHCH7SHSHCH4CH2CH2NSHNH3CH4C2SH4FeH5CH5NC8H2CH10FeH5FeNHCHNHSH3CH5CHC2HCHCH5FeHSH2C3H3SCH3CH3SC3H7CFeS4HCHSFeS2FeS2FeSFeS3HSH2C2SH2SFeSHNC7H4C6H4C2H2NC2H5CHSH2SH3C6H5C3H2C6HCHCH2CH5C2H2SFeH2FeCH4C2FeH2SH6CHSHNC4SCH2FeH3CH2CNHFeH4CHCH2CHCH4CHC2H4SNHSH2SHSC2HCFeC2HCH3FeCH2CSH5CH2CHCH7FeNCFeSH3SC3H2CH2CH2CHCH3CHNCH4SCHCH3C3H3CH4FeH2CFeNCHNH3CHCHC4H2C4H4CH4C2H5CHCHSH6C3HCH5SCH3CHFeH8C3H2C2SHC2H3CH2CHSH2NSFeS2FeS2FeSFeS3H6C2S2H5C7H2CH2C2H5C6H4C6H4C2HCHSHNH3C6H2SCH4C2H2FeC2FeH15CFeH5CH4CHCSH2CH4C2H2CH3C2H7CH2CSC2HCH3FeCH4CSFeHNC7H8CHCHNHCSCHCH6C3SHC2H3CSCH4CFeHSH3FeS2FeS2FeSFeS3FeHSFeHFeH2SCS2C3H2C2HFeHC6H4CHCH2C6H4SHFeHC8H10CHCHC4HCH3SHSH5NH9FeHCH3CH3C3HNC4HC3H8SFeCH6CH2CHCH13C2HNCH3C2S2H3FeHCH2CHC2HC2H3NH3CH2FeCH3CHCH3C2H4CHCNHC2H4SH5CH5CNSH2CH2CH5CH2SHNC4H2CH2SHCH8CNC4HC2H2C2H2CSC2H2CH3SCH3CH4FeCH2C2FeHCHSC4H2S2H3C2HCSHCH2C2SH4C2HC3H7FeCFeS2FeSFeHS2H6CHSFeS2FeSFeSH3SFeCH2SFeHNCH2CHC6H5CHSHC7H4C3H2CHC2HCH2CHCH2CHC2HNC5FeH4S2CH2C2H3C2NH2C2H2C3H9SH2SHC3H3NCHSH3CHCH2CH2CH2CH6CHCHCHSH2SHCH4C2FeH3S2H5FeS2FeS2FeSFeSHCSHNCHFeSHFeHS2HFeHSFeHSC3S3HCH2C6H6C7H3C6H6NHC6H4C3H3CH2NH2C4H2CH2C2HCHSHCH5NCHSHFeC2HCHCHC2H2CSHCH7FeH2NH2CH2CHCHCH5CH2CH9C4FeCH2CH2NHCHFeSCHCH2CSHCH2NH8CHC2HCH6CHCH12CH2C3H3CHSFeS2FeS2FeSFeS3HFeHSHC2S2H2FeHFeH3SC2SC6H4C6H4C6H4C4FeCH2C2H2C2HC6H5SHSCH5NH4SHCH3CH2FeH2CH2C2H3NCSCNCH2CHCH3CFeNH4C2HFeCH2CHCH2C2H4C2H5S2HCHCSH3SH7FeHNH2CHC2H2CHCFeCH8C3NHC2H2CH2CSCSH2CH5CNC2H4C2H4C2H2CHCH5CH2C2H3SFe2CHC2H4NHCH8NHCH2CHC2H5C3H3CH6CHC2H2CH3CH2C2H3FeH10CHCH2C3H4SCHNH3CH3SFeH2CSCHCHSHCFeS2FeS2FeSFeS3H2SHSH3CSH3SHCFeH3SHCH2NH2C6H4C2HC3H4SC3H5C3H4C6H3C7H5FeC2H3CH5CHSCSH2FeHCH7NC8H10NH3C2H2C2NC3H2CH4CHCHCH2SCH2CH4FeH2CH2SCH2NH2CSH2C2H2CHCH4SHC2H2SH2CHCH2CHCH3CH9CHCH4C2H2CHCH2NH3CH9C2HC2HC2H2CHCH6SCSHNSFe2SFeS2FeH2FeSHCSHSFeSCFeS2FeNFeHFeS3CHCH4CSCHC6H4C6H4C6H4C6H5C2H4CHCHCHC2H3CH3CH4C2SH3CHCH2SH4FeSH2CH2SH7NCHSHC2H6CH2C3H2CH3C2HC3H4CH5CSCH2CH11CHCH2CHC2HSCH2N2H3SH2CSHC2SHCHCH2CHNH2FeC3FeC2H2C2H7FeS2FeHFeHFeS3FeHSFeCSCFeS3HCS2HFeH2SH2C2H4C6H4C2H3C6H5C4HSH2CH4C2H3NHC2HCH2CHCH2CH2SH3SCH3CFeH7C2FeCSCH2C4H3C2HC2HCHSC2HC2H4C2H5CH3CNCH3CH4CSNCH3C2H4CH5C2FeHSC2SHFeSHFeSCFeSFeSHSHCHSCHC2HNC7H8CH2C6H4CFeCHCH4C3SC7H4C2H5CHCH3SHC3SHSH2CH8CH2SHCHC3H2NHCH4CH3SH3NCH2NH9NC2HC2H2C3SCHCH8CH2CH2CH4CHCH6CH2SHNSH3CH3CHC3HCHSH4CH2CH3CSNHSHCHCNSFeS2HFeS3H3FeHSFeHSHFeCS2H2SH3CNCHSH3CHC6H6SHC2SCH2FeCH2C3H4C2HC4H4CH2C2H2FeH3C2H3C3H2CH3C4H2C3H5CH7CNC2HC2SHFeH4S2H2NHC2H3FeNHCH6CH3C2SC2SH2CHFeCHCH6CHSH5C2HFeS2FeS2FeSFeS5HSHCFeS2HFeS2H2S2H2C2HCHCHSH2SCH2C5HFe2C6H4C6H4SHC6H3CFe2CH3C6H4NC3H2CH8CH3SH6CH6C2H5CH9CH2CFeC2HFeCH2CHNHCH2NC8H13CH4CHNHC3H2CH5C2H3CHCSHCH2CH2CHCHSC3NH4CH4FeSH3SHFeC2H2C2SHC2HNSC3HFeHCHC2HCH10CHFeC4H2CH4C2HNH7FeH3CH2CH2CSH3CH4CHCH4SCFeHCHCSC2HCH2C2HCH2FeHSHSHSFeS2FeS2FeSFeS4HSFeHSHNH2NFeH2SHC6H4CH3C6H6C8H4C4H4SHC6H4CHSH2CHSH3SCFeHCHCH2C3HCH5NC3Fe2HFe2S2H2SCH3C2HCH7C2H5CHC2HCH3CH9SCHCHCH2C2HCH2C3HSHC2SH2CNHFeH3SH5SH2CHCH2C2H3C3HC2H3CHCH6CFeH8CSHCHCHCHCH4CHNHCSCH2CNH
_chemical_formula_sum              "H2304 C1344 Fe192 S384 N96"
_cell_length_a       56.7314
_cell_length_b       56.7533
_cell_length_c       56.5648
_cell_angle_alpha    84.4007
_cell_angle_beta     84.4042
_cell_angle_gamma    84.3455

_space_group_name_H-M_alt    "P 1"
_space_group_IT_number       1

loop_
  _space_group_symop_operation_xyz
  'x, y, z'

loop_
  _atom_site_type_symbol
  _atom_site_label
  _atom_site_symmetry_multiplicity
  _atom_site_fract_x
  _atom_site_fract_y
  _atom_site_fract_z
  _atom_site_occupancy
  H   H1        1.0  0.25746  0.14143  0.30253  1.0000
  H   H2        1.0  0.42672  0.15933  0.15343  1.0000
  C   C1        1.0  0.21386  0.16754  0.31287  1.0000
  C   C2        1.0  0.40466  0.14040  0.33372  1.0000
  Fe  Fe1       1.0  0.44198  0.20397  0.21773  1.0000
  Fe  Fe2       1.0  0.00770  0.14919  0.45419  1.0000
  S   S1        1.0  0.02934  0.13288  0.42348  1.0000
  C   C3        1.0  0.35164  0.16497  0.16818  1.0000
  Fe  Fe3       1.0  0.01545  0.09852  0.44021  1.0000
  S   S2        1.0  0.00014  0.07122  0.42043  1.0000
  Fe  Fe4       1.0  0.05841  0.12578  0.44841  1.0000
  S   S3        1.0  0.09770  0.13372  0.44263  1.0000
  H   H3        1.0  0.43419  0.09873  0.36866  1.0000
  C   C4        1.0  0.23345  0.13361  0.33510  1.0000
  Fe  Fe5       1.0  0.25061  0.20559  0.34836  1.0000
  H   H4        1.0  0.35260  0.21264  0.32660  1.0000
  H   H5        1.0  0.38380  0.17307  0.38726  1.0000
  N   N1        1.0  0.20965  0.14435  0.32751  1.0000
  C   C5        1.0  0.38488  0.14355  0.12799  1.0000
  S   S4        1.0  0.27424  0.18224  0.32338  1.0000
  C   C6        1.0  0.34998  0.19549  0.39110  1.0000
  H   H6        1.0  0.18060  0.13671  0.30827  1.0000
  C   C7        1.0  0.43935  0.11010  0.33008  1.0000
  S   S5        1.0  0.23066  0.18878  0.38097  1.0000
  C   C8        1.0  0.97883  0.12501  0.38291  1.0000
  N   N2        1.0  0.47458  0.03226  0.22204  1.0000
  C   C9        1.0  0.98835  0.20809  0.45824  1.0000
  C   C10       1.0  0.35897  0.20943  0.12161  1.0000
  H   H7        1.0  0.31615  0.14562  0.38866  1.0000
  H   H8        1.0  0.33723  0.17630  0.15964  1.0000
  H   H9        1.0  0.43513  0.10303  0.31344  1.0000
  H   H10       1.0  0.97628  0.03467  0.40334  1.0000
  Fe  Fe6       1.0  0.41542  0.16182  0.20822  1.0000
  S   S6        1.0  0.43428  0.16972  0.23951  1.0000
  S   S7        1.0  0.41595  0.12438  0.19506  1.0000
  Fe  Fe7       1.0  0.39969  0.19014  0.25205  1.0000
  S   S8        1.0  0.38444  0.18990  0.29096  1.0000
  H   H11       1.0  0.33819  0.20962  0.43553  1.0000
  S   S9        1.0  0.38018  0.17960  0.22274  1.0000
  H   H12       1.0  0.29384  0.16250  0.37259  1.0000
  C   C11       1.0  0.19308  0.13175  0.37117  1.0000
  H   H13       1.0  0.17962  0.18886  0.32111  1.0000
  H   H14       1.0  0.17416  0.15322  0.34438  1.0000
  H   H15       1.0  0.47353  0.00297  0.18276  1.0000
  H   H16       1.0  0.37161  0.18320  0.36004  1.0000
  C   C12       1.0  0.33779  0.16448  0.42387  1.0000
  H   H17       1.0  0.35935  0.15917  0.37786  1.0000
  H   H18       1.0  0.43751  0.00547  0.20872  1.0000
  H   H19       1.0  0.45931  0.06560  0.40591  1.0000
  H   H20       1.0  0.39705  0.13277  0.14007  1.0000
  C   C13       1.0  0.45716  0.11606  0.16426  1.0000
  C   C14       1.0  0.43551  0.10813  0.17436  1.0000
  C   C15       1.0  0.42909  0.08634  0.16808  1.0000
  C   C16       1.0  0.44394  0.07276  0.15187  1.0000
  H   H21       1.0  0.22508  0.16454  0.29601  1.0000
  C   C17       1.0  0.34226  0.20188  0.31754  1.0000
  H   H22       1.0  0.41243  0.07994  0.17574  1.0000
  H   H23       1.0  0.43857  0.05620  0.14711  1.0000
  C   C18       1.0  0.30439  0.18644  0.31345  1.0000
  N   N3        1.0  0.38330  0.16951  0.13218  1.0000
  H   H24       1.0  0.34317  0.14938  0.41298  1.0000
  C   C19       1.0  0.35327  0.18964  0.29835  1.0000
  C   C20       1.0  0.33966  0.17592  0.28667  1.0000
  C   C21       1.0  0.31547  0.17410  0.29439  1.0000
  C   C22       1.0  0.36678  0.17627  0.37877  1.0000
  C   C23       1.0  0.46377  0.03402  0.38677  1.0000
  H   H25       1.0  0.43305  0.14059  0.29153  1.0000
  H   H26       1.0  0.30528  0.16306  0.28549  1.0000
  N   N4        1.0  0.43138  0.13625  0.33014  1.0000
  H   H27       1.0  0.47058  0.15836  0.28306  1.0000
  Fe  Fe8       1.0  0.24058  0.21931  0.39946  1.0000
  H   H28       1.0  0.38939  0.16094  0.16935  1.0000
  H   H29       1.0  0.98233  0.13779  0.36714  1.0000
  C   C24       1.0  0.11488  0.15247  0.42198  1.0000
  C   C25       1.0  0.10694  0.16241  0.40021  1.0000
  C   C26       1.0  0.12135  0.17712  0.38452  1.0000
  C   C27       1.0  0.14377  0.18225  0.39040  1.0000
  C   C28       1.0  0.15173  0.17222  0.41211  1.0000
  C   C29       1.0  0.13744  0.15735  0.42767  1.0000
  H   H30       1.0  0.08978  0.15865  0.39542  1.0000
  H   H31       1.0  0.34800  0.17424  0.11969  1.0000
  H   H32       1.0  0.16891  0.17591  0.41693  1.0000
  H   H33       1.0  0.14385  0.14965  0.44438  1.0000
  C   C30       1.0  0.37660  0.17197  0.15834  1.0000
  H   H34       1.0  0.19698  0.16685  0.35569  1.0000
  H   H35       1.0  0.37778  0.19051  0.16261  1.0000
  S   S10       1.0  0.16083  0.20150  0.37019  1.0000
  H   H36       1.0  0.17804  0.10187  0.33291  1.0000
  H   H37       1.0  0.34792  0.16623  0.27203  1.0000
  H   H38       1.0  0.20946  0.13197  0.38038  1.0000
  S   S11       1.0  0.99213  0.11550  0.46899  1.0000
  H   H39       1.0  0.32391  0.16738  0.36388  1.0000
  C   C31       1.0  0.47477  0.02297  0.36683  1.0000
  H   H40       1.0  0.22392  0.17869  0.32271  1.0000
  H   H41       1.0  0.34242  0.20809  0.37680  1.0000
  H   H42       1.0  0.45178  0.02443  0.39940  1.0000
  C   C32       1.0  0.46806  0.05736  0.39053  1.0000
  H   H43       1.0  0.39410  0.10976  0.31677  1.0000
  H   H44       1.0  0.46257  0.13262  0.16898  1.0000
  H   H45       1.0  0.30919  0.19979  0.43995  1.0000
  H   H46       1.0  0.40677  0.19746  0.13226  1.0000
  H   H47       1.0  0.37137  0.13349  0.32082  1.0000
  C   C33       1.0  0.35832  0.16613  0.43950  1.0000
  H   H48       1.0  0.34622  0.21772  0.10885  1.0000
  C   C34       1.0  0.44187  0.14583  0.35037  1.0000
  Fe  Fe9       1.0  0.45670  0.14264  0.45345  1.0000
  H   H49       1.0  0.37087  0.18268  0.09793  1.0000
  H   H50       1.0  0.45450  0.08568  0.21768  1.0000
  C   C35       1.0  0.30870  0.18327  0.39664  1.0000
  C   C36       1.0  0.43967  0.14871  0.30645  1.0000
  H   H51       1.0  0.44610  0.17765  0.36745  1.0000
  C   C37       1.0  0.43829  0.17305  0.35140  1.0000
  H   H52       1.0  0.99652  0.11764  0.38847  1.0000
  H   H53       1.0  0.44456  0.17534  0.13088  1.0000
  H   H54       1.0  0.40959  0.09380  0.35220  1.0000
  H   H55       1.0  0.46185  0.04547  0.25635  1.0000
  H   H56       1.0  0.19709  0.19975  0.29531  1.0000
  H   H57       1.0  0.36175  0.20584  0.39999  1.0000
  H   H58       1.0  0.13145  0.22045  0.42481  1.0000
  H   H59       1.0  0.41927  0.17982  0.35300  1.0000
  C   C38       1.0  0.46061  0.05034  0.23692  1.0000
  C   C39       1.0  0.39072  0.12935  0.31609  1.0000
  S   S12       1.0  0.45917  0.97534  0.05043  1.0000
  H   H60       1.0  0.39571  0.11802  0.10186  1.0000
  H   H61       1.0  0.39893  0.15973  0.33197  1.0000
  H   H62       1.0  0.26846  0.11802  0.32276  1.0000
  H   H63       1.0  0.43202  0.16758  0.30477  1.0000
  C   C40       1.0  0.46556  0.08074  0.14170  1.0000
  H   H64       1.0  0.45016  0.04131  0.19463  1.0000
  H   H65       1.0  0.40940  0.14509  0.09476  1.0000
  H   H66       1.0  0.39797  0.13400  0.35215  1.0000
  H   H67       1.0  0.37320  0.17536  0.42982  1.0000
  H   H68       1.0  0.34895  0.16766  0.18747  1.0000
  H   H69       1.0  0.43679  0.07533  0.34953  1.0000
  H   H70       1.0  0.23185  0.11761  0.34780  1.0000
  H   H71       1.0  0.17791  0.13688  0.38416  1.0000
  S   S13       1.0  0.42460  0.19518  0.18588  1.0000
  H   H72       1.0  0.37848  0.14378  0.09014  1.0000
  N   N5        1.0  0.33033  0.18699  0.40892  1.0000
  H   H73       1.0  0.24584  0.11252  0.30463  1.0000
  H   H74       1.0  0.04006  0.18945  0.42391  1.0000
  H   H75       1.0  0.11500  0.18471  0.36776  1.0000
  H   H76       1.0  0.09726  0.20604  0.41709  1.0000
  H   H77       1.0  0.07237  0.18339  0.44438  1.0000
  H   H78       1.0  0.99561  0.02957  0.45786  1.0000
  C   C41       1.0  0.19871  0.12886  0.31218  1.0000
  H   H79       1.0  0.46940  0.00405  0.25030  1.0000
  S   S14       1.0  0.04677  0.08938  0.46217  1.0000
  H   H80       1.0  0.44127  0.05058  0.23493  1.0000
  C   C42       1.0  0.19144  0.18320  0.30551  1.0000
  C   C43       1.0  0.19290  0.15000  0.34910  1.0000
  H   H81       1.0  0.19099  0.11349  0.36710  1.0000
  H   H82       1.0  0.34955  0.14600  0.16665  1.0000
  C   C44       1.0  0.19552  0.10304  0.32234  1.0000
  H   H83       1.0  0.36737  0.13628  0.13253  1.0000
  H   H84       1.0  0.19622  0.09165  0.30733  1.0000
  H   H85       1.0  0.32239  0.15859  0.43606  1.0000
  C   C45       1.0  0.25205  0.12609  0.31482  1.0000
  C   C46       1.0  0.00919  0.02165  0.46966  1.0000
  C   C47       1.0  0.42916  0.09392  0.35143  1.0000
  C   C48       1.0  0.39263  0.13764  0.10214  1.0000
  C   C49       1.0  0.31784  0.20067  0.32478  1.0000
  H   H86       1.0  0.20983  0.09493  0.33323  1.0000
  S   S15       1.0  0.46180  0.99919  0.11707  1.0000
  H   H87       1.0  0.42817  0.01492  0.23822  1.0000
  C   C50       1.0  0.40685  0.17975  0.12528  1.0000
  C   C51       1.0  0.36492  0.18296  0.11725  1.0000
  C   C52       1.0  0.31133  0.16340  0.37965  1.0000
  C   C53       1.0  0.07101  0.19784  0.45653  1.0000
  H   H88       1.0  0.24146  0.14630  0.34517  1.0000
  S   S16       1.0  0.42047  0.16373  0.46150  1.0000
  H   H89       1.0  0.43857  0.98477  0.23440  1.0000
  H   H90       1.0  0.20855  0.12842  0.29417  1.0000
  H   H91       1.0  0.18129  0.17443  0.29364  1.0000
  Fe  Fe10      1.0  0.19856  0.21289  0.37132  1.0000
  H   H92       1.0  0.37488  0.21957  0.11868  1.0000
  H   H93       1.0  0.39437  0.13715  0.29750  1.0000
  H   H94       1.0  0.36567  0.14795  0.44574  1.0000
  S   S17       1.0  0.98354  0.18237  0.44499  1.0000
  H   H95       1.0  0.43430  0.13791  0.36790  1.0000
  C   C54       1.0  0.46716  0.00794  0.23095  1.0000
  S   S18       1.0  0.25538  0.20647  0.43486  1.0000
  H   H96       1.0  0.30264  0.19965  0.38566  1.0000
  H   H97       1.0  0.45905  0.10704  0.33008  1.0000
  H   H98       1.0  0.35181  0.17513  0.45577  1.0000
  H   H99       1.0  0.29356  0.17943  0.41011  1.0000
  H   H100      1.0  0.35023  0.21178  0.13974  1.0000
  S   S19       1.0  0.46322  0.10390  0.44592  1.0000
  C   C55       1.0  0.47193  0.10255  0.14796  1.0000
  S   S20       1.0  0.46789  0.99385  0.36256  1.0000
  C   C56       1.0  0.44132  0.00346  0.22770  1.0000
  H   H101      1.0  0.41014  0.18319  0.10557  1.0000
  H   H102      1.0  0.43352  0.14849  0.12452  1.0000
  C   C57       1.0  0.46687  0.14839  0.30074  1.0000
  C   C58       1.0  0.42896  0.16468  0.13411  1.0000
  H   H103      1.0  0.05384  0.19644  0.46775  1.0000
  C   C59       1.0  0.32295  0.20595  0.42588  1.0000
  H   H104      1.0  0.44753  0.18269  0.33575  1.0000
  N   N6        1.0  0.07113  0.22192  0.44259  1.0000
  Fe  Fe11      1.0  0.39110  0.21370  0.20271  1.0000
  H   H105      1.0  0.46132  0.14058  0.34998  1.0000
  H   H106      1.0  0.10852  0.18779  0.46245  1.0000
  C   C60       1.0  0.46963  0.03858  0.19641  1.0000
  C   C61       1.0  0.46645  0.07641  0.23075  1.0000
  H   H107      1.0  0.02243  0.01148  0.45787  1.0000
  C   C62       1.0  0.04596  0.20551  0.41299  1.0000
  H   H108      1.0  0.06227  0.20071  0.40137  1.0000
  H   H109      1.0  0.30953  0.21041  0.33933  1.0000
  H   H110      1.0  0.03155  0.21173  0.40128  1.0000
  H   H111      1.0  0.46402  0.08592  0.24719  1.0000
  H   H112      1.0  0.47545  0.15725  0.31380  1.0000
  S   S21       1.0  0.47540  0.15513  0.41793  1.0000
  H   H113      1.0  0.47540  0.13007  0.29945  1.0000
  H   H114      1.0  0.03330  0.14195  0.83077  1.0000
  C   C63       1.0  0.23874  0.18588  0.54912  1.0000
  H   H115      1.0  0.01810  0.03599  0.47629  1.0000
  S   S22       1.0  0.16541  0.19659  0.73178  1.0000
  H   H116      1.0  0.41381  0.17266  0.54826  1.0000
  Fe  Fe12      1.0  0.12879  0.18609  0.74665  1.0000
  S   S23       1.0  0.12251  0.14832  0.76378  1.0000
  S   S24       1.0  0.11062  0.20570  0.71580  1.0000
  H   H117      1.0  0.00581  0.18231  0.74990  1.0000
  Fe  Fe13      1.0  0.02287  0.05682  0.81759  1.0000
  S   S25       1.0  0.99323  0.04175  0.80153  1.0000
  S   S26       1.0  0.02932  0.09406  0.79899  1.0000
  C   C64       1.0  0.99423  0.20018  0.78276  1.0000
  H   H118      1.0  0.00140  0.98638  0.48459  1.0000
  C   C65       1.0  0.18445  0.21429  0.58616  1.0000
  H   H119      1.0  0.08779  0.17329  0.48287  1.0000
  H   H120      1.0  0.01591  0.15657  0.79435  1.0000
  S   S27       1.0  0.05170  0.98862  0.87935  1.0000
  S   S28       1.0  0.04786  0.02376  0.81471  1.0000
  S   S29       1.0  0.00885  0.04479  0.85548  1.0000
  H   H121      1.0  0.24484  0.16602  0.58403  1.0000
  C   C66       1.0  0.00211  0.20663  0.47759  1.0000
  H   H122      1.0  0.09178  0.20341  0.48646  1.0000
  S   S30       1.0  0.12287  0.21677  0.76963  1.0000
  C   C67       1.0  0.01593  0.16966  0.80768  1.0000
  H   H123      1.0  0.21944  0.19972  0.59418  1.0000
  S   S31       1.0  0.00314  0.99255  0.83525  1.0000
  S   S32       1.0  0.04045  0.98602  0.56817  1.0000
  H   H124      1.0  0.05413  0.04907  0.67953  1.0000
  C   C68       1.0  0.98975  0.98840  0.70223  1.0000
  S   S33       1.0  0.26852  0.20375  0.62225  1.0000
  H   H125      1.0  0.17020  0.21091  0.57514  1.0000
  H   H126      1.0  0.03294  0.02780  0.68777  1.0000
  H   H127      1.0  0.00896  0.18948  0.48536  1.0000
  C   C69       1.0  0.09121  0.08660  0.72411  1.0000
  S   S34       1.0  0.01557  0.09375  0.52878  1.0000
  C   C70       1.0  0.99237  0.99467  0.92123  1.0000
  Fe  Fe14      1.0  0.01800  0.00856  0.79978  1.0000
  H   H128      1.0  0.10682  0.09101  0.71159  1.0000
  H   H129      1.0  0.07859  0.01506  0.75157  1.0000
  C   C71       1.0  0.40789  0.17543  0.48856  1.0000
  C   C72       1.0  0.41716  0.16850  0.51047  1.0000
  C   C73       1.0  0.40650  0.17822  0.53142  1.0000
  C   C74       1.0  0.38647  0.19496  0.53085  1.0000
  C   C75       1.0  0.37716  0.20185  0.50894  1.0000
  C   C76       1.0  0.38785  0.19218  0.48797  1.0000
  H   H130      1.0  0.43239  0.15547  0.51132  1.0000
  H   H131      1.0  0.03841  0.17088  0.83752  1.0000
  C   C77       1.0  0.09109  0.19072  0.47294  1.0000
  H   H132      1.0  0.36191  0.21485  0.50812  1.0000
  C   C78       1.0  0.03271  0.01575  0.55699  1.0000
  C   C79       1.0  0.04329  0.02448  0.53477  1.0000
  C   C80       1.0  0.03787  0.04820  0.52564  1.0000
  C   C81       1.0  0.02217  0.06353  0.53893  1.0000
  C   C82       1.0  0.01154  0.05474  0.56110  1.0000
  C   C83       1.0  0.01659  0.03092  0.57000  1.0000
  H   H133      1.0  0.05585  0.01292  0.52462  1.0000
  H   H134      1.0  0.04626  0.05478  0.50862  1.0000
  S   S35       1.0  0.03719  0.14395  0.47841  1.0000
  H   H135      1.0  0.00846  0.02450  0.58720  1.0000
  Fe  Fe15      1.0  0.03111  0.00995  0.85052  1.0000
  H   H136      1.0  0.99386  0.21824  0.77310  1.0000
  C   C84       1.0  0.03667  0.16008  0.82262  1.0000
  C   C85       1.0  0.08290  0.03233  0.75691  1.0000
  H   H137      1.0  0.26819  0.16140  0.56098  1.0000
  H   H138      1.0  0.99940  0.06648  0.57149  1.0000
  C   C86       1.0  0.09650  0.13307  0.77269  1.0000
  C   C87       1.0  0.07457  0.14031  0.76368  1.0000
  C   C88       1.0  0.05443  0.12786  0.77153  1.0000
  C   C89       1.0  0.05584  0.10794  0.78846  1.0000
  C   C90       1.0  0.07795  0.10015  0.79681  1.0000
  C   C91       1.0  0.09809  0.11261  0.78894  1.0000
  H   H139      1.0  0.07327  0.15540  0.75048  1.0000
  H   H140      1.0  0.03764  0.13371  0.76435  1.0000
  H   H141      1.0  0.07949  0.08484  0.80973  1.0000
  H   H142      1.0  0.11501  0.10658  0.79581  1.0000
  C   C92       1.0  0.20800  0.19953  0.57930  1.0000
  H   H143      1.0  0.00035  0.97758  0.96815  1.0000
  C   C93       1.0  0.06200  0.05171  0.75407  1.0000
  C   C94       1.0  0.03782  0.19652  0.77767  1.0000
  C   C95       1.0  0.22967  0.19703  0.65426  1.0000
  H   H144      1.0  0.43116  0.21666  0.49830  1.0000
  C   C96       1.0  0.25497  0.17506  0.56855  1.0000
  H   H145      1.0  0.03429  0.21181  0.76432  1.0000
  H   H146      1.0  0.23995  0.18106  0.66082  1.0000
  H   H147      1.0  0.19846  0.19007  0.67815  1.0000
  H   H148      1.0  0.01340  0.06747  0.75943  1.0000
  H   H149      1.0  0.17826  0.20868  0.60496  1.0000
  S   S36       1.0  0.98017  0.98306  0.60925  1.0000
  C   C97       1.0  0.01443  0.98778  0.74332  1.0000
  Fe  Fe16      1.0  0.02377  0.10815  0.49029  1.0000
  H   H150      1.0  0.03356  0.03115  0.73010  1.0000
  H   H151      1.0  0.09147  0.05228  0.71026  1.0000
  N   N7        1.0  0.01653  0.19458  0.79568  1.0000
  C   C98       1.0  0.27270  0.21475  0.47641  1.0000
  S   S37       1.0  0.30390  0.21727  0.55835  1.0000
  H   H152      1.0  0.04312  0.09450  0.73936  1.0000
  C   C99       1.0  0.46269  0.20884  0.52880  1.0000
  C   C100      1.0  0.20618  0.20214  0.66417  1.0000
  H   H153      1.0  0.22920  0.17104  0.54420  1.0000
  H   H154      1.0  0.05371  0.15785  0.81134  1.0000
  H   H155      1.0  0.99493  0.00583  0.93566  1.0000
  H   H156      1.0  0.99030  0.03294  0.52417  1.0000
  H   H157      1.0  0.06558  0.06700  0.76364  1.0000
  C   C101      1.0  0.03771  0.08037  0.72924  1.0000
  H   H158      1.0  0.03031  0.20832  0.82581  1.0000
  H   H159      1.0  0.19520  0.19501  0.53505  1.0000
  H   H160      1.0  0.03555  0.08893  0.71092  1.0000
  C   C102      1.0  0.01130  0.97438  0.70409  1.0000
  H   H161      1.0  0.07356  0.07545  0.69593  1.0000
  C   C103      1.0  0.01284  0.07477  0.74065  1.0000
  H   H162      1.0  0.00454  0.06240  0.73065  1.0000
  H   H163      1.0  0.07976  0.10343  0.72594  1.0000
  H   H164      1.0  0.00096  0.09153  0.74067  1.0000
  C   C104      1.0  0.21575  0.21895  0.51126  1.0000
  C   C105      1.0  0.03949  0.04421  0.69303  1.0000
  H   H165      1.0  0.02444  0.05818  0.69228  1.0000
  H   H166      1.0  0.06253  0.02424  0.71684  1.0000
  H   H167      1.0  0.02466  0.21528  0.70496  1.0000
  C   C106      1.0  0.06188  0.20006  0.78708  1.0000
  C   C107      1.0  0.07827  0.06764  0.71387  1.0000
  H   H168      1.0  0.04632  0.04433  0.76446  1.0000
  C   C108      1.0  0.04812  0.03896  0.71821  1.0000
  N   N8        1.0  0.05653  0.05966  0.72882  1.0000
  C   C109      1.0  0.23973  0.21210  0.63561  1.0000
  H   H169      1.0  0.25086  0.19093  0.53312  1.0000
  Fe  Fe17      1.0  0.98136  0.02742  0.83899  1.0000
  H   H170      1.0  0.00939  0.98473  0.91556  1.0000
  H   H171      1.0  0.04058  0.18070  0.76727  1.0000
  C   C110      1.0  0.99296  0.00193  0.74143  1.0000
  H   H172      1.0  0.27770  0.19580  0.47819  1.0000
  H   H173      1.0  0.08627  0.02937  0.77602  1.0000
  H   H174      1.0  0.09816  0.08029  0.74149  1.0000
  H   H175      1.0  0.09975  0.03748  0.74715  1.0000
  H   H176      1.0  0.20332  0.18083  0.57986  1.0000
  C   C111      1.0  0.02359  0.97412  0.72455  1.0000
  C   C112      1.0  0.99947  0.00469  0.49049  1.0000
  S   S38       1.0  0.03080  0.98726  0.76837  1.0000
  H   H177      1.0  0.06675  0.21844  0.78182  1.0000
  C   C113      1.0  0.98284  0.98593  0.54122  1.0000
  Fe  Fe18      1.0  0.14667  0.21862  0.70288  1.0000
  C   C114      1.0  0.98068  0.00223  0.72092  1.0000
  H   H178      1.0  0.26511  0.18847  0.57492  1.0000
  C   C115      1.0  0.99057  0.18343  0.76373  1.0000
  H   H179      1.0  0.98580  0.01256  0.75576  1.0000
  H   H180      1.0  0.99915  0.16809  0.81952  1.0000
  N   N9        1.0  0.22135  0.20668  0.55566  1.0000
  H   H181      1.0  0.98371  0.05944  0.48468  1.0000
  C   C116      1.0  0.20443  0.21124  0.53639  1.0000
  C   C117      1.0  0.01538  0.21196  0.81441  1.0000
  H   H182      1.0  0.07622  0.18829  0.77827  1.0000
  H   H183      1.0  0.99919  0.21006  0.82706  1.0000
  H   H184      1.0  0.01256  0.00375  0.50404  1.0000
  S   S39       1.0  0.37497  0.20795  0.55757  1.0000
  H   H185      1.0  0.44489  0.20316  0.53560  1.0000
  H   H186      1.0  0.06294  0.19619  0.80644  1.0000
  H   H187      1.0  0.22792  0.20450  0.50375  1.0000
  H   H188      1.0  0.47120  0.21156  0.54511  1.0000
  H   H189      1.0  0.98152  0.00131  0.55209  1.0000
  H   H190      1.0  0.46785  0.18273  0.50185  1.0000
  H   H191      1.0  0.00175  0.98039  0.53600  1.0000
  H   H192      1.0  0.98669  0.16544  0.77167  1.0000
  H   H193      1.0  0.09148  0.97819  0.57523  1.0000
  H   H194      1.0  0.98754  0.00696  0.90559  1.0000
  H   H195      1.0  0.45749  0.21665  0.47918  1.0000
  H   H196      1.0  0.28654  0.22068  0.50936  1.0000
  H   H197      1.0  0.97804  0.20044  0.79563  1.0000
  H   H198      1.0  0.07406  0.97588  0.80499  1.0000
  C   C118      1.0  0.19231  0.22209  0.65508  1.0000
  H   H199      1.0  0.38068  0.19793  0.47114  1.0000
  S   S40       1.0  0.12427  0.40303  0.43683  1.0000
  C   C119      1.0  0.22302  0.38629  0.30738  1.0000
  H   H200      1.0  0.47130  0.42724  0.23124  1.0000
  C   C120      1.0  0.40278  0.33325  0.16035  1.0000
  S   S41       1.0  0.15816  0.44949  0.06469  1.0000
  C   C121      1.0  0.25491  0.24951  0.45427  1.0000
  H   H201      1.0  0.21200  0.39919  0.42144  1.0000
  H   H202      1.0  0.16877  0.39088  0.40453  1.0000
  H   H203      1.0  0.09500  0.36626  0.45670  1.0000
  Fe  Fe19      1.0  0.24700  0.37986  0.15927  1.0000
  S   S42       1.0  0.27811  0.39775  0.16908  1.0000
  S   S43       1.0  0.23589  0.38218  0.12093  1.0000
  Fe  Fe20      1.0  0.23955  0.35442  0.21032  1.0000
  S   S44       1.0  0.26959  0.37087  0.22319  1.0000
  S   S45       1.0  0.21600  0.32955  0.23375  1.0000
  Fe  Fe21      1.0  0.25537  0.40471  0.20315  1.0000
  S   S46       1.0  0.24402  0.43774  0.22279  1.0000
  Fe  Fe22      1.0  0.28950  0.36202  0.18823  1.0000
  S   S47       1.0  0.32807  0.34590  0.18847  1.0000
  S   S48       1.0  0.22377  0.38864  0.19226  1.0000
  S   S49       1.0  0.26005  0.34372  0.17628  1.0000
  H   H204      1.0  0.38038  0.36840  0.09575  1.0000
  S   S50       1.0  0.23036  0.29403  0.34257  1.0000
  H   H205      1.0  0.16634  0.33485  0.11011  1.0000
  C   C122      1.0  0.27956  0.46714  0.20627  1.0000
  H   H206      1.0  0.17574  0.39012  0.44425  1.0000
  Fe  Fe23      1.0  0.99389  0.36040  0.45076  1.0000
  S   S51       1.0  0.01561  0.38708  0.42743  1.0000
  H   H207      1.0  0.25131  0.46415  0.41106  1.0000
  H   H208      1.0  0.16835  0.29602  0.14297  1.0000
  H   H209      1.0  0.22667  0.37205  0.37689  1.0000
  H   H210      1.0  0.46509  0.42754  0.45621  1.0000
  S   S52       1.0  0.36387  0.23609  0.18066  1.0000
  C   C123      1.0  0.20767  0.39050  0.25817  1.0000
  H   H211      1.0  0.05281  0.35957  0.45366  1.0000
  H   H212      1.0  0.23197  0.41652  0.00035  1.0000
  C   C124      1.0  0.37118  0.37300  0.13384  1.0000
  H   H213      1.0  0.39495  0.34516  0.11483  1.0000
  C   C125      1.0  0.26539  0.42458  0.05910  1.0000
  H   H214      1.0  0.24615  0.25758  0.43894  1.0000
  C   C126      1.0  0.42380  0.44664  0.00107  1.0000
  H   H215      1.0  0.11807  0.24915  0.42974  1.0000
  H   H216      1.0  0.98381  0.41880  0.39694  1.0000
  C   C127      1.0  0.38265  0.40044  0.16082  1.0000
  C   C128      1.0  0.45056  0.44023  0.03320  1.0000
  C   C129      1.0  0.44566  0.43748  0.00965  1.0000
  H   H217      1.0  0.14268  0.36281  0.39386  1.0000
  C   C130      1.0  0.21604  0.38170  0.41381  1.0000
  H   H218      1.0  0.03289  0.22749  0.44113  1.0000
  C   C131      1.0  0.33662  0.31484  0.18804  1.0000
  C   C132      1.0  0.32384  0.30004  0.17670  1.0000
  C   C133      1.0  0.33229  0.27598  0.17483  1.0000
  C   C134      1.0  0.35332  0.26622  0.18470  1.0000
  C   C135      1.0  0.36587  0.28091  0.19646  1.0000
  C   C136      1.0  0.35767  0.30511  0.19790  1.0000
  H   H219      1.0  0.30774  0.30725  0.16886  1.0000
  H   H220      1.0  0.32246  0.26486  0.16564  1.0000
  H   H221      1.0  0.38210  0.27374  0.20410  1.0000
  H   H222      1.0  0.36767  0.31630  0.20681  1.0000
  C   C137      1.0  0.22188  0.31856  0.26337  1.0000
  C   C138      1.0  0.20912  0.30013  0.27508  1.0000
  C   C139      1.0  0.21239  0.29174  0.29895  1.0000
  C   C140      1.0  0.22806  0.30211  0.31163  1.0000
  C   C141      1.0  0.24085  0.32053  0.29992  1.0000
  C   C142      1.0  0.23807  0.32846  0.27582  1.0000
  H   H223      1.0  0.19655  0.29233  0.26567  1.0000
  H   H224      1.0  0.20224  0.27773  0.30777  1.0000
  H   H225      1.0  0.25310  0.32859  0.30949  1.0000
  H   H226      1.0  0.24819  0.34246  0.26701  1.0000
  S   S53       1.0  0.17936  0.44079  0.41532  1.0000
  H   H227      1.0  0.27018  0.40804  0.30285  1.0000
  H   H228      1.0  0.20752  0.37208  0.26665  1.0000
  C   C143      1.0  0.25747  0.42417  0.30104  1.0000
  C   C144      1.0  0.21362  0.40075  0.10605  1.0000
  C   C145      1.0  0.20921  0.39615  0.08292  1.0000
  C   C146      1.0  0.19222  0.41066  0.07010  1.0000
  C   C147      1.0  0.17938  0.43010  0.08022  1.0000
  C   C148      1.0  0.18348  0.43441  0.10354  1.0000
  C   C149      1.0  0.20048  0.41989  0.11637  1.0000
  H   H229      1.0  0.21905  0.38125  0.07480  1.0000
  H   H230      1.0  0.18899  0.40682  0.05239  1.0000
  H   H231      1.0  0.17356  0.44929  0.11164  1.0000
  H   H232      1.0  0.20356  0.42371  0.13413  1.0000
  Fe  Fe24      1.0  0.14265  0.43746  0.43362  1.0000
  S   S54       1.0  0.40912  0.22511  0.23271  1.0000
  Fe  Fe25      1.0  0.47284  0.45243  0.09650  1.0000
  C   C150      1.0  0.09346  0.40007  0.43565  1.0000
  C   C151      1.0  0.07877  0.41691  0.42284  1.0000
  C   C152      1.0  0.05496  0.41277  0.42064  1.0000
  C   C153      1.0  0.04539  0.39204  0.43164  1.0000
  C   C154      1.0  0.05986  0.37561  0.44512  1.0000
  C   C155      1.0  0.08381  0.37946  0.44682  1.0000
  H   H233      1.0  0.08595  0.43277  0.41400  1.0000
  H   H234      1.0  0.04397  0.42562  0.41017  1.0000
  H   H235      1.0  0.21233  0.42383  0.33055  1.0000
  C   C156      1.0  0.18333  0.34267  0.11108  1.0000
  H   H236      1.0  0.98286  0.34172  0.38429  1.0000
  C   C157      1.0  0.20172  0.36949  0.46475  1.0000
  C   C158      1.0  0.39436  0.35812  0.16829  1.0000
  H   H237      1.0  0.23394  0.37491  0.29472  1.0000
  C   C159      1.0  0.41387  0.38174  0.13446  1.0000
  H   H238      1.0  0.39700  0.40532  0.17109  1.0000
  C   C160      1.0  0.06874  0.24100  0.45971  1.0000
  C   C161      1.0  0.41336  0.40288  0.11508  1.0000
  H   H239      1.0  0.32555  0.23783  0.40004  1.0000
  C   C162      1.0  0.27131  0.43061  0.08374  1.0000
  H   H240      1.0  0.36416  0.34582  0.11147  1.0000
  H   H241      1.0  0.18165  0.40575  0.28388  1.0000
  H   H242      1.0  0.41295  0.42010  0.12297  1.0000
  C   C163      1.0  0.43350  0.45199  0.04858  1.0000
  H   H243      1.0  0.29592  0.45789  0.40512  1.0000
  H   H244      1.0  0.97748  0.26855  0.45012  1.0000
  C   C164      1.0  0.25877  0.46400  0.22121  1.0000
  H   H245      1.0  0.20946  0.40061  0.37891  1.0000
  C   C165      1.0  0.37865  0.35726  0.11300  1.0000
  H   H246      1.0  0.13757  0.30106  0.14987  1.0000
  S   S55       1.0  0.26272  0.23434  0.36739  1.0000
  H   H247      1.0  0.27020  0.42472  0.01184  1.0000
  H   H248      1.0  0.41959  0.33285  0.14863  1.0000
  H   H249      1.0  0.27449  0.42502  0.46619  1.0000
  H   H250      1.0  0.08920  0.23664  0.40980  1.0000
  H   H251      1.0  0.19100  0.32874  0.43024  1.0000
  C   C166      1.0  0.20473  0.34024  0.42145  1.0000
  H   H252      1.0  0.06717  0.47204  0.98089  1.0000
  H   H253      1.0  0.36234  0.38864  0.19466  1.0000
  H   H254      1.0  0.07861  0.27031  0.43287  1.0000
  C   C167      1.0  0.20034  0.45285  0.30580  1.0000
  C   C168      1.0  0.22319  0.38789  0.38706  1.0000
  H   H255      1.0  0.19773  0.42665  0.26522  1.0000
  C   C169      1.0  0.20207  0.37254  0.31898  1.0000
  C   C170      1.0  0.46120  0.43876  0.43955  1.0000
  S   S56       1.0  0.98167  0.32668  0.43949  1.0000
  H   H256      1.0  0.38861  0.32577  0.15196  1.0000
  C   C171      1.0  0.09290  0.22321  0.42503  1.0000
  Fe  Fe26      1.0  0.18904  0.45411  0.44880  1.0000
  H   H257      1.0  0.23386  0.33277  0.39374  1.0000
  C   C172      1.0  0.23278  0.42197  0.01858  1.0000
  H   H258      1.0  0.06744  0.27922  0.46175  1.0000
  H   H259      1.0  0.22536  0.39304  0.24873  1.0000
  H   H260      1.0  0.19970  0.31414  0.13283  1.0000
  H   H261      1.0  0.30387  0.43377  0.02259  1.0000
  H   H262      1.0  0.18966  0.36937  0.30590  1.0000
  H   H263      1.0  0.21759  0.46084  0.30372  1.0000
  H   H264      1.0  0.29547  0.22976  0.40810  1.0000
  S   S57       1.0  0.22492  0.43696  0.45954  1.0000
  H   H265      1.0  0.22224  0.44651  0.05826  1.0000
  S   S58       1.0  0.15333  0.44757  0.46819  1.0000
  H   H266      1.0  0.37766  0.35556  0.17985  1.0000
  C   C173      1.0  0.25454  0.43635  0.01848  1.0000
  H   H267      1.0  0.04923  0.24213  0.41680  1.0000
  H   H268      1.0  0.14616  0.35621  0.42468  1.0000
  H   H269      1.0  0.40742  0.36271  0.18023  1.0000
  H   H270      1.0  0.37927  0.41573  0.14732  1.0000
  C   C174      1.0  0.19990  0.40924  0.27608  1.0000
  H   H271      1.0  0.46629  0.46359  0.39627  1.0000
  H   H272      1.0  0.20496  0.33767  0.38226  1.0000
  C   C175      1.0  0.06540  0.26677  0.44824  1.0000
  H   H273      1.0  0.35658  0.36464  0.14528  1.0000
  H   H274      1.0  0.35441  0.41836  0.18325  1.0000
  N   N10       1.0  0.19571  0.36619  0.42030  1.0000
  S   S59       1.0  0.21763  0.22722  0.33663  1.0000
  H   H275      1.0  0.24978  0.42841  0.31900  1.0000
  N   N11       1.0  0.39047  0.37792  0.14885  1.0000
  H   H276      1.0  0.42763  0.38460  0.14645  1.0000
  H   H277      1.0  0.23695  0.46139  0.38467  1.0000
  H   H278      1.0  0.01965  0.46368  0.46194  1.0000
  C   C176      1.0  0.26129  0.22502  0.45645  1.0000
  H   H279      1.0  0.05145  0.43955  0.46346  1.0000
  H   H280      1.0  0.25281  0.45120  0.00439  1.0000
  H   H281      1.0  0.98053  0.38289  0.38108  1.0000
  H   H282      1.0  0.42894  0.24481  0.46170  1.0000
  C   C177      1.0  0.40698  0.45885  0.01630  1.0000
  C   C178      1.0  0.17657  0.37216  0.40333  1.0000
  S   S60       1.0  0.15804  0.42838  0.99789  1.0000
  H   H283      1.0  0.28078  0.41323  0.05139  1.0000
  H   H284      1.0  0.19545  0.33740  0.09547  1.0000
  H   H285      1.0  0.20970  0.35103  0.46842  1.0000
  H   H286      1.0  0.23465  0.43793  0.27321  1.0000
  Fe  Fe27      1.0  0.17616  0.45716  0.97490  1.0000
  H   H287      1.0  0.27848  0.47218  0.05320  1.0000
  H   H288      1.0  0.46725  0.43267  0.03963  1.0000
  H   H289      1.0  0.17041  0.35985  0.45130  1.0000
  H   H290      1.0  0.45432  0.42665  0.42797  1.0000
  H   H291      1.0  0.18527  0.42053  0.31908  1.0000
  C   C179      1.0  0.20347  0.42602  0.31367  1.0000
  H   H292      1.0  0.24794  0.40913  0.27063  1.0000
  H   H293      1.0  0.23472  0.38760  0.32181  1.0000
  H   H294      1.0  0.43165  0.46500  0.42989  1.0000
  H   H295      1.0  0.40633  0.32100  0.17642  1.0000
  H   H296      1.0  0.04713  0.27107  0.44261  1.0000
  N   N12       1.0  0.18083  0.33862  0.15722  1.0000
  C   C180      1.0  0.17792  0.36532  0.15792  1.0000
  C   C181      1.0  0.19511  0.33342  0.13408  1.0000
  C   C182      1.0  0.19422  0.32815  0.17822  1.0000
  C   C183      1.0  0.15638  0.33001  0.15903  1.0000
  C   C184      1.0  0.16575  0.37463  0.18129  1.0000
  C   C185      1.0  0.23615  0.45878  0.05228  1.0000
  C   C186      1.0  0.20844  0.30370  0.17620  1.0000
  C   C187      1.0  0.15496  0.30342  0.15642  1.0000
  H   H297      1.0  0.19554  0.37272  0.15465  1.0000
  H   H298      1.0  0.16724  0.37409  0.14352  1.0000
  C   C188      1.0  0.15588  0.35603  0.40675  1.0000
  H   H299      1.0  0.21266  0.34083  0.13312  1.0000
  H   H300      1.0  0.20754  0.34019  0.18188  1.0000
  H   H301      1.0  0.18201  0.32658  0.19486  1.0000
  H   H302      1.0  0.14684  0.33317  0.17673  1.0000
  H   H303      1.0  0.14486  0.34062  0.14626  1.0000
  H   H304      1.0  0.16619  0.39426  0.17998  1.0000
  H   H305      1.0  0.14676  0.37109  0.18412  1.0000
  H   H306      1.0  0.17503  0.36742  0.19718  1.0000
  H   H307      1.0  0.18049  0.36231  0.10888  1.0000
  H   H308      1.0  0.27734  0.41386  0.09420  1.0000
  Fe  Fe28      1.0  0.12453  0.44526  0.98221  1.0000
  H   H309      1.0  0.19772  0.28998  0.17139  1.0000
  H   H310      1.0  0.21509  0.29735  0.19378  1.0000
  H   H311      1.0  0.22444  0.30512  0.16333  1.0000
  H   H312      1.0  0.15638  0.29275  0.17385  1.0000
  H   H313      1.0  0.18366  0.37144  0.38446  1.0000
  Fe  Fe29      1.0  0.22861  0.25530  0.35745  1.0000
  N   N13       1.0  0.25846  0.44548  0.04182  1.0000
  H   H314      1.0  0.34452  0.39462  0.16944  1.0000
  C   C189      1.0  0.23863  0.42077  0.28399  1.0000
  H   H315      1.0  0.28703  0.45326  0.19521  1.0000
  N   N14       1.0  0.21627  0.41054  0.29534  1.0000
  H   H316      1.0  0.39825  0.40339  0.10398  1.0000
  S   S61       1.0  0.20731  0.24278  0.39159  1.0000
  H   H317      1.0  0.19215  0.38167  0.33386  1.0000
  H   H318      1.0  0.20918  0.35477  0.32665  1.0000
  H   H319      1.0  0.26746  0.43956  0.29371  1.0000
  C   C190      1.0  0.24718  0.45425  0.46669  1.0000
  H   H320      1.0  0.25082  0.41270  0.06275  1.0000
  H   H321      1.0  0.28585  0.44246  0.08252  1.0000
  H   H322      1.0  0.36284  0.39005  0.12560  1.0000
  H   H323      1.0  0.31276  0.46312  0.01769  1.0000
  H   H324      1.0  0.45876  0.42789  0.99810  1.0000
  C   C191      1.0  0.27050  0.44369  0.46865  1.0000
  H   H325      1.0  0.19487  0.39227  0.24430  1.0000
  C   C192      1.0  0.35968  0.40011  0.17792  1.0000
  C   C193      1.0  0.97892  0.23046  0.44878  1.0000
  H   H326      1.0  0.42999  0.40146  0.10295  1.0000
  C   C194      1.0  0.18463  0.37166  0.44481  1.0000
  H   H327      1.0  0.39004  0.46587  0.01008  1.0000
  C   C195      1.0  0.30315  0.45074  0.03082  1.0000
  H   H328      1.0  0.42135  0.36588  0.12544  1.0000
  H   H329      1.0  0.25536  0.43840  0.09420  1.0000
  H   H330      1.0  0.21590  0.38183  0.46096  1.0000
  H   H331      1.0  0.08944  0.45317  0.45788  1.0000
  H   H332      1.0  0.23237  0.37358  0.42197  1.0000
  Fe  Fe30      1.0  0.15139  0.45544  0.02491  1.0000
  H   H333      1.0  0.23409  0.40547  0.03074  1.0000
  S   S62       1.0  0.11573  0.46972  0.01160  1.0000
  H   H334      1.0  0.21572  0.43260  0.02295  1.0000
  H   H335      1.0  0.21259  0.31085  0.39898  1.0000
  C   C196      1.0  0.43979  0.45662  0.44608  1.0000
  C   C197      1.0  0.41175  0.46132  0.03993  1.0000
  C   C198      1.0  0.21466  0.33023  0.39770  1.0000
  H   H336      1.0  0.16199  0.33748  0.40304  1.0000
  H   H337      1.0  0.18891  0.46203  0.31984  1.0000
  H   H338      1.0  0.23983  0.39698  0.38521  1.0000
  S   S63       1.0  0.41789  0.44152  0.97169  1.0000
  C   C199      1.0  0.31316  0.23041  0.41461  1.0000
  H   H339      1.0  0.21945  0.33657  0.43329  1.0000
  H   H340      1.0  0.31051  0.24315  0.42857  1.0000
  H   H341      1.0  0.19149  0.45664  0.28905  1.0000
  C   C200      1.0  0.11587  0.22997  0.43438  1.0000
  H   H342      1.0  0.42587  0.44685  0.45695  1.0000
  H   H343      1.0  0.31354  0.44837  0.04667  1.0000
  H   H344      1.0  0.23954  0.46678  0.06867  1.0000
  S   S64       1.0  0.43787  0.45444  0.07899  1.0000
  C   C201      1.0  0.27775  0.46229  0.03727  1.0000
  C   C202      1.0  0.04931  0.22539  0.42883  1.0000
  C   C203      1.0  0.98414  0.25133  0.45797  1.0000
  H   H345      1.0  0.11755  0.22538  0.45358  1.0000
  H   H346      1.0  0.47060  0.44382  0.25650  1.0000
  H   H347      1.0  0.02050  0.41949  0.46712  1.0000
  H   H348      1.0  0.08412  0.23998  0.47048  1.0000
  H   H349      1.0  0.44416  0.47058  0.45680  1.0000
  H   H350      1.0  0.39837  0.47033  0.05167  1.0000
  H   H351      1.0  0.25449  0.28244  0.47053  1.0000
  C   C204      1.0  0.36303  0.34966  0.52800  1.0000
  Fe  Fe31      1.0  0.03912  0.43955  0.84445  1.0000
  S   S65       1.0  0.07540  0.43423  0.85913  1.0000
  S   S66       1.0  0.07325  0.26157  0.74695  1.0000
  S   S67       1.0  0.18554  0.24358  0.77134  1.0000
  S   S68       1.0  0.14010  0.25138  0.72269  1.0000
  H   H352      1.0  0.05312  0.42062  0.94575  1.0000
  C   C205      1.0  0.00723  0.22743  0.48683  1.0000
  H   H353      1.0  0.16463  0.27742  0.80789  1.0000
  S   S69       1.0  0.40291  0.41830  0.50306  1.0000
  Fe  Fe32      1.0  0.27566  0.40492  0.73392  1.0000
  S   S70       1.0  0.31075  0.38784  0.74531  1.0000
  S   S71       1.0  0.27079  0.43894  0.70997  1.0000
  Fe  Fe33      1.0  0.24785  0.36407  0.75705  1.0000
  S   S72       1.0  0.28047  0.34451  0.77119  1.0000
  S   S73       1.0  0.21120  0.35081  0.75766  1.0000
  Fe  Fe34      1.0  0.29000  0.38009  0.78094  1.0000
  S   S74       1.0  0.30356  0.38212  0.81793  1.0000
  Fe  Fe35      1.0  0.29842  0.35400  0.73468  1.0000
  S   S75       1.0  0.32077  0.32424  0.71635  1.0000
  S   S76       1.0  0.25534  0.39893  0.76976  1.0000
  S   S77       1.0  0.26537  0.37188  0.72026  1.0000
  H   H354      1.0  0.98184  0.33328  0.80997  1.0000
  S   S78       1.0  0.35383  0.44898  0.94139  1.0000
  H   H355      1.0  0.06864  0.42005  0.48231  1.0000
  H   H356      1.0  0.30797  0.34166  0.55830  1.0000
  C   C206      1.0  0.00303  0.24161  0.72438  1.0000
  C   C207      1.0  0.02464  0.22972  0.71613  1.0000
  S   S79       1.0  0.35448  0.45905  0.86692  1.0000
  H   H357      1.0  0.98444  0.43525  0.72092  1.0000
  H   H358      1.0  0.36611  0.36603  0.56853  1.0000
  S   S80       1.0  0.33037  0.26737  0.55268  1.0000
  Fe  Fe36      1.0  0.31470  0.27306  0.59022  1.0000
  S   S81       1.0  0.31610  0.30811  0.60665  1.0000
  H   H359      1.0  0.06743  0.40784  0.68917  1.0000
  N   N15       1.0  0.46015  0.23152  0.51270  1.0000
  C   C208      1.0  0.99084  0.37167  0.73391  1.0000
  C   C209      1.0  0.31822  0.40357  0.83095  1.0000
  C   C210      1.0  0.32528  0.42444  0.81810  1.0000
  C   C211      1.0  0.33663  0.44089  0.82934  1.0000
  C   C212      1.0  0.34085  0.43699  0.85364  1.0000
  C   C213      1.0  0.33377  0.41612  0.86648  1.0000
  C   C214      1.0  0.32273  0.39950  0.85516  1.0000
  H   H360      1.0  0.32198  0.42797  0.79951  1.0000
  H   H361      1.0  0.34195  0.45693  0.81914  1.0000
  H   H362      1.0  0.33685  0.41272  0.88514  1.0000
  H   H363      1.0  0.31741  0.38345  0.86535  1.0000
  C   C215      1.0  0.31806  0.31945  0.68614  1.0000
  C   C216      1.0  0.32770  0.29785  0.67737  1.0000
  C   C217      1.0  0.32656  0.29378  0.65329  1.0000
  C   C218      1.0  0.31612  0.31147  0.63759  1.0000
  C   C219      1.0  0.30644  0.33303  0.64638  1.0000
  C   C220      1.0  0.30714  0.33691  0.67055  1.0000
  H   H364      1.0  0.33629  0.28425  0.68921  1.0000
  H   H365      1.0  0.33435  0.27722  0.64674  1.0000
  H   H366      1.0  0.29836  0.34687  0.63442  1.0000
  H   H367      1.0  0.29974  0.35365  0.67697  1.0000
  C   C221      1.0  0.43430  0.41123  0.50101  1.0000
  C   C222      1.0  0.44396  0.38915  0.49338  1.0000
  H   H368      1.0  0.32951  0.34830  0.78949  1.0000
  H   H369      1.0  0.11091  0.27399  0.78595  1.0000
  N   N16       1.0  0.98434  0.36853  0.70929  1.0000
  C   C223      1.0  0.44972  0.42684  0.50744  1.0000
  C   C224      1.0  0.05997  0.43856  0.48032  1.0000
  H   H370      1.0  0.37606  0.36321  0.52767  1.0000
  H   H371      1.0  0.01887  0.35975  0.75723  1.0000
  H   H372      1.0  0.44263  0.44381  0.51346  1.0000
  H   H373      1.0  0.99495  0.36858  0.65827  1.0000
  H   H374      1.0  0.01227  0.46792  0.51175  1.0000
  C   C225      1.0  0.28646  0.46598  0.74235  1.0000
  H   H375      1.0  0.29059  0.44950  0.75307  1.0000
  S   S82       1.0  0.27826  0.26470  0.58324  1.0000
  H   H376      1.0  0.21707  0.25644  0.57756  1.0000
  H   H377      1.0  0.19141  0.37456  0.48151  1.0000
  S   S83       1.0  0.00473  0.42745  0.86205  1.0000
  H   H378      1.0  0.14936  0.28504  0.83539  1.0000
  H   H379      1.0  0.39251  0.32324  0.52032  1.0000
  H   H380      1.0  0.28535  0.26810  0.63580  1.0000
  C   C226      1.0  0.19459  0.27274  0.76485  1.0000
  C   C227      1.0  0.21268  0.27975  0.77720  1.0000
  C   C228      1.0  0.21904  0.30332  0.77400  1.0000
  C   C229      1.0  0.20693  0.32024  0.75880  1.0000
  C   C230      1.0  0.18926  0.31309  0.74599  1.0000
  C   C231      1.0  0.18335  0.28939  0.74874  1.0000
  H   H381      1.0  0.22153  0.26700  0.78967  1.0000
  H   H382      1.0  0.23253  0.30865  0.78413  1.0000
  H   H383      1.0  0.17980  0.32607  0.73421  1.0000
  H   H384      1.0  0.16963  0.28425  0.73887  1.0000
  H   H385      1.0  0.06728  0.42381  0.52462  1.0000
  C   C232      1.0  0.04645  0.25461  0.73709  1.0000
  C   C233      1.0  0.02483  0.26684  0.74504  1.0000
  C   C234      1.0  0.36406  0.31919  0.82807  1.0000
  H   H386      1.0  0.02484  0.28103  0.75649  1.0000
  H   H387      1.0  0.97811  0.31351  0.56072  1.0000
  C   C235      1.0  0.07984  0.43333  0.88987  1.0000
  C   C236      1.0  0.06211  0.42734  0.90782  1.0000
  C   C237      1.0  0.06679  0.42566  0.93201  1.0000
  C   C238      1.0  0.08906  0.43036  0.93853  1.0000
  C   C239      1.0  0.10665  0.43666  0.92058  1.0000
  C   C240      1.0  0.10213  0.43789  0.89640  1.0000
  H   H388      1.0  0.04496  0.42355  0.90305  1.0000
  C   C241      1.0  0.10756  0.30149  0.82028  1.0000
  H   H389      1.0  0.29701  0.45114  0.95128  1.0000
  C   C242      1.0  0.08897  0.32114  0.81125  1.0000
  H   H390      1.0  0.09801  0.28512  0.82358  1.0000
  H   H391      1.0  0.11133  0.30508  0.83850  1.0000
  C   C243      1.0  0.05595  0.44101  0.52322  1.0000
  H   H392      1.0  0.35661  0.35556  0.81674  1.0000
  H   H393      1.0  0.07683  0.31391  0.80005  1.0000
  H   H394      1.0  0.09676  0.33669  0.80138  1.0000
  H   H395      1.0  0.07820  0.32842  0.82682  1.0000
  H   H396      1.0  0.34531  0.29684  0.79435  1.0000
  C   C244      1.0  0.43623  0.25006  0.47775  1.0000
  C   C245      1.0  0.23920  0.46269  0.89109  1.0000
  H   H397      1.0  0.33437  0.43231  0.65328  1.0000
  H   H398      1.0  0.05330  0.23850  0.47315  1.0000
  S   S84       1.0  0.21112  0.44620  0.95415  1.0000
  Fe  Fe37      1.0  0.29037  0.22714  0.59533  1.0000
  H   H399      1.0  0.39633  0.29774  0.74561  1.0000
  H   H400      1.0  0.02652  0.35189  0.72781  1.0000
  Fe  Fe38      1.0  0.15738  0.22913  0.75199  1.0000
  C   C246      1.0  0.21858  0.24558  0.70935  1.0000
  H   H401      1.0  0.44741  0.26855  0.51687  1.0000
  H   H402      1.0  0.28104  0.26241  0.74426  1.0000
  H   H403      1.0  0.04707  0.42612  0.70693  1.0000
  H   H404      1.0  0.10227  0.31667  0.76555  1.0000
  C   C247      1.0  0.30302  0.45879  0.64875  1.0000
  C   C248      1.0  0.42224  0.24658  0.53811  1.0000
  Fe  Fe39      1.0  0.98965  0.46496  0.85176  1.0000
  H   H405      1.0  0.09771  0.46559  0.62594  1.0000
  H   H406      1.0  0.34972  0.46205  0.67454  1.0000
  S   S85       1.0  0.32622  0.23575  0.60424  1.0000
  H   H407      1.0  0.98008  0.36126  0.74789  1.0000
  H   H408      1.0  0.01734  0.37973  0.69130  1.0000
  H   H409      1.0  0.00286  0.39855  0.65439  1.0000
  H   H410      1.0  0.04673  0.45551  0.66657  1.0000
  H   H411      1.0  0.37107  0.36131  0.75123  1.0000
  H   H412      1.0  0.20321  0.25922  0.70802  1.0000
  C   C249      1.0  0.04628  0.23629  0.72233  1.0000
  H   H413      1.0  0.97761  0.43219  0.58539  1.0000
  S   S86       1.0  0.16165  0.22707  0.66444  1.0000
  H   H414      1.0  0.28811  0.46449  0.66178  1.0000
  N   N17       1.0  0.25278  0.27155  0.69174  1.0000
  C   C250      1.0  0.26352  0.27943  0.66708  1.0000
  C   C251      1.0  0.23658  0.29227  0.70036  1.0000
  C   C252      1.0  0.98348  0.32361  0.72233  1.0000
  C   C253      1.0  0.27286  0.26439  0.70732  1.0000
  S   S87       1.0  0.09438  0.42760  0.96916  1.0000
  C   C254      1.0  0.24880  0.31465  0.70392  1.0000
  H   H415      1.0  0.36595  0.31030  0.53218  1.0000
  H   H416      1.0  0.11236  0.29376  0.74669  1.0000
  Fe  Fe40      1.0  0.98936  0.31127  0.47645  1.0000
  H   H417      1.0  0.27507  0.29404  0.66766  1.0000
  H   H418      1.0  0.22648  0.28748  0.71759  1.0000
  H   H419      1.0  0.22264  0.29768  0.68780  1.0000
  C   C255      1.0  0.27908  0.26016  0.65375  1.0000
  H   H420      1.0  0.01003  0.33976  0.69788  1.0000
  H   H421      1.0  0.98207  0.34013  0.68678  1.0000
  C   C256      1.0  0.33265  0.46169  0.59992  1.0000
  N   N18       1.0  0.04219  0.44307  0.50142  1.0000
  H   H422      1.0  0.99607  0.44789  0.75861  1.0000
  Fe  Fe41      1.0  0.36229  0.46735  0.90461  1.0000
  H   H423      1.0  0.23521  0.32802  0.71144  1.0000
  H   H424      1.0  0.26250  0.31088  0.71683  1.0000
  H   H425      1.0  0.25661  0.32322  0.68691  1.0000
  H   H426      1.0  0.99572  0.40340  0.69712  1.0000
  C   C257      1.0  0.37474  0.36094  0.77027  1.0000
  H   H427      1.0  0.03002  0.24182  0.79122  1.0000
  C   C258      1.0  0.46870  0.38262  0.49242  1.0000
  H   H428      1.0  0.28346  0.24815  0.70136  1.0000
  H   H429      1.0  0.18627  0.23353  0.58530  1.0000
  C   C259      1.0  0.04102  0.44319  0.54738  1.0000
  H   H430      1.0  0.24751  0.41324  0.89563  1.0000
  C   C260      1.0  0.25967  0.26354  0.47216  1.0000
  H   H431      1.0  0.33195  0.41663  0.53743  1.0000
  H   H432      1.0  0.35444  0.33873  0.57800  1.0000
  H   H433      1.0  0.36666  0.39939  0.76529  1.0000
  H   H434      1.0  0.98646  0.26936  0.74541  1.0000
  C   C261      1.0  0.00312  0.26029  0.73878  1.0000
  H   H435      1.0  0.38743  0.34546  0.81292  1.0000
  C   C262      1.0  0.32908  0.37872  0.53564  1.0000
  C   C263      1.0  0.34379  0.40051  0.53328  1.0000
  H   H436      1.0  0.99803  0.24524  0.79769  1.0000
  H   H437      1.0  0.05323  0.44404  0.56141  1.0000
  H   H438      1.0  0.02876  0.45967  0.54740  1.0000
  H   H439      1.0  0.03537  0.40606  0.50850  1.0000
  S   S88       1.0  0.00830  0.27541  0.48673  1.0000
  N   N19       1.0  0.34153  0.35548  0.54496  1.0000
  H   H440      1.0  0.28125  0.43330  0.85442  1.0000
  S   S89       1.0  0.35129  0.46786  0.52479  1.0000
  H   H441      1.0  0.35817  0.35070  0.50930  1.0000
  H   H442      1.0  0.45780  0.25295  0.54257  1.0000
  S   S90       1.0  0.99418  0.45273  0.67166  1.0000
  H   H443      1.0  0.30576  0.34538  0.51408  1.0000
  S   S91       1.0  0.14337  0.47161  0.95723  1.0000
  C   C264      1.0  0.34953  0.35687  0.56946  1.0000
  C   C265      1.0  0.05381  0.42308  0.68824  1.0000
  H   H444      1.0  0.12167  0.25322  0.83423  1.0000
  C   C266      1.0  0.00177  0.46246  0.69836  1.0000
  Fe  Fe42      1.0  0.33894  0.22904  0.56597  1.0000
  C   C267      1.0  0.44770  0.25076  0.52716  1.0000
  C   C268      1.0  0.00997  0.42171  0.48437  1.0000
  H   H445      1.0  0.98622  0.39033  0.73831  1.0000
  C   C269      1.0  0.14900  0.33193  0.81925  1.0000
  H   H446      1.0  0.06278  0.22693  0.71591  1.0000
  H   H447      1.0  0.13280  0.31384  0.75252  1.0000
  H   H448      1.0  0.28260  0.46164  0.82431  1.0000
  Fe  Fe43      1.0  0.38628  0.45654  0.50426  1.0000
  C   C270      1.0  0.99789  0.38498  0.69164  1.0000
  H   H449      1.0  0.39132  0.32878  0.73723  1.0000
  H   H450      1.0  0.12395  0.44001  0.92527  1.0000
  C   C271      1.0  0.10652  0.44313  0.66960  1.0000
  S   S92       1.0  0.98590  0.38163  0.81910  1.0000
  H   H451      1.0  0.28144  0.45335  0.90629  1.0000
  H   H452      1.0  0.04554  0.42852  0.63774  1.0000
  H   H453      1.0  0.22449  0.24411  0.72750  1.0000
  H   H454      1.0  0.13287  0.33759  0.83073  1.0000
  H   H455      1.0  0.32744  0.30375  0.76982  1.0000
  C   C272      1.0  0.37681  0.32523  0.53358  1.0000
  H   H456      1.0  0.36649  0.31086  0.74469  1.0000
  H   H457      1.0  0.31757  0.44014  0.68080  1.0000
  C   C273      1.0  0.26616  0.25865  0.73420  1.0000
  H   H458      1.0  0.03829  0.41811  0.67992  1.0000
  C   C274      1.0  0.11165  0.42112  0.68710  1.0000
  H   H459      1.0  0.06261  0.40662  0.62085  1.0000
  H   H460      1.0  0.24987  0.43398  0.85490  1.0000
  H   H461      1.0  0.42135  0.25965  0.48815  1.0000
  H   H462      1.0  0.26293  0.23963  0.73826  1.0000
  H   H463      1.0  0.18979  0.22500  0.54059  1.0000
  H   H464      1.0  0.26942  0.39815  0.87646  1.0000
  H   H465      1.0  0.06841  0.45514  0.52188  1.0000
  Fe  Fe44      1.0  0.10615  0.23670  0.73833  1.0000
  N   N20       1.0  0.36727  0.33835  0.78425  1.0000
  C   C275      1.0  0.33117  0.36905  0.58739  1.0000
  Fe  Fe45      1.0  0.38820  0.46155  0.95122  1.0000
  S   S93       1.0  0.00451  0.34386  0.48610  1.0000
  H   H466      1.0  0.10061  0.42308  0.63014  1.0000
  H   H467      1.0  0.09896  0.42129  0.70331  1.0000
  H   H468      1.0  0.26072  0.43201  0.94525  1.0000
  S   S94       1.0  0.01272  0.46307  0.60336  1.0000
  C   C276      1.0  0.38442  0.31395  0.74932  1.0000
  C   C277      1.0  0.23547  0.22755  0.55752  1.0000
  C   C278      1.0  0.99506  0.45009  0.72032  1.0000
  H   H469      1.0  0.99628  0.43699  0.48274  1.0000
  H   H470      1.0  0.06466  0.43727  0.61152  1.0000
  C   C279      1.0  0.08003  0.45536  0.47581  1.0000
  H   H471      1.0  0.37005  0.38866  0.79559  1.0000
  H   H472      1.0  0.27899  0.41553  0.89773  1.0000
  C   C280      1.0  0.23863  0.25071  0.68959  1.0000
  H   H473      1.0  0.39430  0.36192  0.77004  1.0000
  H   H474      1.0  0.00022  0.40554  0.48851  1.0000
  C   C281      1.0  0.01738  0.36619  0.73817  1.0000
  H   H475      1.0  0.20553  0.25509  0.54921  1.0000
  C   C282      1.0  0.26451  0.43608  0.86613  1.0000
  H   H476      1.0  0.22523  0.23515  0.51106  1.0000
  H   H477      1.0  0.12956  0.42172  0.69332  1.0000
  H   H478      1.0  0.02703  0.38241  0.73392  1.0000
  C   C283      1.0  0.02536  0.42376  0.50490  1.0000
  H   H479      1.0  0.13753  0.24520  0.80629  1.0000
  N   N21       1.0  0.08374  0.44472  0.65760  1.0000
  C   C284      1.0  0.20256  0.23746  0.63675  1.0000
  H   H480      1.0  0.33112  0.32338  0.51092  1.0000
  H   H481      1.0  0.16207  0.32102  0.83003  1.0000
  H   H482      1.0  0.34332  0.38458  0.78211  1.0000
  H   H483      1.0  0.14095  0.27558  0.77469  1.0000
  S   S95       1.0  0.03264  0.42810  0.80870  1.0000
  C   C285      1.0  0.06288  0.42436  0.62752  1.0000
  H   H484      1.0  0.38362  0.32362  0.55144  1.0000
  C   C286      1.0  0.36285  0.38456  0.77903  1.0000
  H   H485      1.0  0.10685  0.45853  0.68027  1.0000
  H   H486      1.0  0.29521  0.25355  0.66280  1.0000
  H   H487      1.0  0.32227  0.44604  0.60414  1.0000
  C   C287      1.0  0.27102  0.25323  0.49216  1.0000
  C   C288      1.0  0.32440  0.33650  0.54687  1.0000
  C   C289      1.0  0.26508  0.41484  0.88541  1.0000
  H   H488      1.0  0.25072  0.26990  0.74147  1.0000
  H   H489      1.0  0.30411  0.31576  0.52722  1.0000
  H   H490      1.0  0.31392  0.36114  0.58916  1.0000
  C   C290      1.0  0.38458  0.31831  0.77584  1.0000
  H   H491      1.0  0.41163  0.26393  0.53991  1.0000
  H   H492      1.0  0.26908  0.24504  0.65095  1.0000
  H   H493      1.0  0.03096  0.42747  0.55286  1.0000
  H   H494      1.0  0.36749  0.32338  0.84616  1.0000
  Fe  Fe46      1.0  0.99669  0.41867  0.82546  1.0000
  H   H495      1.0  0.32831  0.38847  0.58254  1.0000
  H   H496      1.0  0.28608  0.27789  0.70526  1.0000
  C   C291      1.0  0.00161  0.45723  0.74169  1.0000
  Fe  Fe47      1.0  0.29469  0.25586  0.54701  1.0000
  N   N22       1.0  0.13012  0.29703  0.80432  1.0000
  C   C292      1.0  0.99872  0.24983  0.47673  1.0000
  H   H497      1.0  0.34504  0.31585  0.82935  1.0000
  N   N23       1.0  0.26199  0.46059  0.87496  1.0000
  H   H498      1.0  0.23319  0.26603  0.55006  1.0000
  H   H499      1.0  0.35794  0.39904  0.54562  1.0000
  H   H500      1.0  0.01711  0.24918  0.81989  1.0000
  C   C293      1.0  0.11764  0.30402  0.76075  1.0000
  H   H501      1.0  0.13305  0.33274  0.78653  1.0000
  C   C294      1.0  0.22170  0.25235  0.55882  1.0000
  H   H502      1.0  0.33800  0.36657  0.60531  1.0000
  C   C295      1.0  0.31616  0.33023  0.52321  1.0000
  C   C296      1.0  0.33283  0.31058  0.78608  1.0000
  C   C297      1.0  0.14301  0.31915  0.79804  1.0000
  C   C298      1.0  0.28325  0.46313  0.88832  1.0000
  H   H503      1.0  0.11216  0.40417  0.67881  1.0000
  H   H504      1.0  0.29958  0.45440  0.87922  1.0000
  C   C299      1.0  0.12502  0.28653  0.78195  1.0000
  C   C300      1.0  0.25906  0.44907  0.95258  1.0000
  C   C301      1.0  0.36928  0.34078  0.81031  1.0000
  C   C302      1.0  0.14663  0.27913  0.81775  1.0000
  H   H505      1.0  0.22397  0.45842  0.88170  1.0000
  H   H506      1.0  0.33203  0.31968  0.55611  1.0000
  H   H507      1.0  0.31659  0.31205  0.79873  1.0000
  H   H508      1.0  0.15752  0.34831  0.81217  1.0000
  C   C303      1.0  0.06228  0.44659  0.67554  1.0000
  H   H509      1.0  0.08507  0.40672  0.65356  1.0000
  H   H510      1.0  0.23408  0.24472  0.61345  1.0000
  H   H511      1.0  0.32371  0.37746  0.51744  1.0000
  H   H512      1.0  0.29371  0.45233  0.63453  1.0000
  C   C304      1.0  0.27959  0.45987  0.95596  1.0000
  C   C305      1.0  0.08416  0.42401  0.64268  1.0000
  H   H513      1.0  0.33917  0.34041  0.76060  1.0000
  H   H514      1.0  0.16006  0.31480  0.78725  1.0000
  H   H515      1.0  0.24007  0.44954  0.90693  1.0000
  H   H516      1.0  0.37570  0.30292  0.82434  1.0000
  H   H517      1.0  0.99408  0.32277  0.73792  1.0000
  C   C306      1.0  0.13870  0.25373  0.82289  1.0000
  H   H518      1.0  0.42254  0.23650  0.55597  1.0000
  C   C307      1.0  0.23639  0.46010  0.95892  1.0000
  H   H519      1.0  0.31187  0.38297  0.54628  1.0000
  S   S96       1.0  0.27589  0.27127  0.51463  1.0000
  H   H520      1.0  0.19196  0.25297  0.62966  1.0000
  H   H521      1.0  0.01241  0.42622  0.52070  1.0000
  H   H522      1.0  0.11603  0.44231  0.88267  1.0000
  H   H523      1.0  0.41309  0.46394  0.84509  1.0000
  H   H524      1.0  0.35233  0.40348  0.51482  1.0000
  H   H525      1.0  0.24934  0.28677  0.65536  1.0000
  C   C308      1.0  0.34197  0.33550  0.77974  1.0000
  C   C309      1.0  0.01513  0.23843  0.80492  1.0000
  C   C310      1.0  0.27666  0.46563  0.72065  1.0000
  H   H526      1.0  0.15238  0.24251  0.83272  1.0000
  C   C311      1.0  0.31646  0.43722  0.66181  1.0000
  H   H527      1.0  0.30661  0.42131  0.66131  1.0000
  H   H528      1.0  0.40309  0.32153  0.77883  1.0000
  H   H529      1.0  0.09360  0.45086  0.48879  1.0000
  H   H530      1.0  0.25057  0.23397  0.68842  1.0000
  H   H531      1.0  0.22970  0.25323  0.67271  1.0000
  S   S97       1.0  0.97638  0.23162  0.71743  1.0000
  C   C312      1.0  0.22631  0.23274  0.62738  1.0000
  H   H532      1.0  0.43225  0.37694  0.48833  1.0000
  H   H533      1.0  0.21179  0.22835  0.70691  1.0000
  H   H534      1.0  0.38185  0.30112  0.78620  1.0000
  C   C313      1.0  0.02877  0.46743  0.49926  1.0000
  H   H535      1.0  0.11547  0.46546  0.55503  1.0000
  Fe  Fe48      1.0  0.01454  0.46470  0.80185  1.0000
  H   H536      1.0  0.35125  0.45959  0.63128  1.0000
  H   H537      1.0  0.34971  0.45564  0.59000  1.0000
  H   H538      1.0  0.12207  0.44395  0.65593  1.0000
  H   H539      1.0  0.06521  0.45818  0.68959  1.0000
  H   H540      1.0  0.30683  0.44917  0.47394  1.0000
  H   H541      1.0  0.41231  0.23687  0.52691  1.0000
  H   H542      1.0  0.24556  0.22453  0.57362  1.0000
  H   H543      1.0  0.06630  0.46950  0.63181  1.0000
  C   C314      1.0  0.28882  0.45729  0.47321  1.0000
  C   C315      1.0  0.27768  0.22879  0.49414  1.0000
  C   C316      1.0  0.08315  0.46700  0.64063  1.0000
  H   H544      1.0  0.01820  0.22617  0.50160  1.0000
  H   H545      1.0  0.98704  0.30613  0.71477  1.0000
  C   C317      1.0  0.99152  0.38613  0.66562  1.0000
  C   C318      1.0  0.99064  0.34330  0.70294  1.0000
  S   S98       1.0  0.97814  0.45523  0.81694  1.0000
  H   H546      1.0  0.45002  0.26234  0.47153  1.0000
  C   C319      1.0  0.44628  0.22746  0.49220  1.0000
  C   C320      1.0  0.47437  0.42011  0.50695  1.0000
  H   H547      1.0  0.24974  0.22916  0.54261  1.0000
  H   H548      1.0  0.97554  0.39020  0.57729  1.0000
  H   H549      1.0  0.22571  0.47253  0.73621  1.0000
  C   C321      1.0  0.33815  0.47248  0.62255  1.0000
  H   H550      1.0  0.20152  0.22328  0.49895  1.0000
  H   H551      1.0  0.26216  0.68285  0.25110  1.0000
  C   C322      1.0  0.09394  0.54775  0.98227  1.0000
  H   H552      1.0  0.20838  0.48711  0.04529  1.0000
  S   S99       1.0  0.18164  0.48984  0.36558  1.0000
  H   H553      1.0  0.20732  0.50079  0.32000  1.0000
  H   H554      1.0  0.37731  0.58957  0.35026  1.0000
  N   N24       1.0  0.37578  0.59810  0.31194  1.0000
  S   S100      1.0  0.17879  0.49259  0.43739  1.0000
  Fe  Fe49      1.0  0.26384  0.58226  0.28824  1.0000
  S   S101      1.0  0.30115  0.56869  0.27508  1.0000
  S   S102      1.0  0.24878  0.57224  0.32670  1.0000
  Fe  Fe50      1.0  0.25651  0.61202  0.24069  1.0000
  S   S103      1.0  0.29244  0.59963  0.22457  1.0000
  S   S104      1.0  0.23263  0.63929  0.21983  1.0000
  Fe  Fe51      1.0  0.28474  0.56339  0.24155  1.0000
  S   S105      1.0  0.29619  0.53259  0.21883  1.0000
  Fe  Fe52      1.0  0.30546  0.60634  0.25922  1.0000
  S   S106      1.0  0.34042  0.62383  0.25448  1.0000
  S   S107      1.0  0.24736  0.57521  0.25531  1.0000
  S   S108      1.0  0.26963  0.62052  0.27493  1.0000
  H   H555      1.0  0.29315  0.57337  0.18322  1.0000
  H   H556      1.0  0.45606  0.57121  0.02800  1.0000
  H   H557      1.0  0.21948  0.71618  0.99485  1.0000
  H   H558      1.0  0.23347  0.53240  0.30426  1.0000
  H   H559      1.0  0.98106  0.55184  0.02764  1.0000
  H   H560      1.0  0.46984  0.55548  0.12318  1.0000
  C   C323      1.0  0.40379  0.58451  0.27541  1.0000
  C   C324      1.0  0.38933  0.59049  0.33347  1.0000
  S   S109      1.0  0.02104  0.58746  0.00262  1.0000
  S   S110      1.0  0.17082  0.48368  0.00230  1.0000
  H   H561      1.0  0.26627  0.68470  0.21019  1.0000
  H   H562      1.0  0.30531  0.47777  0.37969  1.0000
  H   H563      1.0  0.26904  0.48351  0.36993  1.0000
  H   H564      1.0  0.28763  0.54011  0.39064  1.0000
  H   H565      1.0  0.22075  0.69541  0.14935  1.0000
  C   C325      1.0  0.43140  0.52615  0.43126  1.0000
  C   C326      1.0  0.45247  0.53583  0.42155  1.0000
  C   C327      1.0  0.20240  0.71795  0.00605  1.0000
  C   C328      1.0  0.44639  0.52532  0.38199  1.0000
  C   C329      1.0  0.42527  0.51568  0.39169  1.0000
  C   C330      1.0  0.41790  0.51589  0.41624  1.0000
  C   C331      1.0  0.31645  0.69026  0.20469  1.0000
  H   H566      1.0  0.41455  0.50800  0.38016  1.0000
  H   H567      1.0  0.40157  0.50848  0.42344  1.0000
  C   C332      1.0  0.97549  0.63320  0.05120  1.0000
  H   H568      1.0  0.37510  0.71375  0.97678  1.0000
  H   H569      1.0  0.20450  0.60907  0.14038  1.0000
  C   C333      1.0  0.04916  0.57243  0.99446  1.0000
  C   C334      1.0  0.05717  0.55172  0.00823  1.0000
  H   H570      1.0  0.05340  0.50061  0.98671  1.0000
  H   H571      1.0  0.00679  0.69856  0.97952  1.0000
  H   H572      1.0  0.21156  0.59002  0.20992  1.0000
  H   H573      1.0  0.27110  0.71233  0.25258  1.0000
  H   H574      1.0  0.21743  0.61124  0.16752  1.0000
  C   C335      1.0  0.34497  0.65373  0.25831  1.0000
  C   C336      1.0  0.36528  0.66348  0.24659  1.0000
  C   C337      1.0  0.37049  0.68657  0.25028  1.0000
  C   C338      1.0  0.35575  0.70002  0.26623  1.0000
  C   C339      1.0  0.33545  0.69023  0.27801  1.0000
  C   C340      1.0  0.32995  0.66731  0.27393  1.0000
  H   H575      1.0  0.37713  0.65309  0.23461  1.0000
  H   H576      1.0  0.38625  0.69373  0.24121  1.0000
  H   H577      1.0  0.32395  0.70043  0.29045  1.0000
  H   H578      1.0  0.31440  0.65998  0.28329  1.0000
  C   C341      1.0  0.24094  0.65178  0.19062  1.0000
  C   C342      1.0  0.26123  0.64278  0.17714  1.0000
  C   C343      1.0  0.26645  0.65217  0.15345  1.0000
  C   C344      1.0  0.25193  0.67121  0.14326  1.0000
  C   C345      1.0  0.23214  0.68082  0.15702  1.0000
  C   C346      1.0  0.22656  0.67097  0.18050  1.0000
  H   H579      1.0  0.27271  0.62833  0.18477  1.0000
  H   H580      1.0  0.28188  0.64474  0.14296  1.0000
  H   H581      1.0  0.37999  0.64950  0.30111  1.0000
  H   H582      1.0  0.21086  0.67813  0.19081  1.0000
  C   C347      1.0  0.28141  0.50637  0.22021  1.0000
  C   C348      1.0  0.26053  0.50331  0.23503  1.0000
  H   H583      1.0  0.32793  0.58583  0.33066  1.0000
  C   C349      1.0  0.24218  0.47837  0.47003  1.0000
  H   H584      1.0  0.25310  0.51715  0.24616  1.0000
  S   S111      1.0  0.45473  0.52524  0.35089  1.0000
  H   H585      1.0  0.46300  0.54389  0.43298  1.0000
  N   N25       1.0  0.26774  0.50896  0.39670  1.0000
  H   H586      1.0  0.22066  0.55986  0.21932  1.0000
  H   H587      1.0  0.29903  0.53871  0.34782  1.0000
  H   H588      1.0  0.24141  0.54376  0.44204  1.0000
  C   C350      1.0  0.19869  0.51401  0.35453  1.0000
  C   C351      1.0  0.20191  0.53226  0.36853  1.0000
  C   C352      1.0  0.21670  0.55032  0.35947  1.0000
  C   C353      1.0  0.22840  0.55046  0.33632  1.0000
  C   C354      1.0  0.22469  0.53255  0.32212  1.0000
  C   C355      1.0  0.20990  0.51452  0.33116  1.0000
  H   H589      1.0  0.19311  0.53240  0.38637  1.0000
  H   H590      1.0  0.21920  0.56422  0.37055  1.0000
  S   S112      1.0  0.25854  0.68164  0.11306  1.0000
  C   C356      1.0  0.25606  0.49316  0.38224  1.0000
  H   H591      1.0  0.27774  0.48637  0.42757  1.0000
  H   H592      1.0  0.46808  0.66429  0.25710  1.0000
  H   H593      1.0  0.04617  0.54522  0.02373  1.0000
  H   H594      1.0  0.31250  0.51397  0.36491  1.0000
  C   C357      1.0  0.46729  0.53489  0.02000  1.0000
  C   C358      1.0  0.24853  0.52013  0.41365  1.0000
  H   H595      1.0  0.46822  0.50923  0.21784  1.0000
  H   H596      1.0  0.20606  0.71937  0.02475  1.0000
  Fe  Fe53      1.0  0.13582  0.49558  0.98692  1.0000
  C   C359      1.0  0.28647  0.49539  0.41119  1.0000
  C   C360      1.0  0.39254  0.60474  0.29037  1.0000
  Fe  Fe54      1.0  0.00187  0.61340  0.97608  1.0000
  H   H597      1.0  0.44294  0.69663  0.98908  1.0000
  H   H598      1.0  0.40210  0.59543  0.46748  1.0000
  H   H599      1.0  0.45036  0.52924  0.02947  1.0000
  H   H600      1.0  0.41281  0.56958  0.28608  1.0000
  H   H601      1.0  0.97794  0.62521  0.06955  1.0000
  H   H602      1.0  0.25903  0.55603  0.41690  1.0000
  H   H603      1.0  0.29816  0.50771  0.41750  1.0000
  H   H604      1.0  0.22426  0.48663  0.46893  1.0000
  H   H605      1.0  0.23061  0.52775  0.19480  1.0000
  H   H606      1.0  0.40116  0.60427  0.33631  1.0000
  H   H607      1.0  0.22427  0.48243  0.40461  1.0000
  H   H608      1.0  0.08538  0.52343  0.01281  1.0000
  H   H609      1.0  0.30603  0.71253  0.16338  1.0000
  H   H610      1.0  0.40751  0.55943  0.35180  1.0000
  H   H611      1.0  0.43039  0.50172  0.99708  1.0000
  C   C361      1.0  0.36046  0.57937  0.30647  1.0000
  Fe  Fe55      1.0  0.24789  0.71964  0.09876  1.0000
  H   H612      1.0  0.25808  0.71447  0.21462  1.0000
  H   H613      1.0  0.21700  0.53123  0.16662  1.0000
  H   H614      1.0  0.23974  0.50812  0.17258  1.0000
  H   H615      1.0  0.32967  0.65293  0.20605  1.0000
  H   H616      1.0  0.28543  0.69083  0.17112  1.0000
  C   C362      1.0  0.43187  0.71348  0.98464  1.0000
  H   H617      1.0  0.40734  0.61411  0.29555  1.0000
  H   H618      1.0  0.25175  0.72104  0.17596  1.0000
  H   H619      1.0  0.26145  0.70231  0.98161  1.0000
  H   H620      1.0  0.42363  0.57017  0.32455  1.0000
  C   C363      1.0  0.29077  0.48828  0.20575  1.0000
  H   H621      1.0  0.33288  0.55676  0.32093  1.0000
  C   C364      1.0  0.43328  0.51964  0.98828  1.0000
  S   S113      1.0  0.30278  0.49500  0.97166  1.0000
  H   H622      1.0  0.29250  0.68702  0.24815  1.0000
  H   H623      1.0  0.28763  0.51087  0.34740  1.0000
  C   C365      1.0  0.29522  0.52214  0.35912  1.0000
  H   H624      1.0  0.23465  0.61558  0.13904  1.0000
  H   H625      1.0  0.39031  0.57782  0.26538  1.0000
  H   H626      1.0  0.35039  0.56431  0.34320  1.0000
  H   H627      1.0  0.35060  0.58581  0.29063  1.0000
  C   C366      1.0  0.37128  0.64304  0.31865  1.0000
  C   C367      1.0  0.22112  0.60498  0.14945  1.0000
  H   H628      1.0  0.27206  0.53310  0.43771  1.0000
  H   H629      1.0  0.37114  0.56301  0.30119  1.0000
  C   C368      1.0  0.46367  0.56177  0.01230  1.0000
  H   H630      1.0  0.30091  0.55379  0.15969  1.0000
  H   H631      1.0  0.20619  0.56656  0.19284  1.0000
  H   H632      1.0  0.26321  0.54109  0.37303  1.0000
  C   C369      1.0  0.46001  0.53531  0.39710  1.0000
  C   C370      1.0  0.24926  0.48222  0.23548  1.0000
  H   H633      1.0  0.25314  0.50954  0.97996  1.0000
  H   H634      1.0  0.24101  0.50648  0.42693  1.0000
  H   H635      1.0  0.38418  0.64120  0.33234  1.0000
  H   H636      1.0  0.32281  0.69024  0.22259  1.0000
  H   H637      1.0  0.41739  0.59167  0.26184  1.0000
  H   H638      1.0  0.30691  0.49055  0.19421  1.0000
  H   H639      1.0  0.42519  0.53344  0.99991  1.0000
  C   C371      1.0  0.25607  0.53930  0.42824  1.0000
  H   H640      1.0  0.46594  0.48385  0.41785  1.0000
  H   H641      1.0  0.23326  0.52840  0.40390  1.0000
  C   C372      1.0  0.40560  0.56707  0.33315  1.0000
  S   S114      1.0  0.98598  0.65055  0.98313  1.0000
  C   C373      1.0  0.34199  0.57137  0.32675  1.0000
  C   C374      1.0  0.27787  0.52896  0.38050  1.0000
  H   H642      1.0  0.23310  0.48001  0.24699  1.0000
  C   C375      1.0  0.07936  0.53930  0.00205  1.0000
  H   H643      1.0  0.34858  0.61685  0.33479  1.0000
  H   H644      1.0  0.39843  0.55294  0.32465  1.0000
  H   H645      1.0  0.30795  0.58389  0.15559  1.0000
  Fe  Fe56      1.0  0.16793  0.47903  0.40432  1.0000
  C   C376      1.0  0.35933  0.61991  0.31742  1.0000
  H   H646      1.0  0.41873  0.71619  0.00014  1.0000
  H   H647      1.0  0.23696  0.49386  0.03156  1.0000
  H   H648      1.0  0.34613  0.62396  0.30393  1.0000
  H   H649      1.0  0.38320  0.61761  0.27748  1.0000
  C   C377      1.0  0.25484  0.49268  0.97225  1.0000
  S   S115      1.0  0.12235  0.53339  0.97408  1.0000
  Fe  Fe57      1.0  0.14189  0.48475  0.45390  1.0000
  H   H650      1.0  0.35733  0.65732  0.32360  1.0000
  N   N26       1.0  0.24871  0.56903  0.16505  1.0000
  C   C378      1.0  0.27043  0.58036  0.15324  1.0000
  C   C379      1.0  0.22853  0.57798  0.15004  1.0000
  C   C380      1.0  0.25369  0.54247  0.16446  1.0000
  C   C381      1.0  0.24434  0.57572  0.19039  1.0000
  C   C382      1.0  0.29426  0.57213  0.16378  1.0000
  C   C383      1.0  0.23378  0.52701  0.17524  1.0000
  C   C384      1.0  0.21928  0.57281  0.20338  1.0000
  H   H651      1.0  0.27310  0.57742  0.13392  1.0000
  H   H652      1.0  0.26810  0.59994  0.15394  1.0000
  H   H653      1.0  0.21228  0.56886  0.15544  1.0000
  H   H654      1.0  0.23317  0.57372  0.13122  1.0000
  H   H655      1.0  0.25856  0.53790  0.14578  1.0000
  H   H656      1.0  0.26919  0.53573  0.17459  1.0000
  H   H657      1.0  0.25736  0.56529  0.20169  1.0000
  H   H658      1.0  0.24787  0.59455  0.19134  1.0000
  C   C385      1.0  0.31315  0.66406  0.20173  1.0000
  H   H659      1.0  0.98318  0.58807  0.04365  1.0000
  C   C386      1.0  0.27312  0.70049  0.21651  1.0000
  H   H660      1.0  0.33179  0.69557  0.19210  1.0000
  N   N27       1.0  0.29497  0.70777  0.20125  1.0000
  H   H661      1.0  0.45110  0.56601  0.99835  1.0000
  C   C387      1.0  0.28992  0.70842  0.17544  1.0000
  S   S116      1.0  0.37675  0.47666  0.46960  1.0000
  C   C388      1.0  0.26994  0.71872  0.98000  1.0000
  H   H662      1.0  0.31030  0.66118  0.18317  1.0000
  C   C389      1.0  0.45981  0.52240  0.98067  1.0000
  H   H663      1.0  0.29854  0.65725  0.21421  1.0000
  H   H664      1.0  0.27369  0.47611  0.02247  1.0000
  H   H665      1.0  0.24402  0.50409  0.37029  1.0000
  H   H666      1.0  0.03429  0.48986  0.46560  1.0000
  H   H667      1.0  0.21692  0.49081  0.97320  1.0000
  H   H668      1.0  0.32052  0.47453  0.40601  1.0000
  C   C390      1.0  0.06364  0.58070  0.97454  1.0000
  C   C391      1.0  0.22506  0.47938  0.03588  1.0000
  C   C392      1.0  0.27511  0.69569  0.24355  1.0000
  S   S117      1.0  0.42238  0.52790  0.46203  1.0000
  H   H669      1.0  0.45956  0.69482  0.24928  1.0000
  C   C393      1.0  0.24146  0.47424  0.39676  1.0000
  C   C394      1.0  0.06364  0.49048  0.97270  1.0000
  H   H670      1.0  0.99083  0.62694  0.03891  1.0000
  H   H671      1.0  0.26561  0.72238  0.01785  1.0000
  H   H672      1.0  0.19357  0.70134  0.00596  1.0000
  C   C395      1.0  0.30263  0.47548  0.39932  1.0000
  S   S118      1.0  0.13003  0.47441  0.41966  1.0000
  C   C396      1.0  0.47512  0.68129  0.24975  1.0000
  H   H673      1.0  0.97592  0.65275  0.05109  1.0000
  H   H674      1.0  0.22004  0.47338  0.01918  1.0000
  H   H675      1.0  0.45951  0.48967  0.02030  1.0000
  H   H676      1.0  0.42336  0.52182  0.97209  1.0000
  C   C397      1.0  0.07709  0.66805  0.69491  1.0000
  Fe  Fe58      1.0  0.03531  0.49369  0.59668  1.0000
  H   H677      1.0  0.22721  0.57878  0.74833  1.0000
  S   S119      1.0  0.02465  0.50616  0.63311  1.0000
  H   H678      1.0  0.05789  0.47509  0.94103  1.0000
  H   H679      1.0  0.34606  0.59617  0.86093  1.0000
  H   H680      1.0  0.38049  0.60494  0.90809  1.0000
  Fe  Fe59      1.0  0.28977  0.59202  0.67065  1.0000
  S   S120      1.0  0.26028  0.57413  0.69292  1.0000
  S   S121      1.0  0.29575  0.58286  0.63152  1.0000
  Fe  Fe60      1.0  0.29833  0.62084  0.71236  1.0000
  S   S122      1.0  0.27057  0.60373  0.73702  1.0000
  S   S123      1.0  0.31532  0.65166  0.72497  1.0000
  Fe  Fe61      1.0  0.28522  0.56976  0.72172  1.0000
  S   S124      1.0  0.29038  0.53640  0.74685  1.0000
  Fe  Fe62      1.0  0.24801  0.60987  0.70619  1.0000
  S   S125      1.0  0.20918  0.62211  0.71662  1.0000
  S   S126      1.0  0.31541  0.58612  0.69922  1.0000
  S   S127      1.0  0.27517  0.62849  0.68170  1.0000
  Fe  Fe63      1.0  0.36919  0.49922  0.53387  1.0000
  H   H681      1.0  0.39360  0.56143  0.49600  1.0000
  S   S128      1.0  0.36819  0.51183  0.57157  1.0000
  Fe  Fe64      1.0  0.39387  0.50641  0.48248  1.0000
  H   H682      1.0  0.29418  0.61919  0.90975  1.0000
  Fe  Fe65      1.0  0.34337  0.49038  0.49092  1.0000
  H   H683      1.0  0.35212  0.54086  0.83062  1.0000
  H   H684      1.0  0.38150  0.60573  0.49091  1.0000
  S   S129      1.0  0.35988  0.52223  0.50094  1.0000
  C   C398      1.0  0.97995  0.56300  0.89243  1.0000
  S   S130      1.0  0.39223  0.54787  0.91922  1.0000
  S   S131      1.0  0.31545  0.67014  0.83452  1.0000
  C   C399      1.0  0.28907  0.48865  0.89161  1.0000
  C   C400      1.0  0.42251  0.55127  0.92207  1.0000
  C   C401      1.0  0.44000  0.53226  0.91974  1.0000
  H   H685      1.0  0.29290  0.48927  0.61174  1.0000
  H   H686      1.0  0.32707  0.51057  0.65447  1.0000
  C   C402      1.0  0.45351  0.57730  0.92617  1.0000
  C   C403      1.0  0.42938  0.57376  0.92536  1.0000
  H   H687      1.0  0.43501  0.51477  0.91746  1.0000
  Fe  Fe66      1.0  0.31144  0.70618  0.84977  1.0000
  H   H688      1.0  0.44099  0.58289  0.52465  1.0000
  C   C404      1.0  0.31417  0.65691  0.75553  1.0000
  C   C405      1.0  0.31919  0.67921  0.76168  1.0000
  C   C406      1.0  0.31891  0.68383  0.78578  1.0000
  C   C407      1.0  0.31413  0.66595  0.80399  1.0000
  C   C408      1.0  0.30903  0.64370  0.79784  1.0000
  C   C409      1.0  0.30877  0.63927  0.77378  1.0000
  H   H689      1.0  0.32352  0.69292  0.74771  1.0000
  H   H690      1.0  0.32306  0.70097  0.79024  1.0000
  H   H691      1.0  0.30538  0.62974  0.81176  1.0000
  H   H692      1.0  0.30504  0.62199  0.76933  1.0000
  C   C410      1.0  0.28567  0.50921  0.73629  1.0000
  H   H693      1.0  0.43700  0.52001  0.85299  1.0000
  C   C411      1.0  0.27596  0.50873  0.71460  1.0000
  H   H694      1.0  0.44153  0.59923  0.56298  1.0000
  H   H695      1.0  0.27193  0.52504  0.70374  1.0000
  C   C412      1.0  0.31656  0.56353  0.61503  1.0000
  C   C413      1.0  0.33751  0.55273  0.62403  1.0000
  C   C414      1.0  0.35331  0.53751  0.61023  1.0000
  C   C415      1.0  0.34831  0.53255  0.58737  1.0000
  C   C416      1.0  0.32738  0.54337  0.57837  1.0000
  C   C417      1.0  0.31179  0.55889  0.59201  1.0000
  H   H696      1.0  0.34159  0.55624  0.64158  1.0000
  H   H697      1.0  0.36941  0.52930  0.61747  1.0000
  H   H698      1.0  0.32299  0.53959  0.56101  1.0000
  H   H699      1.0  0.29567  0.56712  0.58480  1.0000
  S   S132      1.0  0.99023  0.56738  0.62789  1.0000
  H   H700      1.0  0.08517  0.71043  0.71838  1.0000
  Fe  Fe67      1.0  0.37963  0.51075  0.92585  1.0000
  H   H701      1.0  0.07928  0.52978  0.93764  1.0000
  C   C418      1.0  0.08839  0.70526  0.67411  1.0000
  C   C419      1.0  0.30805  0.62889  0.91637  1.0000
  C   C420      1.0  0.17671  0.69924  0.70241  1.0000
  C   C421      1.0  0.16845  0.68481  0.72238  1.0000
  C   C422      1.0  0.17882  0.66138  0.72674  1.0000
  C   C423      1.0  0.19788  0.65226  0.71150  1.0000
  C   C424      1.0  0.20671  0.66696  0.69201  1.0000
  C   C425      1.0  0.19598  0.69023  0.68736  1.0000
  H   H702      1.0  0.15380  0.69150  0.73422  1.0000
  H   H703      1.0  0.17194  0.65018  0.74192  1.0000
  H   H704      1.0  0.22133  0.66016  0.68008  1.0000
  H   H705      1.0  0.20253  0.70121  0.67185  1.0000
  H   H706      1.0  0.35072  0.49006  0.68604  1.0000
  H   H707      1.0  0.42973  0.56433  0.84077  1.0000
  H   H708      1.0  0.00513  0.57783  0.70817  1.0000
  H   H709      1.0  0.24040  0.56517  0.77381  1.0000
  H   H710      1.0  0.07108  0.52434  0.50155  1.0000
  H   H711      1.0  0.03962  0.47299  0.90917  1.0000
  C   C426      1.0  0.29083  0.48779  0.75022  1.0000
  H   H712      1.0  0.23944  0.67868  0.79351  1.0000
  C   C427      1.0  0.10254  0.50000  0.50438  1.0000
  H   H713      1.0  0.44230  0.55650  0.86848  1.0000
  C   C428      1.0  0.27750  0.48166  0.96590  1.0000
  C   C429      1.0  0.08381  0.48953  0.55211  1.0000
  C   C430      1.0  0.07115  0.50579  0.53676  1.0000
  C   C431      1.0  0.08062  0.51118  0.51309  1.0000
  H   H714      1.0  0.04380  0.69119  0.69050  1.0000
  C   C432      1.0  0.34870  0.48141  0.66964  1.0000
  H   H715      1.0  0.05444  0.51481  0.54329  1.0000
  H   H716      1.0  0.06118  0.70114  0.88540  1.0000
  H   H717      1.0  0.26802  0.68003  0.77785  1.0000
  S   S133      1.0  0.40481  0.48572  0.51619  1.0000
  H   H718      1.0  0.08115  0.50555  0.63783  1.0000
  S   S134      1.0  0.98304  0.59356  0.89519  1.0000
  H   H719      1.0  0.34709  0.62977  0.93734  1.0000
  H   H720      1.0  0.10299  0.49655  0.92925  1.0000
  H   H721      1.0  0.99187  0.55721  0.74909  1.0000
  H   H722      1.0  0.03236  0.50391  0.71865  1.0000
  H   H723      1.0  0.25684  0.49679  0.85810  1.0000
  N   N28       1.0  0.33250  0.62046  0.90558  1.0000
  H   H724      1.0  0.05785  0.59671  0.96391  1.0000
  H   H725      1.0  0.29827  0.48806  0.76708  1.0000
  H   H726      1.0  0.14620  0.64362  0.68602  1.0000
  H   H727      1.0  0.22955  0.50172  0.88748  1.0000
  H   H728      1.0  0.35183  0.58575  0.90062  1.0000
  H   H729      1.0  0.32072  0.58605  0.90155  1.0000
  H   H730      1.0  0.31114  0.49119  0.67525  1.0000
  H   H731      1.0  0.01253  0.50812  0.92411  1.0000
  H   H732      1.0  0.43159  0.57027  0.56912  1.0000
  Fe  Fe68      1.0  0.99755  0.66010  0.94441  1.0000
  H   H733      1.0  0.26136  0.65609  0.75147  1.0000
  C   C433      1.0  0.37697  0.62397  0.91101  1.0000
  H   H734      1.0  0.03148  0.48456  0.95759  1.0000
  H   H735      1.0  0.34878  0.65143  0.91326  1.0000
  H   H736      1.0  0.40327  0.54826  0.55857  1.0000
  C   C434      1.0  0.01464  0.71846  0.94581  1.0000
  H   H737      1.0  0.13346  0.65310  0.71365  1.0000
  H   H738      1.0  0.32348  0.47514  0.58753  1.0000
  H   H739      1.0  0.99803  0.56423  0.85707  1.0000
  C   C435      1.0  0.99173  0.54815  0.73253  1.0000
  C   C436      1.0  0.35055  0.63182  0.91755  1.0000
  C   C437      1.0  0.25156  0.69116  0.78335  1.0000
  H   H740      1.0  0.11625  0.70410  0.71363  1.0000
  N   N29       1.0  0.20371  0.53001  0.75056  1.0000
  C   C438      1.0  0.20867  0.50860  0.73635  1.0000
  C   C439      1.0  0.18703  0.54814  0.73774  1.0000
  C   C440      1.0  0.19233  0.52330  0.77521  1.0000
  C   C441      1.0  0.22700  0.53992  0.75291  1.0000
  H   H741      1.0  0.33894  0.54373  0.86023  1.0000
  C   C442      1.0  0.19681  0.55863  0.71295  1.0000
  C   C443      1.0  0.16881  0.51151  0.77624  1.0000
  C   C444      1.0  0.22516  0.56449  0.76301  1.0000
  H   H742      1.0  0.19201  0.50328  0.73033  1.0000
  H   H743      1.0  0.22007  0.51288  0.71961  1.0000
  H   H744      1.0  0.18113  0.56329  0.74866  1.0000
  H   H745      1.0  0.17047  0.54027  0.73483  1.0000
  H   H746      1.0  0.20489  0.51132  0.78586  1.0000
  H   H747      1.0  0.18815  0.53912  0.78547  1.0000
  H   H748      1.0  0.23831  0.52743  0.76441  1.0000
  H   H749      1.0  0.23742  0.54176  0.73521  1.0000
  S   S135      1.0  0.07350  0.48353  0.58251  1.0000
  Fe  Fe69      1.0  0.99939  0.47777  0.63808  1.0000
  C   C445      1.0  0.98605  0.52947  0.86751  1.0000
  H   H750      1.0  0.20146  0.54486  0.70025  1.0000
  H   H751      1.0  0.18292  0.57153  0.70530  1.0000
  H   H752      1.0  0.21231  0.56872  0.71397  1.0000
  H   H753      1.0  0.17043  0.49556  0.76615  1.0000
  H   H754      1.0  0.15420  0.52428  0.76987  1.0000
  H   H755      1.0  0.16331  0.50558  0.79512  1.0000
  C   C446      1.0  0.35185  0.61402  0.86255  1.0000
  H   H756      1.0  0.20875  0.56891  0.77450  1.0000
  H   H757      1.0  0.35701  0.57762  0.51075  1.0000
  C   C447      1.0  0.42673  0.58838  0.56082  1.0000
  H   H758      1.0  0.38458  0.49575  0.83410  1.0000
  C   C448      1.0  0.05202  0.67834  0.70407  1.0000
  H   H759      1.0  0.03970  0.48086  0.50489  1.0000
  H   H760      1.0  0.24407  0.65520  0.72716  1.0000
  H   H761      1.0  0.06842  0.53444  0.90899  1.0000
  H   H762      1.0  0.35248  0.62349  0.84436  1.0000
  H   H763      1.0  0.99043  0.61290  0.64584  1.0000
  H   H764      1.0  0.30567  0.49284  0.88055  1.0000
  H   H765      1.0  0.33780  0.64723  0.87587  1.0000
  H   H766      1.0  0.41248  0.61135  0.48953  1.0000
  H   H767      1.0  0.30650  0.62506  0.93609  1.0000
  H   H768      1.0  0.08530  0.69787  0.83641  1.0000
  H   H769      1.0  0.33775  0.56351  0.93638  1.0000
  H   H770      1.0  0.97893  0.70992  0.75140  1.0000
  H   H771      1.0  0.40420  0.72138  0.89333  1.0000
  C   C449      1.0  0.22138  0.48629  0.74906  1.0000
  C   C450      1.0  0.21920  0.71999  0.77087  1.0000
  H   H772      1.0  0.08173  0.68317  0.74986  1.0000
  N   N30       1.0  0.04712  0.51306  0.93503  1.0000
  C   C451      1.0  0.35351  0.53398  0.84950  1.0000
  H   H773      1.0  0.38415  0.63491  0.89505  1.0000
  H   H774      1.0  0.34964  0.58898  0.94485  1.0000
  H   H775      1.0  0.41604  0.58851  0.92743  1.0000
  C   C452      1.0  0.02190  0.48888  0.71918  1.0000
  C   C453      1.0  0.04895  0.70623  0.87112  1.0000
  S   S136      1.0  0.01626  0.62389  0.93860  1.0000
  S   S137      1.0  0.34467  0.50298  0.91418  1.0000
  H   H776      1.0  0.04017  0.66370  0.70786  1.0000
  H   H777      1.0  0.05417  0.49413  0.88747  1.0000
  H   H778      1.0  0.13376  0.68535  0.68080  1.0000
  Fe  Fe70      1.0  0.98462  0.48839  0.58752  1.0000
  H   H779      1.0  0.41995  0.60776  0.52754  1.0000
  C   C454      1.0  0.25860  0.71775  0.74729  1.0000
  H   H780      1.0  0.44660  0.54425  0.53949  1.0000
  H   H781      1.0  0.01476  0.55659  0.92559  1.0000
  C   C455      1.0  0.26045  0.49192  0.47463  1.0000
  H   H782      1.0  0.04488  0.56405  0.92754  1.0000
  C   C456      1.0  0.33511  0.59366  0.90965  1.0000
  C   C457      1.0  0.03088  0.51078  0.91590  1.0000
  H   H783      1.0  0.01260  0.54872  0.69743  1.0000
  C   C458      1.0  0.27117  0.48705  0.70700  1.0000
  C   C459      1.0  0.10553  0.47806  0.54331  1.0000
  H   H784      1.0  0.37878  0.60531  0.53226  1.0000
  H   H785      1.0  0.30004  0.66165  0.89244  1.0000
  H   H786      1.0  0.03249  0.71420  0.88074  1.0000
  N   N31       1.0  0.39952  0.52589  0.84613  1.0000
  H   H787      1.0  0.37832  0.55789  0.85666  1.0000
  H   H788      1.0  0.22178  0.69237  0.73337  1.0000
  H   H789      1.0  0.38394  0.70894  0.93390  1.0000
  C   C460      1.0  0.40194  0.53614  0.82050  1.0000
  H   H790      1.0  0.45861  0.59467  0.92879  1.0000
  H   H791      1.0  0.43195  0.51766  0.54321  1.0000
  Fe  Fe71      1.0  0.99467  0.52911  0.61669  1.0000
  C   C461      1.0  0.23204  0.48678  0.90136  1.0000
  H   H792      1.0  0.99286  0.52243  0.85085  1.0000
  H   H793      1.0  0.24341  0.71825  0.80942  1.0000
  H   H794      1.0  0.44086  0.52530  0.81490  1.0000
  C   C462      1.0  0.42027  0.53000  0.85953  1.0000
  H   H795      1.0  0.02751  0.55756  0.72102  1.0000
  C   C463      1.0  0.47103  0.55846  0.92307  1.0000
  H   H796      1.0  0.38704  0.53151  0.81093  1.0000
  H   H797      1.0  0.39983  0.55595  0.81903  1.0000
  H   H798      1.0  0.42862  0.54245  0.79082  1.0000
  C   C464      1.0  0.39615  0.49968  0.84780  1.0000
  C   C465      1.0  0.01002  0.55879  0.71348  1.0000
  H   H799      1.0  0.26500  0.67675  0.72504  1.0000
  H   H800      1.0  0.07553  0.66087  0.67752  1.0000
  H   H801      1.0  0.21947  0.67396  0.76013  1.0000
  H   H802      1.0  0.35782  0.55661  0.53692  1.0000
  C   C466      1.0  0.42599  0.55607  0.85915  1.0000
  H   H803      1.0  0.43550  0.53289  0.51421  1.0000
  C   C467      1.0  0.04301  0.68279  0.86238  1.0000
  N   N32       1.0  0.31700  0.47954  0.63951  1.0000
  H   H804      1.0  0.01244  0.71183  0.77626  1.0000
  C   C468      1.0  0.46416  0.53597  0.91979  1.0000
  C   C469      1.0  0.37752  0.53829  0.85837  1.0000
  H   H805      1.0  0.41721  0.52291  0.87854  1.0000
  H   H806      1.0  0.41176  0.56702  0.86899  1.0000
  H   H807      1.0  0.11310  0.68168  0.74890  1.0000
  H   H808      1.0  0.28535  0.51973  0.65480  1.0000
  S   S138      1.0  0.00775  0.51885  0.57952  1.0000
  H   H809      1.0  0.99891  0.52959  0.73750  1.0000
  H   H810      1.0  0.31763  0.58736  0.94624  1.0000
  H   H811      1.0  0.08110  0.49770  0.96790  1.0000
  H   H812      1.0  0.42365  0.70420  0.91260  1.0000
  H   H813      1.0  0.37011  0.61227  0.86812  1.0000
  C   C470      1.0  0.33383  0.62828  0.87917  1.0000
  H   H814      1.0  0.11720  0.63564  0.69639  1.0000
  H   H815      1.0  0.24466  0.49060  0.91396  1.0000
  H   H816      1.0  0.02926  0.52738  0.90375  1.0000
  H   H817      1.0  0.21001  0.47822  0.76414  1.0000
  H   H818      1.0  0.38732  0.62625  0.92620  1.0000
  C   C471      1.0  0.33491  0.58322  0.93590  1.0000
  N   N33       1.0  0.24022  0.70370  0.76191  1.0000
  S   S139      1.0  0.01203  0.69483  0.92820  1.0000
  H   H819      1.0  0.05209  0.68684  0.72087  1.0000
  H   H820      1.0  0.27017  0.52359  0.62851  1.0000
  C   C472      1.0  0.03516  0.53189  0.95042  1.0000
  H   H821      1.0  0.07137  0.49320  0.66697  1.0000
  H   H822      1.0  0.38663  0.49416  0.86530  1.0000
  C   C473      1.0  0.35837  0.57554  0.53026  1.0000
  H   H823      1.0  0.23835  0.49002  0.75544  1.0000
  H   H824      1.0  0.37621  0.53278  0.87785  1.0000
  H   H825      1.0  0.18854  0.71160  0.75337  1.0000
  H   H826      1.0  0.01835  0.52601  0.96005  1.0000
  H   H827      1.0  0.08157  0.65211  0.70703  1.0000
  C   C474      1.0  0.98893  0.55324  0.87108  1.0000
  H   H828      1.0  0.41068  0.59643  0.57089  1.0000
  H   H829      1.0  0.08288  0.48479  0.91155  1.0000
  S   S140      1.0  0.02192  0.48750  0.76742  1.0000
  H   H830      1.0  0.27977  0.49327  0.82133  1.0000
  N   N34       1.0  0.40423  0.57446  0.52784  1.0000
  C   C475      1.0  0.40729  0.54919  0.53884  1.0000
  C   C476      1.0  0.38051  0.58582  0.53747  1.0000
  C   C477      1.0  0.42350  0.58871  0.53399  1.0000
  C   C478      1.0  0.40565  0.57406  0.50112  1.0000
  H   H831      1.0  0.27498  0.50296  0.88790  1.0000
  H   H832      1.0  0.10011  0.50823  0.89944  1.0000
  C   C479      1.0  0.40005  0.59819  0.48679  1.0000
  H   H833      1.0  0.29283  0.48952  0.91042  1.0000
  H   H834      1.0  0.39426  0.53839  0.53254  1.0000
  S   S141      1.0  0.37125  0.49602  0.96352  1.0000
  H   H835      1.0  0.37886  0.58402  0.55733  1.0000
  C   C480      1.0  0.23209  0.68475  0.74839  1.0000
  H   H836      1.0  0.26660  0.69586  0.81628  1.0000
  H   H837      1.0  0.42377  0.56724  0.49405  1.0000
  H   H838      1.0  0.31154  0.66692  0.92013  1.0000
  H   H839      1.0  0.09485  0.70965  0.86125  1.0000
  H   H840      1.0  0.09977  0.65956  0.73612  1.0000
  H   H841      1.0  0.26303  0.48689  0.69055  1.0000
  H   H842      1.0  0.02042  0.49159  0.68126  1.0000
  H   H843      1.0  0.31628  0.62758  0.87201  1.0000
  C   C481      1.0  0.27967  0.51000  0.64056  1.0000
  N   N35       1.0  0.09608  0.68522  0.69217  1.0000
  C   C482      1.0  0.42474  0.52813  0.80513  1.0000
  C   C483      1.0  0.43187  0.53562  0.53342  1.0000
  C   C484      1.0  0.11930  0.67322  0.68199  1.0000
  C   C485      1.0  0.09920  0.69566  0.71513  1.0000
  H   H844      1.0  0.02351  0.49045  0.88747  1.0000
  C   C486      1.0  0.12910  0.65010  0.69563  1.0000
  C   C487      1.0  0.09829  0.67873  0.73836  1.0000
  H   H845      1.0  0.02838  0.68571  0.85048  1.0000
  H   H846      1.0  0.21020  0.71187  0.78769  1.0000
  C   C488      1.0  0.41298  0.72158  0.91003  1.0000
  C   C489      1.0  0.25201  0.66743  0.73761  1.0000
  H   H847      1.0  0.11777  0.66899  0.66338  1.0000
  H   H848      1.0  0.34819  0.48818  0.61657  1.0000
  C   C490      1.0  0.30036  0.65574  0.91171  1.0000
  S   S142      1.0  0.11434  0.50830  0.47488  1.0000
  C   C491      1.0  0.25881  0.70730  0.80139  1.0000
  C   C492      1.0  0.32492  0.49141  0.65985  1.0000
  H   H849      1.0  0.10290  0.49214  0.65673  1.0000
  H   H850      1.0  0.27272  0.71886  0.79349  1.0000
  C   C493      1.0  0.11475  0.48306  0.51949  1.0000
  H   H851      1.0  0.24410  0.47554  0.84412  1.0000
  H   H852      1.0  0.26661  0.49741  0.64817  1.0000
  H   H853      1.0  0.28191  0.65944  0.91991  1.0000
  S   S143      1.0  0.02439  0.47716  0.83574  1.0000
  C   C494      1.0  0.03791  0.49080  0.89936  1.0000
  H   H854      1.0  0.34216  0.58518  0.53863  1.0000
  H   H855      1.0  0.43556  0.70938  0.94771  1.0000
  H   H856      1.0  0.42243  0.51177  0.79663  1.0000
  C   C495      1.0  0.04941  0.49007  0.95084  1.0000
  H   H857      1.0  0.97935  0.51769  0.70595  1.0000
  H   H858      1.0  0.05876  0.67317  0.85334  1.0000
  H   H859      1.0  0.35001  0.51496  0.85204  1.0000
  H   H860      1.0  0.08285  0.69815  0.65800  1.0000
  Fe  Fe72      1.0  0.98140  0.61392  0.92842  1.0000
  C   C496      1.0  0.08981  0.50118  0.91587  1.0000
  H   H861      1.0  0.03670  0.67094  0.87809  1.0000
  H   H862      1.0  0.31109  0.51177  0.61633  1.0000
  C   C497      1.0  0.07086  0.52084  0.92433  1.0000
  C   C498      1.0  0.08477  0.49059  0.65161  1.0000
  Fe  Fe73      1.0  0.33789  0.48512  0.95095  1.0000
  H   H863      1.0  0.04824  0.71056  0.82057  1.0000
  C   C499      1.0  0.01492  0.47679  0.74112  1.0000
  H   H864      1.0  0.27593  0.70687  0.74444  1.0000
  S   S144      1.0  0.32670  0.71141  0.88404  1.0000
  C   C500      1.0  0.02907  0.55666  0.93753  1.0000
  C   C501      1.0  0.01515  0.48190  0.69793  1.0000
  C   C502      1.0  0.42037  0.71128  0.96151  1.0000
  C   C503      1.0  0.30080  0.49752  0.62583  1.0000
  H   H865      1.0  0.12136  0.71475  0.65276  1.0000
  H   H866      1.0  0.02212  0.56910  0.95107  1.0000
  S   S145      1.0  0.27336  0.71467  0.93202  1.0000
  S   S146      1.0  0.30667  0.50038  0.47778  1.0000
  H   H867      1.0  0.07250  0.71622  0.68150  1.0000
  H   H868      1.0  0.21458  0.48575  0.91206  1.0000
  H   H869      1.0  0.09716  0.57526  0.95337  1.0000
  C   C504      1.0  0.08485  0.71461  0.84524  1.0000
  C   C505      1.0  0.01400  0.71864  0.75769  1.0000
  H   H870      1.0  0.11801  0.72283  0.82477  1.0000
  C   C506      1.0  0.99505  0.71741  0.74362  1.0000
  S   S147      1.0  0.27433  0.71907  0.86298  1.0000
  H   H871      1.0  0.36400  0.48577  0.65669  1.0000
  C   C507      1.0  0.23432  0.48203  0.96858  1.0000
  H   H872      1.0  0.04660  0.53494  0.96446  1.0000
  H   H873      1.0  0.00413  0.48784  0.47624  1.0000
  C   C508      1.0  0.28390  0.48158  0.47589  1.0000
  C   C509      1.0  0.08595  0.56851  0.96860  1.0000
  S   S148      1.0  0.39822  0.47682  0.91352  1.0000
  H   H874      1.0  0.43063  0.48601  0.82967  1.0000
  H   H875      1.0  0.25643  0.51063  0.47692  1.0000
  H   H876      1.0  0.24126  0.71923  0.71333  1.0000
  H   H877      1.0  0.41240  0.69392  0.96347  1.0000
  C   C510      1.0  0.28164  0.47750  0.83452  1.0000
  C   C511      1.0  0.02162  0.47720  0.47420  1.0000
  H   H878      1.0  0.29865  0.47800  0.84249  1.0000
  C   C512      1.0  0.26000  0.47824  0.85334  1.0000
  C   C513      1.0  0.01089  0.71560  0.97066  1.0000
  C   C514      1.0  0.41864  0.48209  0.84584  1.0000
  H   H879      1.0  0.97668  0.59490  0.73898  1.0000
  H   H880      1.0  0.42855  0.48128  0.86194  1.0000
  H   H881      1.0  0.46531  0.50924  0.96738  1.0000
  H   H882      1.0  0.13168  0.47443  0.51305  1.0000
  H   H883      1.0  0.07325  0.47431  0.47623  1.0000
  H   H884      1.0  0.46105  0.54008  0.97051  1.0000
  H   H885      1.0  0.42027  0.76016  0.98657  1.0000
  Fe  Fe74      1.0  0.38818  0.75155  0.24929  1.0000
  C   C515      1.0  0.27219  0.73012  0.00054  1.0000
  Fe  Fe75      1.0  0.41055  0.79981  0.23988  1.0000
  S   S149      1.0  0.42608  0.79049  0.20335  1.0000
  S   S150      1.0  0.41779  0.83770  0.24736  1.0000
  Fe  Fe76      1.0  0.39123  0.77606  0.19911  1.0000
  S   S151      1.0  0.37486  0.77849  0.16350  1.0000
  Fe  Fe77      1.0  0.43679  0.75485  0.22176  1.0000
  H   H886      1.0  0.35995  0.75970  0.09183  1.0000
  S   S152      1.0  0.37449  0.78814  0.23399  1.0000
  S   S153      1.0  0.42268  0.76425  0.25853  1.0000
  H   H887      1.0  0.29679  0.79363  0.06373  1.0000
  H   H888      1.0  0.40743  0.93043  0.14797  1.0000
  H   H889      1.0  0.39452  0.77771  0.97594  1.0000
  H   H890      1.0  0.46307  0.83374  0.31865  1.0000
  H   H891      1.0  0.30400  0.78679  0.09332  1.0000
  H   H892      1.0  0.05128  0.88589  0.04283  1.0000
  C   C516      1.0  0.06503  0.84613  0.07163  1.0000
  H   H893      1.0  0.33811  0.82463  0.09633  1.0000
  S   S154      1.0  0.22367  0.74677  0.11777  1.0000
  Fe  Fe78      1.0  0.26269  0.75643  0.05787  1.0000
  S   S155      1.0  0.24017  0.78630  0.07467  1.0000
  S   S156      1.0  0.28575  0.76633  0.02399  1.0000
  Fe  Fe79      1.0  0.25416  0.76974  0.10919  1.0000
  S   S157      1.0  0.26790  0.79029  0.13693  1.0000
  Fe  Fe80      1.0  0.21195  0.76062  0.08125  1.0000
  S   S158      1.0  0.17277  0.76719  0.07265  1.0000
  H   H894      1.0  0.07799  0.90269  0.08134  1.0000
  H   H895      1.0  0.02993  0.85735  0.05761  1.0000
  H   H896      1.0  0.33156  0.83839  0.05611  1.0000
  S   S159      1.0  0.04278  0.83226  0.01397  1.0000
  Fe  Fe81      1.0  0.03175  0.81700  0.98176  1.0000
  C   C517      1.0  0.34583  0.75687  0.08041  1.0000
  H   H897      1.0  0.32985  0.77161  0.04890  1.0000
  H   H898      1.0  0.32714  0.83341  0.01402  1.0000
  S   S160      1.0  0.11299  0.84055  0.00225  1.0000
  Fe  Fe82      1.0  0.02410  0.86682  0.99959  1.0000
  H   H899      1.0  0.35160  0.74026  0.07173  1.0000
  N   N36       1.0  0.43834  0.88520  0.17106  1.0000
  C   C518      1.0  0.37222  0.80752  0.08621  1.0000
  H   H900      1.0  0.46229  0.86853  0.21538  1.0000
  H   H901      1.0  0.35538  0.82019  0.04324  1.0000
  C   C519      1.0  0.26918  0.72625  0.16757  1.0000
  H   H902      1.0  0.29325  0.83806  0.07068  1.0000
  C   C520      1.0  0.15656  0.78796  0.05304  1.0000
  C   C521      1.0  0.13369  0.78322  0.04810  1.0000
  C   C522      1.0  0.12016  0.79895  0.03258  1.0000
  C   C523      1.0  0.12927  0.81981  0.02182  1.0000
  C   C524      1.0  0.15207  0.82468  0.02689  1.0000
  C   C525      1.0  0.16563  0.80890  0.04236  1.0000
  H   H903      1.0  0.12641  0.76716  0.05630  1.0000
  H   H904      1.0  0.10269  0.79489  0.02896  1.0000
  H   H905      1.0  0.15930  0.84080  0.01880  1.0000
  H   H906      1.0  0.18304  0.81299  0.04614  1.0000
  H   H907      1.0  0.35918  0.77886  0.04978  1.0000
  C   C526      1.0  0.28311  0.75133  0.99861  1.0000
  H   H908      1.0  0.45027  0.86405  0.14159  1.0000
  S   S161      1.0  0.00301  0.89447  0.02182  1.0000
  H   H909      1.0  0.47200  0.90081  0.16947  1.0000
  C   C527      1.0  0.10389  0.86372  0.06553  1.0000
  C   C528      1.0  0.34396  0.77869  0.16072  1.0000
  C   C529      1.0  0.33599  0.76262  0.14651  1.0000
  C   C530      1.0  0.31241  0.76525  0.14008  1.0000
  C   C531      1.0  0.29674  0.78442  0.14716  1.0000
  C   C532      1.0  0.30442  0.79988  0.16216  1.0000
  C   C533      1.0  0.32786  0.79700  0.16899  1.0000
  H   H910      1.0  0.34832  0.74847  0.13991  1.0000
  H   H911      1.0  0.30654  0.75276  0.12922  1.0000
  H   H912      1.0  0.29240  0.81463  0.16797  1.0000
  H   H913      1.0  0.33382  0.80971  0.17966  1.0000
  C   C534      1.0  0.43414  0.84921  0.26849  1.0000
  C   C535      1.0  0.43796  0.87356  0.26586  1.0000
  C   C536      1.0  0.45134  0.88342  0.28168  1.0000
  H   H914      1.0  0.30877  0.72552  0.24349  1.0000
  H   H915      1.0  0.32750  0.80188  0.01950  1.0000
  C   C537      1.0  0.44347  0.83497  0.28759  1.0000
  H   H916      1.0  0.43046  0.88490  0.25148  1.0000
  C   C538      1.0  0.29211  0.76087  0.97607  1.0000
  C   C539      1.0  0.46851  0.92671  0.06062  1.0000
  H   H917      1.0  0.44052  0.81630  0.29010  1.0000
  C   C540      1.0  0.42445  0.90836  0.17685  1.0000
  H   H918      1.0  0.37689  0.82585  0.08027  1.0000
  H   H919      1.0  0.44756  0.91905  0.13262  1.0000
  C   C541      1.0  0.17852  0.78197  0.98504  1.0000
  H   H920      1.0  0.38866  0.92568  0.17448  1.0000
  C   C542      1.0  0.18573  0.73944  0.99714  1.0000
  H   H921      1.0  0.34083  0.79470  0.10676  1.0000
  H   H922      1.0  0.34718  0.75193  0.98153  1.0000
  C   C543      1.0  0.11411  0.84199  0.08122  1.0000
  H   H923      1.0  0.38043  0.80141  0.10308  1.0000
  C   C544      1.0  0.46535  0.88593  0.20533  1.0000
  C   C545      1.0  0.40243  0.85947  0.17935  1.0000
  H   H924      1.0  0.07840  0.91754  0.04368  1.0000
  N   N37       1.0  0.33245  0.80123  0.06978  1.0000
  C   C546      1.0  0.30639  0.80008  0.07773  1.0000
  C   C547      1.0  0.34204  0.77755  0.06099  1.0000
  C   C548      1.0  0.33619  0.82041  0.04977  1.0000
  C   C549      1.0  0.34496  0.80685  0.09058  1.0000
  C   C550      1.0  0.29267  0.82346  0.08515  1.0000
  Fe  Fe83      1.0  0.07510  0.84208  0.99032  1.0000
  H   H925      1.0  0.29883  0.82906  0.10158  1.0000
  H   H926      1.0  0.07439  0.86707  0.02904  1.0000
  H   H927      1.0  0.17610  0.73356  0.98293  1.0000
  H   H928      1.0  0.47326  0.89777  0.12945  1.0000
  S   S162      1.0  0.40358  0.73939  0.21418  1.0000
  S   S163      1.0  0.36252  0.72854  0.27276  1.0000
  C   C551      1.0  0.45373  0.90066  0.12845  1.0000
  H   H929      1.0  0.07109  0.83407  0.05735  1.0000
  H   H930      1.0  0.27364  0.82041  0.08955  1.0000
  C   C552      1.0  0.01772  0.75718  0.97303  1.0000
  C   C553      1.0  0.45627  0.84496  0.30379  1.0000
  H   H931      1.0  0.13380  0.84185  0.08006  1.0000
  H   H932      1.0  0.06351  0.89142  0.12263  1.0000
  H   H933      1.0  0.07763  0.90828  0.01464  1.0000
  C   C554      1.0  0.32254  0.81882  0.02775  1.0000
  C   C555      1.0  0.01254  0.73483  0.98417  1.0000
  N   N38       1.0  0.19758  0.76184  0.98887  1.0000
  H   H934      1.0  0.09059  0.87438  0.11440  1.0000
  H   H935      1.0  0.45428  0.90208  0.27920  1.0000
  C   C556      1.0  0.42743  0.86428  0.18496  1.0000
  C   C557      1.0  0.30030  0.73250  0.20574  1.0000
  H   H936      1.0  0.43631  0.92314  0.17373  1.0000
  H   H937      1.0  0.32921  0.75376  0.09166  1.0000
  C   C558      1.0  0.07062  0.88019  0.04263  1.0000
  C   C559      1.0  0.03754  0.84880  0.07395  1.0000
  C   C560      1.0  0.08336  0.90240  0.03268  1.0000
  H   H938      1.0  0.11127  0.86026  0.04711  1.0000
  H   H939      1.0  0.06241  0.86123  0.11694  1.0000
  H   H940      1.0  0.98377  0.95740  0.98637  1.0000
  H   H941      1.0  0.10297  0.89871  0.03046  1.0000
  H   H942      1.0  0.03108  0.83080  0.07698  1.0000
  H   H943      1.0  0.11032  0.82512  0.07452  1.0000
  H   H944      1.0  0.10753  0.84192  0.10025  1.0000
  H   H945      1.0  0.39748  0.84291  0.19009  1.0000
  H   H946      1.0  0.47250  0.93610  0.21652  1.0000
  S   S164      1.0  0.27865  0.74213  0.09164  1.0000
  H   H947      1.0  0.03015  0.85857  0.08944  1.0000
  H   H948      1.0  0.07008  0.83601  0.08844  1.0000
  S   S165      1.0  0.01616  0.78137  0.99086  1.0000
  H   H949      1.0  0.22592  0.75339  0.01232  1.0000
  C   C561      1.0  0.46651  0.89743  0.03202  1.0000
  C   C562      1.0  0.45874  0.93978  0.02053  1.0000
  C   C563      1.0  0.06852  0.88629  0.08490  1.0000
  H   H950      1.0  0.45779  0.91198  0.99704  1.0000
  H   H951      1.0  0.23436  0.79263  0.98768  1.0000
  H   H952      1.0  0.26849  0.72622  0.14801  1.0000
  N   N39       1.0  0.07707  0.86890  0.06674  1.0000
  C   C564      1.0  0.46325  0.88519  0.17843  1.0000
  H   H953      1.0  0.11251  0.87948  0.06959  1.0000
  S   S166      1.0  0.23414  0.73128  0.06292  1.0000
  H   H954      1.0  0.04936  0.89230  0.08356  1.0000
  H   H955      1.0  0.42321  0.88113  0.13780  1.0000
  H   H956      1.0  0.45047  0.89914  0.10962  1.0000
  C   C565      1.0  0.07158  0.87744  0.11110  1.0000
  H   H957      1.0  0.41809  0.90764  0.19615  1.0000
  C   C566      1.0  0.22335  0.79097  0.00496  1.0000
  H   H958      1.0  0.30299  0.82103  0.03200  1.0000
  H   H959      1.0  0.45383  0.95396  0.00723  1.0000
  C   C567      1.0  0.46094  0.91599  0.01471  1.0000
  H   H960      1.0  0.31570  0.75377  0.22930  1.0000
  H   H961      1.0  0.16696  0.78412  0.00187  1.0000
  C   C568      1.0  0.44066  0.88173  0.14479  1.0000
  H   H962      1.0  0.17177  0.74278  0.01207  1.0000
  H   H963      1.0  0.33442  0.72803  0.22200  1.0000
  C   C569      1.0  0.40274  0.91667  0.16257  1.0000
  H   H964      1.0  0.19967  0.76787  0.02591  1.0000
  H   H965      1.0  0.00813  0.92624  0.97640  1.0000
  H   H966      1.0  0.38066  0.79553  0.07293  1.0000
  H   H967      1.0  0.27136  0.74473  0.17110  1.0000
  H   H968      1.0  0.38887  0.87372  0.18502  1.0000
  H   H969      1.0  0.38602  0.73715  0.98955  1.0000
  C   C570      1.0  0.21131  0.76750  0.00890  1.0000
  H   H970      1.0  0.39443  0.90247  0.15530  1.0000
  C   C571      1.0  0.31558  0.73469  0.22643  1.0000
  H   H971      1.0  0.40153  0.85635  0.16046  1.0000
  C   C572      1.0  0.46066  0.86914  0.30080  1.0000
  H   H972      1.0  0.30066  0.77723  0.97447  1.0000
  S   S167      1.0  0.45839  0.81951  0.98081  1.0000
  H   H973      1.0  0.00952  0.73243  0.00339  1.0000
  H   H974      1.0  0.42562  0.86650  0.20436  1.0000
  S   S168      1.0  0.05733  0.87823  0.97843  1.0000
  H   H975      1.0  0.23546  0.79133  0.01919  1.0000
  C   C573      1.0  0.46250  0.94526  0.04352  1.0000
  H   H976      1.0  0.28355  0.74417  0.20895  1.0000
  H   H977      1.0  0.47111  0.93061  0.07844  1.0000
  H   H978      1.0  0.23282  0.75321  0.97136  1.0000
  H   H979      1.0  0.43923  0.84757  0.18268  1.0000
  C   C574      1.0  0.47033  0.90295  0.05494  1.0000
  C   C575      1.0  0.38122  0.73187  0.97239  1.0000
  Fe  Fe84      1.0  0.47161  0.85376  0.98905  1.0000
  H   H980      1.0  0.21022  0.80668  0.00653  1.0000
  H   H981      1.0  0.45309  0.90013  0.21311  1.0000
  H   H982      1.0  0.31005  0.74123  0.18969  1.0000
  S   S169      1.0  0.47296  0.73592  0.21173  1.0000
  S   S170      1.0  0.46888  0.86713  0.02607  1.0000
  H   H983      1.0  0.44434  0.72757  0.98209  1.0000
  H   H984      1.0  0.18631  0.79918  0.98018  1.0000
  H   H985      1.0  0.47457  0.88873  0.06845  1.0000
  H   H986      1.0  0.47464  0.86922  0.17269  1.0000
  H   H987      1.0  0.43209  0.75192  0.94200  1.0000
  Fe  Fe85      1.0  0.09058  0.74939  0.75200  1.0000
  S   S171      1.0  0.09966  0.76362  0.71411  1.0000
  S   S172      1.0  0.06504  0.82525  0.95854  1.0000
  Fe  Fe86      1.0  0.13543  0.76642  0.76976  1.0000
  S   S173      1.0  0.14708  0.78274  0.73318  1.0000
  S   S174      1.0  0.15466  0.76112  0.80387  1.0000
  Fe  Fe87      1.0  0.10831  0.79625  0.72999  1.0000
  S   S175      1.0  0.09377  0.83483  0.71932  1.0000
  Fe  Fe88      1.0  0.13725  0.74871  0.72068  1.0000
  S   S176      1.0  0.09751  0.78241  0.76795  1.0000
  H   H988      1.0  0.11513  0.72946  0.67988  1.0000
  C   C576      1.0  0.34435  0.86649  0.81078  1.0000
  S   S177      1.0  0.00535  0.93283  0.59022  1.0000
  H   H989      1.0  0.14541  0.89986  0.60281  1.0000
  N   N40       1.0  0.05952  0.72384  0.85225  1.0000
  C   C577      1.0  0.01294  0.82838  0.71409  1.0000
  H   H990      1.0  0.01361  0.95178  0.93848  1.0000
  Fe  Fe89      1.0  0.01146  0.92079  0.62873  1.0000
  S   S178      1.0  0.02938  0.88302  0.63720  1.0000
  H   H991      1.0  0.05180  0.90785  0.55427  1.0000
  Fe  Fe90      1.0  0.44967  0.83826  0.94526  1.0000
  H   H992      1.0  0.00701  0.92199  0.80528  1.0000
  S   S179      1.0  0.41241  0.83326  0.93415  1.0000
  S   S180      1.0  0.05830  0.72989  0.76602  1.0000
  H   H993      1.0  0.34433  0.88453  0.81687  1.0000
  Fe  Fe91      1.0  0.28398  0.75498  0.84748  1.0000
  H   H994      1.0  0.19049  0.74638  0.94303  1.0000
  S   S181      1.0  0.26127  0.77824  0.82145  1.0000
  Fe  Fe92      1.0  0.33298  0.74854  0.86835  1.0000
  H   H995      1.0  0.18473  0.74284  0.84060  1.0000
  S   S182      1.0  0.36964  0.76182  0.87126  1.0000
  C   C578      1.0  0.11527  0.90962  0.58096  1.0000
  C   C579      1.0  0.37133  0.81388  0.82703  1.0000
  C   C580      1.0  0.32681  0.79688  0.79227  1.0000
  S   S183      1.0  0.32082  0.74181  0.83273  1.0000
  S   S184      1.0  0.29686  0.76486  0.88166  1.0000
  S   S185      1.0  0.04079  0.87898  0.91146  1.0000
  H   H996      1.0  0.33086  0.85458  0.84636  1.0000
  C   C581      1.0  0.28968  0.74955  0.95548  1.0000
  H   H997      1.0  0.29627  0.75724  0.93814  1.0000
  H   H998      1.0  0.30822  0.81762  0.87399  1.0000
  C   C582      1.0  0.40100  0.81340  0.91628  1.0000
  C   C583      1.0  0.37638  0.81079  0.91868  1.0000
  C   C584      1.0  0.36644  0.79512  0.90521  1.0000
  C   C585      1.0  0.38098  0.78202  0.88880  1.0000
  C   C586      1.0  0.40555  0.78482  0.88618  1.0000
  C   C587      1.0  0.41553  0.80025  0.89987  1.0000
  H   H999      1.0  0.36491  0.82087  0.93124  1.0000
  H   H1000     1.0  0.34755  0.79324  0.90754  1.0000
  H   H1001     1.0  0.41702  0.77486  0.87352  1.0000
  H   H1002     1.0  0.43445  0.80207  0.89766  1.0000
  H   H1003     1.0  0.09497  0.93664  0.79885  1.0000
  H   H1004     1.0  0.06382  0.76167  0.84827  1.0000
  C   C588      1.0  0.18484  0.76510  0.80746  1.0000
  C   C589      1.0  0.19511  0.75397  0.82782  1.0000
  C   C590      1.0  0.21862  0.75736  0.83201  1.0000
  C   C591      1.0  0.23209  0.77226  0.81605  1.0000
  C   C592      1.0  0.22189  0.78328  0.79559  1.0000
  C   C593      1.0  0.19849  0.77958  0.79119  1.0000
  C   C594      1.0  0.00231  0.92110  0.95964  1.0000
  H   H1005     1.0  0.22608  0.74887  0.84791  1.0000
  H   H1006     1.0  0.23207  0.79492  0.78315  1.0000
  H   H1007     1.0  0.19082  0.78840  0.77553  1.0000
  C   C595      1.0  0.07580  0.84775  0.69633  1.0000
  C   C596      1.0  0.06677  0.87179  0.69655  1.0000
  C   C597      1.0  0.05243  0.88286  0.67881  1.0000
  C   C598      1.0  0.04700  0.87005  0.66044  1.0000
  C   C599      1.0  0.05607  0.84602  0.66017  1.0000
  C   C600      1.0  0.07031  0.83492  0.67797  1.0000
  H   H1008     1.0  0.07090  0.88194  0.71060  1.0000
  H   H1009     1.0  0.04566  0.90133  0.67932  1.0000
  H   H1010     1.0  0.05219  0.83595  0.64595  1.0000
  H   H1011     1.0  0.07722  0.81650  0.67739  1.0000
  H   H1012     1.0  0.10144  0.74852  0.83531  1.0000
  H   H1013     1.0  0.15291  0.76335  0.96802  1.0000
  N   N41       1.0  0.09228  0.91708  0.59500  1.0000
  H   H1014     1.0  0.36287  0.85841  0.81048  1.0000
  C   C601      1.0  0.04736  0.95851  0.88921  1.0000
  C   C602      1.0  0.03163  0.94590  0.87891  1.0000
  C   C603      1.0  0.02951  0.92171  0.88620  1.0000
  C   C604      1.0  0.04260  0.90992  0.90436  1.0000
  C   C605      1.0  0.05771  0.92269  0.91535  1.0000
  C   C606      1.0  0.06019  0.94681  0.90766  1.0000
  H   H1015     1.0  0.02136  0.95463  0.86503  1.0000
  H   H1016     1.0  0.01768  0.91203  0.87770  1.0000
  H   H1017     1.0  0.06801  0.91381  0.92927  1.0000
  H   H1018     1.0  0.34897  0.74008  0.95326  1.0000
  C   C607      1.0  0.03668  0.73741  0.72385  1.0000
  C   C608      1.0  0.02036  0.74068  0.93463  1.0000
  C   C609      1.0  0.03480  0.72880  0.74791  1.0000
  H   H1019     1.0  0.22522  0.73687  0.77564  1.0000
  H   H1020     1.0  0.05255  0.74523  0.71608  1.0000
  H   H1021     1.0  0.32867  0.79642  0.77258  1.0000
  C   C610      1.0  0.29511  0.82530  0.86143  1.0000
  H   H1022     1.0  0.05760  0.93659  0.56067  1.0000
  H   H1023     1.0  0.08469  0.87107  0.84275  1.0000
  N   N42       1.0  0.97608  0.96016  0.94943  1.0000
  H   H1024     1.0  0.06615  0.87887  0.80467  1.0000
  H   H1025     1.0  0.08478  0.88545  0.86938  1.0000
  C   C611      1.0  0.41324  0.75461  0.94946  1.0000
  C   C612      1.0  0.32734  0.82275  0.79826  1.0000
  C   C613      1.0  0.30239  0.81881  0.83564  1.0000
  C   C614      1.0  0.16193  0.77996  0.96551  1.0000
  H   H1026     1.0  0.11578  0.91731  0.56212  1.0000
  H   H1027     1.0  0.03925  0.81861  0.73971  1.0000
  C   C615      1.0  0.07323  0.74840  0.88361  1.0000
  H   H1028     1.0  0.14762  0.79482  0.96631  1.0000
  H   H1029     1.0  0.04415  0.80189  0.71450  1.0000
  C   C616      1.0  0.02617  0.92067  0.79871  1.0000
  C   C617      1.0  0.98055  0.86380  0.68948  1.0000
  H   H1030     1.0  0.02946  0.93791  0.78861  1.0000
  C   C618      1.0  0.27836  0.72855  0.95740  1.0000
  H   H1031     1.0  0.09256  0.74484  0.87866  1.0000
  S   S186      1.0  0.12723  0.73204  0.75720  1.0000
  H   H1032     1.0  0.18675  0.74120  0.76159  1.0000
  C   C619      1.0  0.09780  0.95926  0.57325  1.0000
  H   H1033     1.0  0.37901  0.82762  0.83590  1.0000
  H   H1034     1.0  0.09800  0.87483  0.64450  1.0000
  H   H1035     1.0  0.17149  0.78214  0.94749  1.0000
  H   H1036     1.0  0.98972  0.77650  0.72486  1.0000
  H   H1037     1.0  0.34356  0.82922  0.78827  1.0000
  N   N43       1.0  0.32609  0.82636  0.82446  1.0000
  C   C620      1.0  0.99697  0.72603  0.71956  1.0000
  H   H1038     1.0  0.05717  0.88300  0.85800  1.0000
  S   S187      1.0  0.01052  0.85091  0.96947  1.0000
  H   H1039     1.0  0.30199  0.79921  0.83618  1.0000
  Fe  Fe93      1.0  0.01683  0.96794  0.59774  1.0000
  C   C621      1.0  0.32682  0.85237  0.82784  1.0000
  C   C622      1.0  0.01800  0.73566  0.70969  1.0000
  H   H1040     1.0  0.26846  0.73183  0.71093  1.0000
  C   C623      1.0  0.25193  0.72981  0.72292  1.0000
  H   H1041     1.0  0.29197  0.84478  0.86251  1.0000
  C   C624      1.0  0.13801  0.91535  0.59142  1.0000
  H   H1042     1.0  0.00963  0.72799  0.82070  1.0000
  C   C625      1.0  0.98971  0.83973  0.67977  1.0000
  C   C626      1.0  0.34533  0.81126  0.83698  1.0000
  H   H1043     1.0  0.13484  0.93088  0.60214  1.0000
  H   H1044     1.0  0.03577  0.89806  0.82914  1.0000
  C   C627      1.0  0.07706  0.89426  0.80017  1.0000
  S   S188      1.0  0.45997  0.87348  0.95530  1.0000
  H   H1045     1.0  0.34449  0.81496  0.85600  1.0000
  C   C628      1.0  0.07526  0.93786  0.80273  1.0000
  H   H1046     1.0  0.09810  0.91282  0.83582  1.0000
  H   H1047     1.0  0.07549  0.88778  0.58374  1.0000
  H   H1048     1.0  0.31232  0.83354  0.78990  1.0000
  H   H1049     1.0  0.06296  0.90869  0.76560  1.0000
  H   H1050     1.0  0.02080  0.79531  0.73770  1.0000
  H   H1051     1.0  0.06797  0.94201  0.78513  1.0000
  H   H1052     1.0  0.38210  0.79669  0.83066  1.0000
  Fe  Fe94      1.0  0.04468  0.86075  0.94881  1.0000
  H   H1053     1.0  0.46903  0.72966  0.92546  1.0000
  H   H1054     1.0  0.11685  0.89019  0.57899  1.0000
  N   N44       1.0  0.06770  0.91460  0.81497  1.0000
  H   H1055     1.0  0.05536  0.90957  0.59725  1.0000
  H   H1056     1.0  0.27798  0.81781  0.86774  1.0000
  C   C629      1.0  0.02996  0.80968  0.72714  1.0000
  H   H1057     1.0  0.01648  0.78484  0.69667  1.0000
  H   H1058     1.0  0.02579  0.77716  0.93939  1.0000
  C   C630      1.0  0.00908  0.79964  0.68460  1.0000
  H   H1059     1.0  0.07092  0.92389  0.85089  1.0000
  C   C631      1.0  0.07921  0.89949  0.77272  1.0000
  H   H1060     1.0  0.02317  0.74310  0.91541  1.0000
  C   C632      1.0  0.04106  0.91529  0.82021  1.0000
  H   H1061     1.0  0.01080  0.72867  0.85173  1.0000
  H   H1062     1.0  0.98748  0.80108  0.65379  1.0000
  H   H1063     1.0  0.03969  0.75354  0.86853  1.0000
  H   H1064     1.0  0.26316  0.73238  0.75727  1.0000
  H   H1065     1.0  0.34239  0.79206  0.83819  1.0000
  C   C633      1.0  0.08776  0.94383  0.59529  1.0000
  H   H1066     1.0  0.01729  0.90954  0.95164  1.0000
  H   H1067     1.0  0.42490  0.73614  0.90710  1.0000
  C   C634      1.0  0.09766  0.87970  0.62502  1.0000
  H   H1068     1.0  0.38069  0.73968  0.92397  1.0000
  H   H1069     1.0  0.22122  0.74481  0.93235  1.0000
  H   H1070     1.0  0.37382  0.81770  0.80749  1.0000
  H   H1071     1.0  0.34177  0.78504  0.79926  1.0000
  H   H1072     1.0  0.98718  0.90996  0.96366  1.0000
  H   H1073     1.0  0.21145  0.72378  0.95564  1.0000
  H   H1074     1.0  0.21645  0.77730  0.95675  1.0000
  H   H1075     1.0  0.00512  0.84325  0.66655  1.0000
  H   H1076     1.0  0.11522  0.87307  0.61667  1.0000
  C   C635      1.0  0.07600  0.88603  0.85257  1.0000
  C   C636      1.0  0.06560  0.91800  0.56018  1.0000
  C   C637      1.0  0.07869  0.91054  0.83851  1.0000
  C   C638      1.0  0.99683  0.94291  0.94181  1.0000
  Fe  Fe95      1.0  0.29024  0.72740  0.89576  1.0000
  C   C639      1.0  0.07191  0.90726  0.58505  1.0000
  H   H1077     1.0  0.07046  0.76654  0.88983  1.0000
  H   H1078     1.0  0.15166  0.92005  0.57670  1.0000
  C   C640      1.0  0.39367  0.72526  0.93090  1.0000
  H   H1079     1.0  0.08101  0.91690  0.54660  1.0000
  H   H1080     1.0  0.08350  0.87014  0.61905  1.0000
  N   N45       1.0  0.99644  0.81956  0.69809  1.0000
  H   H1081     1.0  0.07234  0.95638  0.91588  1.0000
  C   C641      1.0  0.04603  0.72689  0.83032  1.0000
  H   H1082     1.0  0.09256  0.73489  0.81024  1.0000
  Fe  Fe96      1.0  0.98791  0.96729  0.64602  1.0000
  S   S189      1.0  0.16267  0.72799  0.69489  1.0000
  C   C642      1.0  0.21454  0.75955  0.96669  1.0000
  H   H1083     1.0  0.09840  0.73850  0.65489  1.0000
  C   C643      1.0  0.06818  0.96009  0.81639  1.0000
  H   H1084     1.0  0.06761  0.73593  0.89900  1.0000
  H   H1085     1.0  0.10606  0.91484  0.62987  1.0000
  C   C644      1.0  0.05838  0.74759  0.86230  1.0000
  S   S190      1.0  0.02611  0.95494  0.63505  1.0000
  H   H1086     1.0  0.30966  0.78963  0.79871  1.0000
  C   C645      1.0  0.09262  0.90695  0.62072  1.0000
  H   H1087     1.0  0.28767  0.82654  0.82473  1.0000
  H   H1088     1.0  0.07527  0.91194  0.63093  1.0000
  N   N46       1.0  0.40228  0.73120  0.95391  1.0000
  H   H1089     1.0  0.01973  0.74198  0.69101  1.0000
  H   H1090     1.0  0.09544  0.88739  0.80437  1.0000
  H   H1091     1.0  0.33868  0.86908  0.79239  1.0000
  H   H1092     1.0  0.09436  0.91026  0.76671  1.0000
  H   H1093     1.0  0.02491  0.80594  0.67342  1.0000
  H   H1094     1.0  0.30901  0.86217  0.82563  1.0000
  H   H1095     1.0  0.08302  0.88244  0.76432  1.0000
  H   H1096     1.0  0.02898  0.90615  0.78674  1.0000
  C   C646      1.0  0.02194  0.75999  0.94817  1.0000
  H   H1097     1.0  0.03468  0.92867  0.83299  1.0000
  C   C647      1.0  0.19918  0.72683  0.75419  1.0000
  C   C648      1.0  0.35930  0.74852  0.96532  1.0000
  H   H1098     1.0  0.05361  0.74050  0.81701  1.0000
  C   C649      1.0  0.09966  0.73145  0.82796  1.0000
  H   H1099     1.0  0.04024  0.96321  0.72586  1.0000
  H   H1100     1.0  0.02475  0.84091  0.70366  1.0000
  H   H1101     1.0  0.97876  0.77994  0.67864  1.0000
  H   H1102     1.0  0.01842  0.96366  0.68981  1.0000
  H   H1103     1.0  0.00264  0.83886  0.72792  1.0000
  H   H1104     1.0  0.07700  0.95947  0.83313  1.0000
  C   C650      1.0  0.99392  0.78829  0.66833  1.0000
  H   H1105     1.0  0.40421  0.76635  0.93562  1.0000
  C   C651      1.0  0.01927  0.73519  0.83419  1.0000
  H   H1106     1.0  0.01642  0.75491  0.83226  1.0000
  H   H1107     1.0  0.99436  0.87153  0.69813  1.0000
  H   H1108     1.0  0.24245  0.74769  0.72488  1.0000
  H   H1109     1.0  0.06834  0.94918  0.59823  1.0000
  H   H1110     1.0  0.09186  0.95486  0.55630  1.0000
  H   H1111     1.0  0.00509  0.77381  0.65963  1.0000
  H   H1112     1.0  0.04867  0.96332  0.82013  1.0000
  H   H1113     1.0  0.11749  0.95823  0.57180  1.0000
  H   H1114     1.0  0.99404  0.93595  0.92463  1.0000
  H   H1115     1.0  0.42357  0.78503  0.96517  1.0000
  H   H1116     1.0  0.09527  0.95028  0.61072  1.0000
  H   H1117     1.0  0.97964  0.79565  0.74815  1.0000
  C   C652      1.0  0.20870  0.74269  0.94864  1.0000
  H   H1118     1.0  0.36417  0.76591  0.95649  1.0000
  H   H1119     1.0  0.20562  0.73350  0.73594  1.0000
  C   C653      1.0  0.98228  0.97111  0.97101  1.0000
  C   C654      1.0  0.97608  0.79053  0.73047  1.0000
  C   C655      1.0  0.10707  0.72284  0.66508  1.0000
  H   H1120     1.0  0.97588  0.87674  0.67422  1.0000
  H   H1121     1.0  0.97555  0.83509  0.66919  1.0000
  H   H1122     1.0  0.97590  0.97096  0.55311  1.0000
  C   C656      1.0  0.41272  0.76983  0.97075  1.0000
  H   H1123     1.0  0.52345  0.06993  0.40163  1.0000
  S   S191      1.0  0.89199  0.04703  0.43415  1.0000
  Fe  Fe97      1.0  0.78226  0.07603  0.23012  1.0000
  S   S192      1.0  0.81026  0.09359  0.20544  1.0000
  S   S193      1.0  0.79400  0.04244  0.25265  1.0000
  Fe  Fe98      1.0  0.74306  0.11516  0.21784  1.0000
  S   S194      1.0  0.76783  0.13466  0.19147  1.0000
  S   S195      1.0  0.70533  0.12935  0.22992  1.0000
  Fe  Fe99      1.0  0.78233  0.09880  0.17936  1.0000
  S   S196      1.0  0.78773  0.09282  0.13957  1.0000
  Fe  Fe100     1.0  0.79349  0.12766  0.21981  1.0000
  S   S197      1.0  0.81215  0.15913  0.22822  1.0000
  S   S198      1.0  0.75492  0.07969  0.20348  1.0000
  S   S199      1.0  0.76814  0.10959  0.24667  1.0000
  H   H1124     1.0  0.76468  0.20028  0.28979  1.0000
  Fe  Fe101     1.0  0.86254  0.01103  0.04190  1.0000
  H   H1125     1.0  0.54518  0.97908  0.20700  1.0000
  S   S200      1.0  0.86153  0.02302  0.07984  1.0000
  H   H1126     1.0  0.49107  0.20800  0.43448  1.0000
  C   C657      1.0  0.49369  0.05936  0.35383  1.0000
  C   C658      1.0  0.95574  0.99361  0.46810  1.0000
  S   S201      1.0  0.89769  0.99655  0.02373  1.0000
  S   S202      1.0  0.85301  0.03366  0.00871  1.0000
  H   H1127     1.0  0.55386  0.09271  0.46417  1.0000
  H   H1128     1.0  0.59502  0.17643  0.17555  1.0000
  Fe  Fe102     1.0  0.52810  0.98830  0.09134  1.0000
  H   H1129     1.0  0.59847  0.15207  0.19678  1.0000
  Fe  Fe103     1.0  0.88608  0.01642  0.98977  1.0000
  H   H1130     1.0  0.81740  0.01593  0.36933  1.0000
  H   H1131     1.0  0.79979  0.00176  0.20082  1.0000
  H   H1132     1.0  0.57638  0.01972  0.41707  1.0000
  S   S203      1.0  0.56415  0.97428  0.07425  1.0000
  C   C659      1.0  0.74705  0.20979  0.29459  1.0000
  C   C660      1.0  0.52269  0.01487  0.98550  1.0000
  S   S204      1.0  0.51889  0.11491  0.42895  1.0000
  C   C661      1.0  0.81037  0.16629  0.25824  1.0000
  C   C662      1.0  0.81499  0.18910  0.26327  1.0000
  C   C663      1.0  0.81412  0.19500  0.28704  1.0000
  C   C664      1.0  0.80897  0.17795  0.30598  1.0000
  C   C665      1.0  0.80431  0.15520  0.30090  1.0000
  C   C666      1.0  0.80482  0.14945  0.27719  1.0000
  H   H1133     1.0  0.81939  0.20224  0.24875  1.0000
  H   H1134     1.0  0.97455  0.00316  0.98964  1.0000
  H   H1135     1.0  0.80035  0.14192  0.31542  1.0000
  H   H1136     1.0  0.80137  0.13182  0.27362  1.0000
  C   C667      1.0  0.69458  0.15938  0.22310  1.0000
  C   C668      1.0  0.70423  0.17305  0.20325  1.0000
  C   C669      1.0  0.69403  0.19624  0.19722  1.0000
  C   C670      1.0  0.67448  0.20620  0.21126  1.0000
  C   C671      1.0  0.66540  0.19288  0.23164  1.0000
  C   C672      1.0  0.67522  0.16946  0.23734  1.0000
  H   H1137     1.0  0.71900  0.16545  0.19204  1.0000
  H   H1138     1.0  0.95868  0.08996  0.45035  1.0000
  H   H1139     1.0  0.65046  0.20038  0.24267  1.0000
  H   H1140     1.0  0.66770  0.15902  0.25277  1.0000
  C   C673      1.0  0.80874  0.07370  0.12315  1.0000
  C   C674      1.0  0.80347  0.06777  0.10076  1.0000
  C   C675      1.0  0.81945  0.05257  0.08714  1.0000
  C   C676      1.0  0.84111  0.04325  0.09562  1.0000
  C   C677      1.0  0.84659  0.04958  0.11782  1.0000
  C   C678      1.0  0.83056  0.06468  0.13150  1.0000
  H   H1141     1.0  0.78678  0.07482  0.09395  1.0000
  H   H1142     1.0  0.81495  0.04799  0.07010  1.0000
  H   H1143     1.0  0.86339  0.04269  0.12448  1.0000
  H   H1144     1.0  0.83512  0.06937  0.14845  1.0000
  C   C679      1.0  0.75618  0.99482  0.22724  1.0000
  C   C680      1.0  0.76359  0.01618  0.23325  1.0000
  C   C681      1.0  0.78284  0.01581  0.24696  1.0000
  C   C682      1.0  0.79395  0.99386  0.25557  1.0000
  Fe  Fe104     1.0  0.87839  0.01043  0.43525  1.0000
  C   C683      1.0  0.49721  0.21837  0.25053  1.0000
  H   H1145     1.0  0.75455  0.03291  0.22700  1.0000
  H   H1146     1.0  0.84087  0.00622  0.14381  1.0000
  C   C684      1.0  0.92264  0.05149  0.43245  1.0000
  C   C685      1.0  0.93968  0.03844  0.41818  1.0000
  H   H1147     1.0  0.48969  0.98294  0.00464  1.0000
  H   H1148     1.0  0.66705  0.09515  0.44366  1.0000
  C   C686      1.0  0.95359  0.07566  0.44130  1.0000
  C   C687      1.0  0.92979  0.06998  0.44414  1.0000
  H   H1149     1.0  0.93441  0.02425  0.40894  1.0000
  C   C688      1.0  0.68909  0.02623  0.45819  1.0000
  C   C689      1.0  0.83026  0.97870  0.12513  1.0000
  C   C690      1.0  0.59717  0.00021  0.00002  1.0000
  C   C691      1.0  0.58101  0.01554  0.01300  1.0000
  C   C692      1.0  0.57001  0.00760  0.03539  1.0000
  C   C693      1.0  0.57554  0.98436  0.04521  1.0000
  H   H1150     1.0  0.51361  0.21833  0.28344  1.0000
  H   H1151     1.0  0.59675  0.07871  0.46400  1.0000
  H   H1152     1.0  0.57708  0.03373  0.00579  1.0000
  H   H1153     1.0  0.55785  0.01967  0.04538  1.0000
  H   H1154     1.0  0.51647  0.99551  0.38553  1.0000
  S   S205      1.0  0.64121  0.97720  0.45711  1.0000
  H   H1155     1.0  0.48548  0.03077  0.98413  1.0000
  S   S206      1.0  0.47834  0.21745  0.20713  1.0000
  C   C694      1.0  0.93051  0.14258  0.44664  1.0000
  H   H1156     1.0  0.79710  0.99166  0.31687  1.0000
  H   H1157     1.0  0.74768  0.19116  0.32987  1.0000
  H   H1158     1.0  0.75839  0.00780  0.17096  1.0000
  H   H1159     1.0  0.50232  0.01629  0.26119  1.0000
  H   H1160     1.0  0.49859  0.02746  0.33505  1.0000
  N   N47       1.0  0.80957  0.99378  0.16435  1.0000
  H   H1161     1.0  0.63586  0.16235  0.17214  1.0000
  H   H1162     1.0  0.72898  0.04835  0.41149  1.0000
  H   H1163     1.0  0.58183  0.21869  0.40008  1.0000
  H   H1164     1.0  0.82875  0.04120  0.38000  1.0000
  S   S207      1.0  0.84328  0.98005  0.03407  1.0000
  H   H1165     1.0  0.64147  0.01011  0.06700  1.0000
  C   C695      1.0  0.48271  0.07034  0.37384  1.0000
  H   H1166     1.0  0.70112  0.20639  0.18139  1.0000
  H   H1167     1.0  0.48834  0.03309  0.44428  1.0000
  H   H1168     1.0  0.93870  0.17374  0.42366  1.0000
  C   C696      1.0  0.73506  0.19486  0.31581  1.0000
  H   H1169     1.0  0.97008  0.10980  0.37794  1.0000
  H   H1170     1.0  0.97284  0.99007  0.45722  1.0000
  Fe  Fe105     1.0  0.50791  0.15232  0.43795  1.0000
  H   H1171     1.0  0.62404  0.98569  0.06674  1.0000
  H   H1172     1.0  0.94877  0.14120  0.45236  1.0000
  C   C697      1.0  0.81460  0.03538  0.37020  1.0000
  H   H1173     1.0  0.73737  0.02045  0.45975  1.0000
  H   H1174     1.0  0.55951  0.16589  0.22207  1.0000
  C   C698      1.0  0.52151  0.00955  0.44543  1.0000
  C   C699      1.0  0.97043  0.06332  0.42620  1.0000
  H   H1175     1.0  0.80137  0.18549  0.12627  1.0000
  H   H1176     1.0  0.56369  0.21431  0.44645  1.0000
  H   H1177     1.0  0.68844  0.98886  0.07076  1.0000
  N   N48       1.0  0.70563  0.04518  0.45977  1.0000
  C   C700      1.0  0.79799  0.01080  0.31898  1.0000
  S   S208      1.0  0.53596  0.17864  0.43367  1.0000
  C   C701      1.0  0.69058  0.00769  0.06485  1.0000
  N   N49       1.0  0.59044  0.18555  0.21247  1.0000
  C   C702      1.0  0.59958  0.17424  0.23553  1.0000
  H   H1178     1.0  0.85632  0.19925  0.11860  1.0000
  H   H1179     1.0  0.48501  0.07821  0.22335  1.0000
  C   C703      1.0  0.58855  0.18505  0.25856  1.0000
  H   H1180     1.0  0.52845  0.02934  0.24849  1.0000
  C   C704      1.0  0.62953  0.17155  0.18834  1.0000
  H   H1181     1.0  0.61905  0.17528  0.23533  1.0000
  H   H1182     1.0  0.65931  0.03114  0.43554  1.0000
  H   H1183     1.0  0.82858  0.21192  0.13265  1.0000
  C   C705      1.0  0.92912  0.15768  0.42255  1.0000
  Fe  Fe106     1.0  0.48934  0.02572  0.11113  1.0000
  N   N50       1.0  0.67315  0.99830  0.02608  1.0000
  H   H1184     1.0  0.81858  0.99036  0.11343  1.0000
  H   H1185     1.0  0.68736  0.03535  0.41852  1.0000
  H   H1186     1.0  0.89486  0.11600  0.42222  1.0000
  H   H1187     1.0  0.67955  0.04390  0.99812  1.0000
  C   C706      1.0  0.96473  0.13716  0.40387  1.0000
  C   C707      1.0  0.66042  0.01140  0.00574  1.0000
  H   H1188     1.0  0.70961  0.01043  0.06572  1.0000
  Fe  Fe107     1.0  0.48446  0.11631  0.41228  1.0000
  C   C708      1.0  0.68308  0.01617  0.03956  1.0000
  H   H1189     1.0  0.61469  0.21255  0.21409  1.0000
  H   H1190     1.0  0.95068  0.98402  0.99343  1.0000
  C   C709      1.0  0.84611  0.20239  0.13593  1.0000
  H   H1191     1.0  0.69807  0.00837  0.46307  1.0000
  C   C710      1.0  0.67864  0.02526  0.43401  1.0000
  H   H1192     1.0  0.56925  0.18299  0.26206  1.0000
  H   H1193     1.0  0.81788  0.21254  0.29073  1.0000
  C   C711      1.0  0.50098  0.03198  0.22388  1.0000
  C   C712      1.0  0.56386  0.18403  0.21460  1.0000
  H   H1194     1.0  0.79094  0.02065  0.30290  1.0000
  H   H1195     1.0  0.78061  0.97473  0.18203  1.0000
  H   H1196     1.0  0.66989  0.03195  0.04151  1.0000
  H   H1197     1.0  0.49333  0.02025  0.01391  1.0000
  C   C713      1.0  0.50843  0.97565  0.00050  1.0000
  C   C714      1.0  0.59632  0.21108  0.20928  1.0000
  H   H1198     1.0  0.88968  0.14343  0.40339  1.0000
  H   H1199     1.0  0.83432  0.13259  0.09117  1.0000
  H   H1200     1.0  0.55623  0.17613  0.17864  1.0000
  H   H1201     1.0  0.54917  0.06235  0.41735  1.0000
  H   H1202     1.0  0.66298  0.03722  0.97487  1.0000
  S   S209      1.0  0.48594  0.10085  0.37625  1.0000
  S   S210      1.0  0.79994  0.01299  0.98448  1.0000
  H   H1203     1.0  0.47644  0.05597  0.18963  1.0000
  C   C715      1.0  0.79359  0.01257  0.15150  1.0000
  H   H1204     1.0  0.78626  0.01508  0.33511  1.0000
  C   C716      1.0  0.73064  0.03742  0.45010  1.0000
  S   S211      1.0  0.80891  0.18377  0.33622  1.0000
  H   H1205     1.0  0.70504  0.99152  0.00241  1.0000
  H   H1206     1.0  0.82293  0.09062  0.28342  1.0000
  H   H1207     1.0  0.69056  0.02043  0.97922  1.0000
  S   S212      1.0  0.51825  0.00123  0.12785  1.0000
  H   H1208     1.0  0.59507  0.19718  0.38077  1.0000
  H   H1209     1.0  0.94605  0.15452  0.36282  1.0000
  H   H1210     1.0  0.53157  0.18865  0.19646  1.0000
  H   H1211     1.0  0.50756  0.97653  0.41222  1.0000
  H   H1212     1.0  0.94186  0.99841  0.45546  1.0000
  H   H1213     1.0  0.85888  0.01800  0.36070  1.0000
  H   H1214     1.0  0.72545  0.01696  0.42024  1.0000
  Fe  Fe108     1.0  0.47694  0.98594  0.08173  1.0000
  H   H1215     1.0  0.76700  0.21788  0.25177  1.0000
  N   N51       1.0  0.93890  0.14524  0.40080  1.0000
  H   H1216     1.0  0.59361  0.97583  0.31146  1.0000
  H   H1217     1.0  0.68029  0.01864  0.07825  1.0000
  C   C717      1.0  0.53310  0.03185  0.40603  1.0000
  H   H1218     1.0  0.83799  0.18329  0.17052  1.0000
  C   C718      1.0  0.67458  0.02907  0.98879  1.0000
  C   C719      1.0  0.52256  0.98168  0.39932  1.0000
  H   H1219     1.0  0.77430  0.02983  0.18224  1.0000
  H   H1220     1.0  0.65420  0.99854  0.99455  1.0000
  C   C720      1.0  0.82546  0.02610  0.18632  1.0000
  H   H1221     1.0  0.86997  0.00465  0.33358  1.0000
  C   C721      1.0  0.77826  0.99415  0.97953  1.0000
  Fe  Fe109     1.0  0.49768  0.10396  0.46289  1.0000
  C   C722      1.0  0.80318  0.17284  0.14246  1.0000
  H   H1222     1.0  0.75962  0.18056  0.24457  1.0000
  H   H1223     1.0  0.79733  0.03828  0.38104  1.0000
  H   H1224     1.0  0.93359  0.10802  0.40837  1.0000
  H   H1225     1.0  0.85733  0.05863  0.33493  1.0000
  H   H1226     1.0  0.69757  0.06814  0.42772  1.0000
  H   H1227     1.0  0.51067  0.01614  0.21608  1.0000
  H   H1228     1.0  0.86029  0.13094  0.18041  1.0000
  H   H1229     1.0  0.62253  0.00882  0.04337  1.0000
  C   C723      1.0  0.96340  0.04447  0.41494  1.0000
  C   C724      1.0  0.76769  0.97290  0.23523  1.0000
  C   C725      1.0  0.50871  0.03151  0.24933  1.0000
  N   N52       1.0  0.73319  0.21546  0.27297  1.0000
  H   H1230     1.0  0.80884  0.99341  0.26623  1.0000
  C   C726      1.0  0.57870  0.20908  0.38471  1.0000
  C   C727      1.0  0.85461  0.04180  0.32736  1.0000
  H   H1231     1.0  0.86491  0.04238  0.30950  1.0000
  H   H1232     1.0  0.53835  0.19719  0.35883  1.0000
  C   C728      1.0  0.49991  0.02858  0.99624  1.0000
  H   H1233     1.0  0.71225  0.18500  0.27697  1.0000
  H   H1234     1.0  0.73869  0.15894  0.25172  1.0000
  C   C729      1.0  0.63490  0.99828  0.05516  1.0000
  S   S213      1.0  0.84262  0.00386  0.42408  1.0000
  C   C730      1.0  0.54480  0.97812  0.97342  1.0000
  S   S214      1.0  0.50180  0.01489  0.07398  1.0000
  H   H1235     1.0  0.91031  0.16470  0.42166  1.0000
  H   H1236     1.0  0.47890  0.99395  0.22215  1.0000
  C   C731      1.0  0.82822  0.08168  0.30073  1.0000
  H   H1237     1.0  0.81796  0.06788  0.34851  1.0000
  H   H1238     1.0  0.64413  0.02215  0.01237  1.0000
  H   H1239     1.0  0.55674  0.98015  0.98741  1.0000
  H   H1240     1.0  0.82900  0.98862  0.19590  1.0000
  H   H1241     1.0  0.88581  0.02615  0.34470  1.0000
  C   C732      1.0  0.77068  0.02185  0.16603  1.0000
  N   N53       1.0  0.82851  0.04028  0.32483  1.0000
  C   C733      1.0  0.48059  0.02057  0.17879  1.0000
  C   C734      1.0  0.89891  0.12535  0.40430  1.0000
  H   H1242     1.0  0.91606  0.18766  0.35726  1.0000
  H   H1243     1.0  0.73088  0.17738  0.31096  1.0000
  H   H1244     1.0  0.74161  0.99529  0.21616  1.0000
  H   H1245     1.0  0.63900  0.16188  0.20312  1.0000
  C   C735      1.0  0.53138  0.05676  0.41510  1.0000
  C   C736      1.0  0.93830  0.16293  0.37911  1.0000
  H   H1246     1.0  0.48428  0.00303  0.45369  1.0000
  H   H1247     1.0  0.81279  0.04081  0.17969  1.0000
  H   H1248     1.0  0.50027  0.01854  0.17810  1.0000
  H   H1249     1.0  0.57295  0.21474  0.34739  1.0000
  C   C737      1.0  0.82214  0.05557  0.30254  1.0000
  C   C738      1.0  0.81325  0.04984  0.34572  1.0000
  H   H1250     1.0  0.83106  0.04769  0.28629  1.0000
  H   H1251     1.0  0.83491  0.00911  0.30513  1.0000
  C   C739      1.0  0.49499  0.01456  0.44071  1.0000
  H   H1252     1.0  0.86252  0.17056  0.15312  1.0000
  C   C740      1.0  0.91365  0.17440  0.37291  1.0000
  H   H1253     1.0  0.90263  0.16113  0.36744  1.0000
  H   H1254     1.0  0.81555  0.12785  0.15713  1.0000
  H   H1255     1.0  0.59289  0.21376  0.16967  1.0000
  H   H1256     1.0  0.97456  0.15237  0.40735  1.0000
  H   H1257     1.0  0.49073  0.01113  0.42284  1.0000
  C   C741      1.0  0.82406  0.01513  0.32132  1.0000
  H   H1258     1.0  0.63498  0.18991  0.18500  1.0000
  H   H1259     1.0  0.82995  0.00237  0.33612  1.0000
  C   C742      1.0  0.81553  0.00160  0.18762  1.0000
  C   C743      1.0  0.57489  0.99545  0.44876  1.0000
  H   H1260     1.0  0.50498  0.06926  0.34076  1.0000
  H   H1261     1.0  0.59171  0.20402  0.25837  1.0000
  H   H1262     1.0  0.71689  0.19771  0.24741  1.0000
  S   S215      1.0  0.86784  0.98666  0.97866  1.0000
  Fe  Fe110     1.0  0.49107  0.97453  0.13268  1.0000
  Fe  Fe111     1.0  0.83536  0.00207  0.99994  1.0000
  C   C744      1.0  0.83810  0.15559  0.11901  1.0000
  H   H1263     1.0  0.52449  0.02250  0.45820  1.0000
  C   C745      1.0  0.74620  0.17400  0.25861  1.0000
  C   C746      1.0  0.60227  0.17104  0.19290  1.0000
  H   H1264     1.0  0.91878  0.15152  0.46061  1.0000
  H   H1265     1.0  0.50859  0.04729  0.21300  1.0000
  H   H1266     1.0  0.69891  0.02323  0.02901  1.0000
  H   H1267     1.0  0.58487  0.22171  0.22223  1.0000
  N   N54       1.0  0.53961  0.01143  0.42404  1.0000
  H   H1268     1.0  0.79421  0.05297  0.34203  1.0000
  C   C747      1.0  0.92609  0.12384  0.39747  1.0000
  H   H1269     1.0  0.48854  0.10902  0.14019  1.0000
  H   H1270     1.0  0.79985  0.20366  0.16406  1.0000
  H   H1271     1.0  0.50282  0.04838  0.25743  1.0000
  H   H1272     1.0  0.95877  0.03029  0.47086  1.0000
  H   H1273     1.0  0.58208  0.98022  0.43861  1.0000
  H   H1274     1.0  0.81817  0.09178  0.31487  1.0000
  H   H1275     1.0  0.80338  0.02811  0.14457  1.0000
  H   H1276     1.0  0.55905  0.98901  0.39850  1.0000
  N   N55       1.0  0.82848  0.16194  0.14365  1.0000
  H   H1277     1.0  0.59696  0.15490  0.23792  1.0000
  C   C748      1.0  0.69267  0.98162  0.01515  1.0000
  H   H1278     1.0  0.80273  0.05650  0.30061  1.0000
  H   H1279     1.0  0.75370  0.02814  0.41897  1.0000
  C   C749      1.0  0.86764  0.02140  0.34255  1.0000
  H   H1280     1.0  0.51588  0.03028  0.39894  1.0000
  C   C750      1.0  0.77598  0.97649  0.44997  1.0000
  C   C751      1.0  0.52796  0.20822  0.44031  1.0000
  H   H1281     1.0  0.84754  0.08320  0.30083  1.0000
  H   H1282     1.0  0.86590  0.12831  0.14892  1.0000
  H   H1283     1.0  0.84813  0.97703  0.11512  1.0000
  H   H1284     1.0  0.74784  0.97518  0.36957  1.0000
  H   H1285     1.0  0.94946  0.17767  0.38100  1.0000
  C   C752      1.0  0.60213  0.97677  0.00956  1.0000
  C   C753      1.0  0.82788  0.13417  0.11019  1.0000
  C   C754      1.0  0.49009  0.03567  0.35054  1.0000
  H   H1286     1.0  0.56265  0.98943  0.46416  1.0000
  H   H1287     1.0  0.84271  0.02654  0.17533  1.0000
  H   H1288     1.0  0.59722  0.17558  0.27400  1.0000
  C   C755      1.0  0.82831  0.14024  0.16126  1.0000
  H   H1289     1.0  0.92929  0.11918  0.37867  1.0000
  H   H1290     1.0  0.76113  0.03620  0.15485  1.0000
  H   H1291     1.0  0.82867  0.02979  0.20463  1.0000
  H   H1292     1.0  0.47591  0.02722  0.16059  1.0000
  H   H1293     1.0  0.89056  0.11535  0.39188  1.0000
  H   H1294     1.0  0.71889  0.20461  0.32399  1.0000
  C   C756      1.0  0.50467  0.21851  0.43889  1.0000
  H   H1295     1.0  0.54626  0.03183  0.39006  1.0000
  C   C757      1.0  0.55098  0.18950  0.19166  1.0000
  C   C758      1.0  0.72586  0.19329  0.26414  1.0000
  H   H1296     1.0  0.92481  0.12455  0.44618  1.0000
  H   H1297     1.0  0.68000  0.00650  0.42960  1.0000
  C   C759      1.0  0.65523  0.98392  0.04110  1.0000
  H   H1298     1.0  0.48274  0.20836  0.25851  1.0000
  H   H1299     1.0  0.85780  0.15210  0.11755  1.0000
  H   H1300     1.0  0.91676  0.08012  0.45527  1.0000
  C   C760      1.0  0.85265  0.12596  0.16442  1.0000
  H   H1301     1.0  0.65873  0.06679  0.45640  1.0000
  H   H1302     1.0  0.83407  0.11727  0.12020  1.0000
  C   C761      1.0  0.56315  0.01577  0.43251  1.0000
  C   C762      1.0  0.79234  0.18636  0.16397  1.0000
  H   H1303     1.0  0.51994  0.05791  0.43206  1.0000
  H   H1304     1.0  0.50408  0.04673  0.99922  1.0000
  H   H1305     1.0  0.52236  0.99105  0.03025  1.0000
  Fe  Fe112     1.0  0.83740  0.98217  0.45914  1.0000
  H   H1306     1.0  0.90401  0.18428  0.38739  1.0000
  H   H1307     1.0  0.56126  0.03168  0.44284  1.0000
  H   H1308     1.0  0.82135  0.14522  0.17930  1.0000
  H   H1309     1.0  0.79109  0.15891  0.14058  1.0000
  H   H1310     1.0  0.79119  0.97979  0.43739  1.0000
  H   H1311     1.0  0.85602  0.21439  0.14489  1.0000
  H   H1312     1.0  0.96642  0.12404  0.41969  1.0000
  H   H1313     1.0  0.79477  0.17601  0.18129  1.0000
  H   H1314     1.0  0.83462  0.17087  0.10551  1.0000
  H   H1315     1.0  0.78767  0.00589  0.13542  1.0000
  C   C763      1.0  0.84403  0.17894  0.15196  1.0000
  H   H1316     1.0  0.55478  0.19641  0.22739  1.0000
  C   C764      1.0  0.54336  0.98856  0.41202  1.0000
  H   H1317     1.0  0.85026  0.10665  0.16684  1.0000
  H   H1318     1.0  0.75498  0.16672  0.27475  1.0000
  C   C765      1.0  0.73440  0.03267  0.42361  1.0000
  C   C766      1.0  0.69747  0.06882  0.44718  1.0000
  C   C767      1.0  0.67242  0.07951  0.45600  1.0000
  H   H1319     1.0  0.80817  0.13614  0.11135  1.0000
  H   H1320     1.0  0.69950  0.22179  0.29385  1.0000
  H   H1321     1.0  0.56419  0.19738  0.38995  1.0000
  H   H1322     1.0  0.71016  0.08223  0.44895  1.0000
  S   S216      1.0  0.89716  0.97815  0.41948  1.0000
  C   C768      1.0  0.52418  0.21207  0.35957  1.0000
  H   H1323     1.0  0.54752  0.97317  0.42514  1.0000
  N   N56       1.0  0.52024  0.98992  0.97959  1.0000
  H   H1324     1.0  0.72039  0.97752  0.04031  1.0000
  H   H1325     1.0  0.84573  0.97759  0.15868  1.0000
  H   H1326     1.0  0.50794  0.20450  0.36856  1.0000
  C   C769      1.0  0.83243  0.98938  0.14880  1.0000
  H   H1327     1.0  0.53643  0.01498  0.99819  1.0000
  H   H1328     1.0  0.55300  0.20766  0.18325  1.0000
  H   H1329     1.0  0.52379  0.99167  0.45539  1.0000
  S   S217      1.0  0.48506  0.06460  0.12087  1.0000
  Fe  Fe113     1.0  0.80491  0.22049  0.35013  1.0000
  H   H1330     1.0  0.77289  0.19027  0.16278  1.0000
  H   H1331     1.0  0.74298  0.05079  0.45300  1.0000
  C   C770      1.0  0.52105  0.97352  0.02369  1.0000
  S   S218      1.0  0.61082  0.01106  0.97213  1.0000
  C   C771      1.0  0.96474  0.99127  0.98046  1.0000
  H   H1332     1.0  0.59032  0.00190  0.45604  1.0000
  C   C772      1.0  0.54560  0.22217  0.44549  1.0000
  H   H1333     1.0  0.52013  0.21896  0.34124  1.0000
  S   S219      1.0  0.52707  0.97286  0.32522  1.0000
  H   H1334     1.0  0.67215  0.08601  0.47390  1.0000
  C   C773      1.0  0.97067  0.05746  0.50039  1.0000
  Fe  Fe114     1.0  0.81609  0.10142  0.75255  1.0000
  S   S220      1.0  0.78106  0.11459  0.77072  1.0000
  S   S221      1.0  0.85146  0.11814  0.75005  1.0000
  Fe  Fe115     1.0  0.79401  0.06021  0.73323  1.0000
  S   S222      1.0  0.75707  0.07135  0.74904  1.0000
  S   S223      1.0  0.80640  0.02764  0.71317  1.0000
  Fe  Fe116     1.0  0.76634  0.10879  0.73626  1.0000
  S   S224      1.0  0.74327  0.14019  0.72000  1.0000
  Fe  Fe117     1.0  0.77496  0.07607  0.78196  1.0000
  S   S225      1.0  0.76548  0.06064  0.82051  1.0000
  S   S226      1.0  0.80168  0.09708  0.71780  1.0000
  S   S227      1.0  0.81165  0.06338  0.76645  1.0000
  H   H1335     1.0  0.76659  0.99010  0.66058  1.0000
  H   H1336     1.0  0.90612  0.05783  0.82234  1.0000
  S   S228      1.0  0.48922  0.14143  0.47367  1.0000
  H   H1337     1.0  0.77419  0.18610  0.72564  1.0000
  S   S229      1.0  0.67817  0.00153  0.86428  1.0000
  H   H1338     1.0  0.78084  0.05115  0.89586  1.0000
  H   H1339     1.0  0.85294  0.07798  0.92764  1.0000
  H   H1340     1.0  0.69510  0.98799  0.66702  1.0000
  C   C774      1.0  0.64086  0.17586  0.59664  1.0000
  S   S230      1.0  0.67500  0.99867  0.93656  1.0000
  H   H1341     1.0  0.94680  0.07296  0.82623  1.0000
  H   H1342     1.0  0.88584  0.16387  0.79455  1.0000
  H   H1343     1.0  0.67349  0.02829  0.47162  1.0000
  S   S231      1.0  0.51123  0.07054  0.48489  1.0000
  H   H1344     1.0  0.81352  0.03287  0.87253  1.0000
  C   C775      1.0  0.87638  0.98298  0.71033  1.0000
  Fe  Fe118     1.0  0.63832  0.98818  0.95024  1.0000
  H   H1345     1.0  0.90927  0.10182  0.75137  1.0000
  H   H1346     1.0  0.74068  0.00406  0.67690  1.0000
  H   H1347     1.0  0.75606  0.01501  0.77883  1.0000
  S   S232      1.0  0.63028  0.97749  0.91478  1.0000
  H   H1348     1.0  0.73750  0.02669  0.49832  1.0000
  C   C776      1.0  0.97221  0.97833  0.92851  1.0000
  H   H1349     1.0  0.83012  0.07458  0.95237  1.0000
  H   H1350     1.0  0.81441  0.00653  0.93503  1.0000
  N   N57       1.0  0.80858  0.20710  0.69161  1.0000
  H   H1351     1.0  0.84808  0.02399  0.67855  1.0000
  H   H1352     1.0  0.78732  0.00939  0.77265  1.0000
  C   C777      1.0  0.74038  0.04534  0.83261  1.0000
  C   C778      1.0  0.72195  0.04187  0.81893  1.0000
  C   C779      1.0  0.70285  0.02892  0.82910  1.0000
  C   C780      1.0  0.70188  0.01917  0.85303  1.0000
  C   C781      1.0  0.72020  0.02283  0.86678  1.0000
  C   C782      1.0  0.73930  0.03580  0.85661  1.0000
  H   H1353     1.0  0.72239  0.04919  0.80051  1.0000
  H   H1354     1.0  0.68872  0.02639  0.81831  1.0000
  H   H1355     1.0  0.71976  0.01549  0.88519  1.0000
  H   H1356     1.0  0.75338  0.03837  0.86740  1.0000
  C   C783      1.0  0.74766  0.15183  0.68980  1.0000
  C   C784      1.0  0.73940  0.17555  0.68333  1.0000
  H   H1357     1.0  0.85496  0.04426  0.89063  1.0000
  C   C785      1.0  0.75092  0.17057  0.64140  1.0000
  C   C786      1.0  0.75948  0.14697  0.64790  1.0000
  C   C787      1.0  0.75821  0.13773  0.67201  1.0000
  H   H1358     1.0  0.73123  0.18659  0.69698  1.0000
  H   H1359     1.0  0.70041  0.19603  0.56028  1.0000
  H   H1360     1.0  0.76687  0.13565  0.63419  1.0000
  H   H1361     1.0  0.76455  0.11944  0.67672  1.0000
  S   S233      1.0  0.94296  0.02521  0.85453  1.0000
  C   C788      1.0  0.68781  0.98344  0.62104  1.0000
  C   C789      1.0  0.78844  0.00370  0.71432  1.0000
  C   C790      1.0  0.76467  0.00575  0.72364  1.0000
  H   H1362     1.0  0.86036  0.06437  0.95598  1.0000
  H   H1363     1.0  0.75685  0.02233  0.73011  1.0000
  H   H1364     1.0  0.92509  0.04711  0.66077  1.0000
  H   H1365     1.0  0.89826  0.05139  0.70566  1.0000
  H   H1366     1.0  0.62220  0.17192  0.60210  1.0000
  C   C791      1.0  0.54202  0.06112  0.48408  1.0000
  C   C792      1.0  0.54938  0.03872  0.49520  1.0000
  C   C793      1.0  0.57368  0.03063  0.49490  1.0000
  H   H1367     1.0  0.48670  0.99900  0.96432  1.0000
  H   H1368     1.0  0.77540  0.01064  0.80287  1.0000
  H   H1369     1.0  0.53619  0.02764  0.50421  1.0000
  H   H1370     1.0  0.57908  0.01344  0.50369  1.0000
  C   C794      1.0  0.93563  0.02708  0.88556  1.0000
  C   C795      1.0  0.91693  0.01479  0.89744  1.0000
  C   C796      1.0  0.91008  0.01692  0.92186  1.0000
  C   C797      1.0  0.92129  0.03206  0.93438  1.0000
  C   C798      1.0  0.94004  0.04422  0.92250  1.0000
  C   C799      1.0  0.94733  0.04159  0.89831  1.0000
  H   H1371     1.0  0.90784  0.00344  0.88776  1.0000
  H   H1372     1.0  0.89610  0.00697  0.93097  1.0000
  H   H1373     1.0  0.94892  0.05587  0.93205  1.0000
  C   C800      1.0  0.74044  0.98986  0.96376  1.0000
  C   C801      1.0  0.86018  0.19627  0.76095  1.0000
  C   C802      1.0  0.87612  0.18375  0.74514  1.0000
  C   C803      1.0  0.87277  0.16014  0.74132  1.0000
  C   C804      1.0  0.85326  0.14885  0.75292  1.0000
  C   C805      1.0  0.83699  0.16157  0.76822  1.0000
  C   C806      1.0  0.84053  0.18505  0.77230  1.0000
  H   H1374     1.0  0.89141  0.19203  0.73639  1.0000
  H   H1375     1.0  0.88558  0.15045  0.72958  1.0000
  H   H1376     1.0  0.82207  0.15307  0.77753  1.0000
  H   H1377     1.0  0.82814  0.19449  0.78464  1.0000
  H   H1378     1.0  0.90782  0.03226  0.64236  1.0000
  Fe  Fe119     1.0  0.66839  0.98460  0.90213  1.0000
  C   C807      1.0  0.82298  0.04901  0.87204  1.0000
  C   C808      1.0  0.83534  0.97443  0.53757  1.0000
  H   H1379     1.0  0.65260  0.15913  0.59921  1.0000
  H   H1380     1.0  0.73242  0.98823  0.73141  1.0000
  H   H1381     1.0  0.71603  0.06494  0.48757  1.0000
  C   C809      1.0  0.67633  0.22027  0.64292  1.0000
  H   H1382     1.0  0.81652  0.98048  0.69813  1.0000
  H   H1383     1.0  0.87925  0.05890  0.80749  1.0000
  H   H1384     1.0  0.96403  0.01312  0.71957  1.0000
  H   H1385     1.0  0.94851  0.09116  0.84961  1.0000
  H   H1386     1.0  0.76457  0.06055  0.92223  1.0000
  C   C810      1.0  0.95639  0.01443  0.48358  1.0000
  H   H1387     1.0  0.75626  0.02297  0.96287  1.0000
  S   S234      1.0  0.75092  0.18073  0.61071  1.0000
  C   C811      1.0  0.75087  0.98636  0.72443  1.0000
  S   S235      1.0  0.91233  0.03681  0.96460  1.0000
  H   H1388     1.0  0.74466  0.22125  0.47623  1.0000
  H   H1389     1.0  0.81571  0.97518  0.53805  1.0000
  Fe  Fe120     1.0  0.74937  0.21991  0.59746  1.0000
  H   H1390     1.0  0.87757  0.00640  0.63647  1.0000
  C   C812      1.0  0.83597  0.05101  0.89444  1.0000
  H   H1391     1.0  0.82842  0.17925  0.71244  1.0000
  H   H1392     1.0  0.66346  0.20919  0.65368  1.0000
  H   H1393     1.0  0.73494  0.20328  0.65461  1.0000
  H   H1394     1.0  0.83690  0.07038  0.89533  1.0000
  H   H1395     1.0  0.70505  0.20811  0.59926  1.0000
  H   H1396     1.0  0.86093  0.03328  0.93012  1.0000
  H   H1397     1.0  0.55998  0.00677  0.94905  1.0000
  N   N58       1.0  0.91011  0.10452  0.80382  1.0000
  C   C813      1.0  0.90383  0.12861  0.79096  1.0000
  C   C814      1.0  0.92379  0.08935  0.78570  1.0000
  C   C815      1.0  0.92600  0.10818  0.82281  1.0000
  C   C816      1.0  0.88739  0.09449  0.81465  1.0000
  C   C817      1.0  0.89129  0.14792  0.80644  1.0000
  C   C818      1.0  0.91041  0.08560  0.76404  1.0000
  C   C819      1.0  0.93618  0.08583  0.83740  1.0000
  C   C820      1.0  0.88827  0.06720  0.82072  1.0000
  H   H1398     1.0  0.91996  0.13596  0.78127  1.0000
  H   H1399     1.0  0.89164  0.12713  0.77709  1.0000
  H   H1400     1.0  0.92980  0.07143  0.79363  1.0000
  H   H1401     1.0  0.94060  0.09723  0.77862  1.0000
  H   H1402     1.0  0.93655  0.01956  0.64974  1.0000
  H   H1403     1.0  0.91635  0.11943  0.83632  1.0000
  H   H1404     1.0  0.88071  0.10301  0.83123  1.0000
  H   H1405     1.0  0.87309  0.09908  0.80229  1.0000
  H   H1406     1.0  0.87483  0.14218  0.81665  1.0000
  H   H1407     1.0  0.94144  0.11786  0.81476  1.0000
  N   N59       1.0  0.97469  0.01111  0.50158  1.0000
  H   H1408     1.0  0.88894  0.06122  0.67694  1.0000
  H   H1409     1.0  0.83959  0.98951  0.54706  1.0000
  H   H1410     1.0  0.96952  0.97373  0.51104  1.0000
  C   C821      1.0  0.69054  0.19631  0.59890  1.0000
  C   C822      1.0  0.50501  0.99122  0.95904  1.0000
  H   H1411     1.0  0.63091  0.20544  0.61816  1.0000
  H   H1412     1.0  0.86925  0.21140  0.53403  1.0000
  C   C823      1.0  0.77204  0.00467  0.78550  1.0000
  C   C824      1.0  0.84295  0.04112  0.93630  1.0000
  N   N60       1.0  0.82549  0.03992  0.91797  1.0000
  C   C825      1.0  0.82181  0.01403  0.91721  1.0000
  C   C826      1.0  0.80239  0.05356  0.92620  1.0000
  C   C827      1.0  0.77966  0.04826  0.91549  1.0000
  H   H1413     1.0  0.71362  0.03174  0.52068  1.0000
  H   H1414     1.0  0.85705  0.99561  0.92345  1.0000
  C   C828      1.0  0.64753  0.19478  0.61200  1.0000
  H   H1415     1.0  0.79854  0.05013  0.94588  1.0000
  H   H1416     1.0  0.80373  0.07307  0.92278  1.0000
  H   H1417     1.0  0.80828  0.01143  0.90510  1.0000
  H   H1418     1.0  0.71838  0.97372  0.68288  1.0000
  C   C829      1.0  0.71780  0.02831  0.50166  1.0000
  H   H1419     1.0  0.83623  0.04799  0.85628  1.0000
  C   C830      1.0  0.79188  0.17597  0.72369  1.0000
  H   H1420     1.0  0.85966  0.19686  0.69559  1.0000
  C   C831      1.0  0.73452  0.99675  0.64042  1.0000
  H   H1421     1.0  0.72513  0.99771  0.95492  1.0000
  H   H1422     1.0  0.64102  0.18173  0.57744  1.0000
  S   S236      1.0  0.66920  0.98374  0.50426  1.0000
  C   C832      1.0  0.75057  0.00281  0.65912  1.0000
  H   H1423     1.0  0.95895  0.03328  0.52926  1.0000
  H   H1424     1.0  0.52918  0.02599  0.96932  1.0000
  C   C833      1.0  0.91996  0.02965  0.65676  1.0000
  H   H1425     1.0  0.67432  0.97759  0.63536  1.0000
  H   H1426     1.0  0.71974  0.01115  0.63987  1.0000
  H   H1427     1.0  0.69267  0.18277  0.61438  1.0000
  H   H1428     1.0  0.68907  0.00281  0.62088  1.0000
  Fe  Fe121     1.0  0.63395  0.99659  0.49005  1.0000
  H   H1429     1.0  0.86237  0.08086  0.70525  1.0000
  H   H1430     1.0  0.91129  0.99675  0.67578  1.0000
  C   C834      1.0  0.55769  0.98754  0.94961  1.0000
  H   H1431     1.0  0.85851  0.01618  0.71815  1.0000
  H   H1432     1.0  0.84993  0.21427  0.51070  1.0000
  S   S237      1.0  0.97368  0.98906  0.67691  1.0000
  C   C835      1.0  0.72715  0.97782  0.79267  1.0000
  H   H1433     1.0  0.92036  0.07127  0.75409  1.0000
  H   H1434     1.0  0.69421  0.21041  0.64172  1.0000
  N   N61       1.0  0.88414  0.02412  0.68807  1.0000
  H   H1435     1.0  0.87793  0.06338  0.83816  1.0000
  H   H1436     1.0  0.92204  0.07715  0.84902  1.0000
  C   C836      1.0  0.81212  0.19173  0.71450  1.0000
  S   S238      1.0  0.80452  0.98250  0.48523  1.0000
  H   H1437     1.0  0.85439  0.19911  0.66423  1.0000
  H   H1438     1.0  0.77475  0.03002  0.92136  1.0000
  C   C837      1.0  0.74141  0.18503  0.65930  1.0000
  C   C838      1.0  0.87684  0.00996  0.71115  1.0000
  H   H1439     1.0  0.95592  0.99041  0.93169  1.0000
  H   H1440     1.0  0.79536  0.16728  0.74161  1.0000
  C   C839      1.0  0.88431  0.04969  0.69348  1.0000
  H   H1441     1.0  0.72430  0.99736  0.79375  1.0000
  C   C840      1.0  0.86071  0.06156  0.70472  1.0000
  H   H1442     1.0  0.79108  0.18119  0.67563  1.0000
  H   H1443     1.0  0.74473  0.99891  0.62264  1.0000
  H   H1444     1.0  0.57587  0.97820  0.94770  1.0000
  H   H1445     1.0  0.86709  0.03904  0.65671  1.0000
  S   S239      1.0  0.62171  0.03574  0.48357  1.0000
  H   H1446     1.0  0.92152  0.01636  0.69364  1.0000
  C   C841      1.0  0.80546  0.20401  0.64676  1.0000
  C   C842      1.0  0.84649  0.06613  0.94315  1.0000
  H   H1447     1.0  0.79122  0.16142  0.71209  1.0000
  H   H1448     1.0  0.80456  0.19050  0.63398  1.0000
  S   S240      1.0  0.87098  0.99218  0.47176  1.0000
  H   H1449     1.0  0.84550  0.06005  0.69422  1.0000
  H   H1450     1.0  0.89225  0.08022  0.76933  1.0000
  C   C843      1.0  0.86658  0.02308  0.66984  1.0000
  H   H1451     1.0  0.85657  0.05444  0.72348  1.0000
  C   C844      1.0  0.47649  0.18745  0.51728  1.0000
  H   H1452     1.0  0.81025  0.06488  0.86859  1.0000
  H   H1453     1.0  0.90261  0.97551  0.55351  1.0000
  C   C845      1.0  0.80710  0.19125  0.67201  1.0000
  H   H1454     1.0  0.83769  0.03040  0.95319  1.0000
  C   C846      1.0  0.69698  0.18327  0.57613  1.0000
  H   H1455     1.0  0.84303  0.97749  0.51887  1.0000
  H   H1456     1.0  0.81525  0.20264  0.72903  1.0000
  H   H1457     1.0  0.71384  0.17177  0.57811  1.0000
  C   C847      1.0  0.84415  0.99777  0.90972  1.0000
  H   H1458     1.0  0.94903  0.99378  0.52664  1.0000
  H   H1459     1.0  0.65307  0.18467  0.62872  1.0000
  H   H1460     1.0  0.82115  0.21387  0.64054  1.0000
  H   H1461     1.0  0.82237  0.17736  0.67134  1.0000
  H   H1462     1.0  0.85291  0.00411  0.89220  1.0000
  H   H1463     1.0  0.71095  0.01117  0.49937  1.0000
  H   H1464     1.0  0.49531  0.19050  0.51171  1.0000
  H   H1465     1.0  0.96164  0.05127  0.88939  1.0000
  H   H1466     1.0  0.75699  0.02058  0.65366  1.0000
  C   C848      1.0  0.77781  0.97680  0.47441  1.0000
  H   H1467     1.0  0.54861  0.98391  0.93403  1.0000
  C   C849      1.0  0.59092  0.04500  0.48370  1.0000
  H   H1468     1.0  0.77002  0.21322  0.69390  1.0000
  H   H1469     1.0  0.83881  0.97973  0.90804  1.0000
  H   H1470     1.0  0.51128  0.00377  0.94388  1.0000
  H   H1471     1.0  0.90330  0.15393  0.81850  1.0000
  C   C850      1.0  0.90933  0.01567  0.67944  1.0000
  C   C851      1.0  0.85378  0.20896  0.68028  1.0000
  H   H1472     1.0  0.95072  0.97715  0.47874  1.0000
  H   H1473     1.0  0.93822  0.01794  0.49270  1.0000
  C   C852      1.0  0.96799  0.99077  0.51948  1.0000
  H   H1474     1.0  0.74442  0.99512  0.82775  1.0000
  C   C853      1.0  0.77040  0.97752  0.78682  1.0000
  H   H1475     1.0  0.68342  0.17164  0.57274  1.0000
  H   H1476     1.0  0.97476  0.19075  0.75435  1.0000
  N   N62       1.0  0.66651  0.21045  0.60132  1.0000
  H   H1477     1.0  0.88869  0.01261  0.72509  1.0000
  H   H1478     1.0  0.95236  0.06110  0.49477  1.0000
  H   H1479     1.0  0.78899  0.21619  0.64563  1.0000
  C   C854      1.0  0.79819  0.98217  0.70553  1.0000
  H   H1480     1.0  0.72816  0.97602  0.77318  1.0000
  H   H1481     1.0  0.69529  0.97914  0.81813  1.0000
  H   H1482     1.0  0.68801  0.05312  0.49434  1.0000
  H   H1483     1.0  0.68112  0.98026  0.60388  1.0000
  H   H1484     1.0  0.72321  0.97337  0.60638  1.0000
  H   H1485     1.0  0.77009  0.97527  0.83178  1.0000
  H   H1486     1.0  0.86218  0.97892  0.69962  1.0000
  H   H1487     1.0  0.76963  0.97330  0.76816  1.0000
  H   H1488     1.0  0.95643  0.00306  0.96631  1.0000
  C   C855      1.0  0.75818  0.00410  0.96817  1.0000
  C   C856      1.0  0.75125  0.97615  0.82742  1.0000
  H   H1489     1.0  0.66089  0.21087  0.56359  1.0000
  C   C857      1.0  0.55924  0.07536  0.47262  1.0000
  C   C858      1.0  0.70632  0.04913  0.48576  1.0000
  H   H1490     1.0  0.89241  0.22027  0.49561  1.0000
  C   C859      1.0  0.82917  0.22225  0.68614  1.0000
  C   C860      1.0  0.97389  0.03306  0.51489  1.0000
  H   H1491     1.0  0.97321  0.07159  0.51195  1.0000
  H   H1492     1.0  0.47659  0.17166  0.53054  1.0000
  C   C861      1.0  0.58358  0.06740  0.47260  1.0000
  H   H1493     1.0  0.92746  0.97586  0.96471  1.0000
  C   C862      1.0  0.86988  0.00132  0.65488  1.0000
  H   H1494     1.0  0.85212  0.99543  0.65288  1.0000
  H   H1495     1.0  0.86709  0.22228  0.67634  1.0000
  H   H1496     1.0  0.88057  0.98557  0.66240  1.0000
  H   H1497     1.0  0.75930  0.97298  0.50951  1.0000
  H   H1498     1.0  0.89382  0.97407  0.70410  1.0000
  H   H1499     1.0  0.87185  0.97493  0.72872  1.0000
  S   S241      1.0  0.56609  0.37138  0.39587  1.0000
  C   C863      1.0  0.51762  0.23835  0.21591  1.0000
  S   S242      1.0  0.79105  0.28123  0.37872  1.0000
  H   H1500     1.0  0.54615  0.35957  0.26049  1.0000
  N   N63       1.0  0.62618  0.34111  0.33720  1.0000
  S   S243      1.0  0.81760  0.25474  0.33264  1.0000
  Fe  Fe122     1.0  0.56099  0.35291  0.43339  1.0000
  Fe  Fe123     1.0  0.82715  0.26209  0.36920  1.0000
  S   S244      1.0  0.86479  0.27093  0.37584  1.0000
  Fe  Fe124     1.0  0.78051  0.27059  0.34386  1.0000
  S   S245      1.0  0.75827  0.29281  0.31680  1.0000
  S   S246      1.0  0.62376  0.24385  0.26310  1.0000
  Fe  Fe125     1.0  0.53488  0.31199  0.46047  1.0000
  H   H1501     1.0  0.63786  0.30451  0.34795  1.0000
  H   H1502     1.0  0.75966  0.25557  0.27421  1.0000
  Fe  Fe126     1.0  0.94554  0.33840  0.45706  1.0000
  S   S247      1.0  0.90868  0.33652  0.44380  1.0000
  H   H1503     1.0  0.96877  0.37853  0.41124  1.0000
  C   C864      1.0  0.92201  0.38859  0.40300  1.0000
  S   S248      1.0  0.50896  0.43552  0.08449  1.0000
  H   H1504     1.0  0.89076  0.27270  0.45318  1.0000
  S   S249      1.0  0.47584  0.43843  0.13493  1.0000
  Fe  Fe127     1.0  0.51330  0.42402  0.12356  1.0000
  S   S250      1.0  0.52386  0.38607  0.13952  1.0000
  C   C865      1.0  0.48012  0.42850  0.24769  1.0000
  Fe  Fe128     1.0  0.60799  0.30623  0.23009  1.0000
  S   S251      1.0  0.59521  0.29634  0.26849  1.0000
  S   S252      1.0  0.59979  0.34435  0.21344  1.0000
  Fe  Fe129     1.0  0.63534  0.25713  0.22573  1.0000
  N   N64       1.0  0.94233  0.38014  0.38570  1.0000
  Fe  Fe130     1.0  0.58781  0.26175  0.25570  1.0000
  H   H1505     1.0  0.51594  0.40745  0.44219  1.0000
  Fe  Fe131     1.0  0.63228  0.27924  0.27279  1.0000
  S   S253      1.0  0.64956  0.27783  0.30764  1.0000
  S   S254      1.0  0.59852  0.27244  0.21704  1.0000
  S   S255      1.0  0.64597  0.29183  0.23565  1.0000
  C   C866      1.0  0.53368  0.23690  0.25433  1.0000
  H   H1506     1.0  0.86852  0.25210  0.43250  1.0000
  C   C867      1.0  0.53494  0.24422  0.22997  1.0000
  H   H1507     1.0  0.86339  0.22426  0.46736  1.0000
  H   H1508     1.0  0.95491  0.42020  0.41228  1.0000
  H   H1509     1.0  0.54922  0.25440  0.22190  1.0000
  H   H1510     1.0  0.96814  0.23168  0.43387  1.0000
  C   C868      1.0  0.75292  0.25369  0.25679  1.0000
  S   S256      1.0  0.81699  0.22629  0.38580  1.0000
  C   C869      1.0  0.71874  0.29419  0.44731  1.0000
  H   H1511     1.0  0.55088  0.44553  0.24979  1.0000
  C   C870      1.0  0.54586  0.37461  0.15922  1.0000
  C   C871      1.0  0.54571  0.35092  0.16933  1.0000
  C   C872      1.0  0.56233  0.34119  0.18551  1.0000
  C   C873      1.0  0.57945  0.35504  0.19179  1.0000
  C   C874      1.0  0.57979  0.37863  0.18147  1.0000
  C   C875      1.0  0.56309  0.38841  0.16538  1.0000
  H   H1512     1.0  0.53256  0.34001  0.16467  1.0000
  H   H1513     1.0  0.56175  0.32303  0.19324  1.0000
  H   H1514     1.0  0.59304  0.38947  0.18601  1.0000
  H   H1515     1.0  0.56364  0.40656  0.15763  1.0000
  C   C876      1.0  0.87660  0.28960  0.39463  1.0000
  C   C877      1.0  0.86246  0.30725  0.40640  1.0000
  C   C878      1.0  0.87270  0.32157  0.42101  1.0000
  C   C879      1.0  0.89713  0.31827  0.42443  1.0000
  C   C880      1.0  0.91133  0.30068  0.41262  1.0000
  C   C881      1.0  0.90113  0.28657  0.39776  1.0000
  H   H1516     1.0  0.84364  0.30993  0.40414  1.0000
  H   H1517     1.0  0.86151  0.33516  0.42994  1.0000
  H   H1518     1.0  0.93012  0.29785  0.41499  1.0000
  H   H1519     1.0  0.91228  0.27302  0.38872  1.0000
  C   C882      1.0  0.68002  0.28152  0.30938  1.0000
  C   C883      1.0  0.69325  0.29447  0.29133  1.0000
  C   C884      1.0  0.71715  0.29784  0.29388  1.0000
  C   C885      1.0  0.72820  0.28797  0.31424  1.0000
  C   C886      1.0  0.71496  0.27493  0.33220  1.0000
  C   C887      1.0  0.69094  0.27197  0.32989  1.0000
  H   H1520     1.0  0.68502  0.30215  0.27554  1.0000
  H   H1521     1.0  0.72719  0.30809  0.27995  1.0000
  H   H1522     1.0  0.72310  0.26747  0.34810  1.0000
  H   H1523     1.0  0.68083  0.26210  0.34405  1.0000
  C   C888      1.0  0.56317  0.40286  0.39127  1.0000
  C   C889      1.0  0.55849  0.41386  0.36865  1.0000
  C   C890      1.0  0.55700  0.43882  0.36413  1.0000
  C   C891      1.0  0.56085  0.45297  0.38206  1.0000
  C   C892      1.0  0.56545  0.44197  0.40471  1.0000
  C   C893      1.0  0.56630  0.41706  0.40940  1.0000
  H   H1524     1.0  0.55601  0.40304  0.35452  1.0000
  H   H1525     1.0  0.55347  0.44706  0.34661  1.0000
  H   H1526     1.0  0.56844  0.45274  0.41871  1.0000
  H   H1527     1.0  0.56996  0.40882  0.42689  1.0000
  H   H1528     1.0  0.92903  0.34618  0.38131  1.0000
  C   C894      1.0  0.49913  0.24264  0.44256  1.0000
  C   C895      1.0  0.78631  0.25862  0.45402  1.0000
  H   H1529     1.0  0.61040  0.31605  0.31815  1.0000
  H   H1530     1.0  0.79400  0.26660  0.43723  1.0000
  H   H1531     1.0  0.89027  0.39427  0.38307  1.0000
  H   H1532     1.0  0.49094  0.41534  0.18164  1.0000
  C   C896      1.0  0.60959  0.31527  0.37404  1.0000
  H   H1533     1.0  0.47783  0.41237  0.26007  1.0000
  C   C897      1.0  0.70278  0.27364  0.44725  1.0000
  H   H1534     1.0  0.70440  0.24009  0.24131  1.0000
  C   C898      1.0  0.54878  0.25602  0.34007  1.0000
  H   H1535     1.0  0.55708  0.40925  0.21163  1.0000
  C   C899      1.0  0.49754  0.42961  0.41394  1.0000
  C   C900      1.0  0.89698  0.38282  0.39845  1.0000
  H   H1536     1.0  0.76348  0.31211  0.44409  1.0000
  H   H1537     1.0  0.71587  0.30630  0.43090  1.0000
  H   H1538     1.0  0.54517  0.29730  0.39093  1.0000
  C   C901      1.0  0.75840  0.32017  0.46117  1.0000
  H   H1539     1.0  0.52115  0.42345  0.17724  1.0000
  H   H1540     1.0  0.92775  0.27794  0.46710  1.0000
  H   H1541     1.0  0.56265  0.37821  0.23930  1.0000
  C   C902      1.0  0.55684  0.26123  0.38179  1.0000
  H   H1542     1.0  0.90428  0.24421  0.46081  1.0000
  H   H1543     1.0  0.51319  0.39319  0.41608  1.0000
  H   H1544     1.0  0.49874  0.43949  0.19571  1.0000
  H   H1545     1.0  0.68674  0.25772  0.26161  1.0000
  C   C903      1.0  0.96521  0.41478  0.39567  1.0000
  C   C904      1.0  0.53990  0.24616  0.44982  1.0000
  S   S257      1.0  0.55583  0.24294  0.27229  1.0000
  H   H1546     1.0  0.93526  0.36095  0.33971  1.0000
  H   H1547     1.0  0.56590  0.28932  0.34047  1.0000
  H   H1548     1.0  0.92202  0.38891  0.32819  1.0000
  C   C905      1.0  0.67171  0.34533  0.32949  1.0000
  H   H1549     1.0  0.95666  0.39332  0.35031  1.0000
  C   C906      1.0  0.96708  0.34164  0.37412  1.0000
  H   H1550     1.0  0.92527  0.38131  0.42155  1.0000
  H   H1551     1.0  0.96460  0.32271  0.37240  1.0000
  S   S258      1.0  0.57160  0.31398  0.44223  1.0000
  H   H1552     1.0  0.87063  0.30247  0.46774  1.0000
  H   H1553     1.0  0.49573  0.39404  0.21823  1.0000
  H   H1554     1.0  0.67192  0.36254  0.33711  1.0000
  H   H1555     1.0  0.73726  0.28586  0.44460  1.0000
  Fe  Fe132     1.0  0.78078  0.24500  0.39336  1.0000
  S   S259      1.0  0.52345  0.34989  0.44863  1.0000
  H   H1556     1.0  0.57672  0.43847  0.23036  1.0000
  H   H1557     1.0  0.63249  0.38984  0.36770  1.0000
  C   C907      1.0  0.76857  0.24318  0.45421  1.0000
  H   H1558     1.0  0.67696  0.33011  0.34231  1.0000
  H   H1559     1.0  0.88455  0.38684  0.41428  1.0000
  S   S260      1.0  0.50828  0.28610  0.45462  1.0000
  H   H1560     1.0  0.51882  0.24396  0.19701  1.0000
  H   H1561     1.0  0.73642  0.26568  0.25481  1.0000
  H   H1562     1.0  0.53899  0.36274  0.23038  1.0000
  H   H1563     1.0  0.51713  0.45853  0.43779  1.0000
  H   H1564     1.0  0.51281  0.43764  0.25890  1.0000
  H   H1565     1.0  0.94480  0.34610  0.40654  1.0000
  H   H1566     1.0  0.83801  0.24701  0.43809  1.0000
  N   N65       1.0  0.52253  0.41321  0.23156  1.0000
  C   C908      1.0  0.56065  0.43110  0.23995  1.0000
  H   H1567     1.0  0.50205  0.44008  0.45940  1.0000
  S   S261      1.0  0.76770  0.23598  0.35945  1.0000
  H   H1568     1.0  0.64516  0.35876  0.30630  1.0000
  C   C909      1.0  0.64781  0.34309  0.31952  1.0000
  C   C910      1.0  0.63105  0.32114  0.35625  1.0000
  H   H1569     1.0  0.54251  0.43795  0.20806  1.0000
  H   H1570     1.0  0.61481  0.34875  0.28655  1.0000
  H   H1571     1.0  0.61962  0.36655  0.38582  1.0000
  H   H1572     1.0  0.53072  0.26558  0.33949  1.0000
  H   H1573     1.0  0.53181  0.40043  0.26721  1.0000
  H   H1574     1.0  0.68385  0.28011  0.44573  1.0000
  C   C911      1.0  0.96485  0.38788  0.39361  1.0000
  H   H1575     1.0  0.92057  0.40824  0.40322  1.0000
  H   H1576     1.0  0.52409  0.38947  0.20368  1.0000
  C   C912      1.0  0.60059  0.35088  0.30134  1.0000
  C   C913      1.0  0.53720  0.28177  0.38547  1.0000
  C   C914      1.0  0.93913  0.39110  0.36064  1.0000
  H   H1577     1.0  0.64536  0.32455  0.36708  1.0000
  H   H1578     1.0  0.48118  0.25061  0.44105  1.0000
  C   C915      1.0  0.60636  0.33442  0.32382  1.0000
  H   H1579     1.0  0.84727  0.27434  0.44531  1.0000
  H   H1580     1.0  0.58939  0.33414  0.33550  1.0000
  H   H1581     1.0  0.61589  0.30316  0.38923  1.0000
  C   C916      1.0  0.85258  0.25513  0.44524  1.0000
  C   C917      1.0  0.52631  0.39346  0.25105  1.0000
  H   H1582     1.0  0.71527  0.24688  0.28813  1.0000
  C   C918      1.0  0.51168  0.40354  0.21166  1.0000
  C   C919      1.0  0.50550  0.42163  0.19047  1.0000
  C   C920      1.0  0.56703  0.27367  0.32998  1.0000
  H   H1583     1.0  0.59734  0.36981  0.30502  1.0000
  H   H1584     1.0  0.50700  0.44989  0.23014  1.0000
  H   H1585     1.0  0.48787  0.42568  0.39874  1.0000
  H   H1586     1.0  0.58411  0.34579  0.29480  1.0000
  C   C921      1.0  0.54568  0.42266  0.22159  1.0000
  H   H1587     1.0  0.68589  0.34509  0.31447  1.0000
  H   H1588     1.0  0.59908  0.36552  0.35340  1.0000
  H   H1589     1.0  0.60022  0.33132  0.38151  1.0000
  H   H1590     1.0  0.50894  0.46881  0.38340  1.0000
  H   H1591     1.0  0.65058  0.32739  0.30889  1.0000
  C   C922      1.0  0.49870  0.22543  0.22607  1.0000
  S   S262      1.0  0.52974  0.45711  0.12980  1.0000
  C   C923      1.0  0.92511  0.37761  0.34498  1.0000
  H   H1592     1.0  0.62033  0.37963  0.33325  1.0000
  H   H1593     1.0  0.59681  0.30581  0.36568  1.0000
  C   C924      1.0  0.63089  0.37039  0.36894  1.0000
  H   H1594     1.0  0.70856  0.26385  0.43129  1.0000
  H   H1595     1.0  0.93017  0.40945  0.36102  1.0000
  H   H1596     1.0  0.50934  0.38551  0.25704  1.0000
  H   H1597     1.0  0.58548  0.26509  0.32866  1.0000
  H   H1598     1.0  0.68529  0.32904  0.45506  1.0000
  H   H1599     1.0  0.89591  0.36385  0.39609  1.0000
  H   H1600     1.0  0.72680  0.33944  0.44832  1.0000
  H   H1601     1.0  0.57827  0.23800  0.18500  1.0000
  H   H1602     1.0  0.51490  0.43547  0.40590  1.0000
  H   H1603     1.0  0.68042  0.22753  0.25972  1.0000
  H   H1604     1.0  0.90750  0.37334  0.35347  1.0000
  C   C925      1.0  0.54460  0.37255  0.24458  1.0000
  H   H1605     1.0  0.52326  0.27632  0.39959  1.0000
  C   C926      1.0  0.61841  0.36462  0.34732  1.0000
  H   H1606     1.0  0.64892  0.36154  0.37056  1.0000
  H   H1607     1.0  0.56296  0.28045  0.31159  1.0000
  C   C927      1.0  0.50648  0.43314  0.24200  1.0000
  H   H1608     1.0  0.56694  0.41633  0.25276  1.0000
  C   C928      1.0  0.50368  0.40573  0.42845  1.0000
  C   C929      1.0  0.94462  0.35332  0.38755  1.0000
  H   H1609     1.0  0.52852  0.28832  0.36913  1.0000
  S   S263      1.0  0.66113  0.23469  0.20189  1.0000
  C   C930      1.0  0.51660  0.25642  0.44845  1.0000
  H   H1610     1.0  0.76842  0.33612  0.46047  1.0000
  H   H1611     1.0  0.51464  0.24518  0.37489  1.0000
  N   N66       1.0  0.55249  0.24383  0.36453  1.0000
  N   N67       1.0  0.48354  0.44877  0.42757  1.0000
  H   H1612     1.0  0.75113  0.22638  0.30174  1.0000
  H   H1613     1.0  0.76645  0.26004  0.24270  1.0000
  H   H1614     1.0  0.54933  0.24272  0.32673  1.0000
  S   S264      1.0  0.57368  0.36358  0.46681  1.0000
  H   H1615     1.0  0.97091  0.35048  0.35600  1.0000
  H   H1616     1.0  0.55349  0.25666  0.45432  1.0000
  C   C931      1.0  0.69490  0.23940  0.25935  1.0000
  S   S265      1.0  0.75772  0.23725  0.42757  1.0000
  H   H1617     1.0  0.74229  0.22752  0.23569  1.0000
  C   C932      1.0  0.73150  0.32785  0.46456  1.0000
  C   C933      1.0  0.74900  0.22771  0.25351  1.0000
  S   S266      1.0  0.95698  0.37372  0.46523  1.0000
  H   H1618     1.0  0.70454  0.26052  0.46297  1.0000
  C   C934      1.0  0.47730  0.46934  0.40959  1.0000
  H   H1619     1.0  0.95868  0.42580  0.37997  1.0000
  C   C935      1.0  0.49885  0.45536  0.44581  1.0000
  H   H1620     1.0  0.61001  0.23472  0.17935  1.0000
  H   H1621     1.0  0.49412  0.46700  0.03549  1.0000
  C   C936      1.0  0.71104  0.23113  0.27966  1.0000
  H   H1622     1.0  0.48771  0.39737  0.43686  1.0000
  N   N68       1.0  0.71547  0.30790  0.46922  1.0000
  H   H1623     1.0  0.55858  0.25199  0.39987  1.0000
  H   H1624     1.0  0.57428  0.26877  0.37729  1.0000
  Fe  Fe133     1.0  0.52192  0.47019  0.09200  1.0000
  C   C937      1.0  0.51473  0.22401  0.26459  1.0000
  C   C938      1.0  0.89522  0.26030  0.46879  1.0000
  C   C939      1.0  0.85671  0.24300  0.47026  1.0000
  Fe  Fe134     1.0  0.49230  0.47188  0.13951  1.0000
  C   C940      1.0  0.59408  0.22476  0.18443  1.0000
  C   C941      1.0  0.53047  0.23193  0.37401  1.0000
  H   H1625     1.0  0.59042  0.23524  0.35735  1.0000
  H   H1626     1.0  0.53179  0.22433  0.39273  1.0000
  C   C942      1.0  0.57398  0.22601  0.36225  1.0000
  C   C943      1.0  0.90858  0.32818  0.58008  1.0000
  H   H1627     1.0  0.97284  0.39329  0.66369  1.0000
  H   H1628     1.0  0.91011  0.41098  0.82037  1.0000
  H   H1629     1.0  0.85534  0.31340  0.49318  1.0000
  H   H1630     1.0  0.87136  0.38341  0.86747  1.0000
  H   H1631     1.0  0.74644  0.29722  0.51613  1.0000
  H   H1632     1.0  0.94955  0.31785  0.54994  1.0000
  H   H1633     1.0  0.87171  0.33527  0.57185  1.0000
  Fe  Fe135     1.0  0.91425  0.29754  0.74341  1.0000
  S   S267      1.0  0.93285  0.29010  0.70740  1.0000
  S   S268      1.0  0.91745  0.33462  0.75610  1.0000
  Fe  Fe136     1.0  0.89130  0.24941  0.74796  1.0000
  H   H1634     1.0  0.70670  0.27948  0.49596  1.0000
  Fe  Fe137     1.0  0.94139  0.25339  0.72467  1.0000
  H   H1635     1.0  0.48205  0.25648  0.49180  1.0000
  Fe  Fe138     1.0  0.89865  0.27669  0.69915  1.0000
  S   S269      1.0  0.88583  0.28165  0.66185  1.0000
  S   S270      1.0  0.92454  0.26096  0.76111  1.0000
  S   S271      1.0  0.87908  0.28677  0.73365  1.0000
  Fe  Fe139     1.0  0.76357  0.26684  0.60999  1.0000
  H   H1636     1.0  0.84279  0.27035  0.50499  1.0000
  S   S272      1.0  0.77708  0.28060  0.64222  1.0000
  Fe  Fe140     1.0  0.71938  0.26598  0.58121  1.0000
  C   C944      1.0  0.96892  0.34427  0.79993  1.0000
  S   S273      1.0  0.68185  0.28441  0.57628  1.0000
  C   C945      1.0  0.68232  0.33368  0.49257  1.0000
  Fe  Fe141     1.0  0.76937  0.25496  0.55816  1.0000
  S   S274      1.0  0.79338  0.26168  0.52418  1.0000
  S   S275      1.0  0.72950  0.24904  0.61723  1.0000
  S   S276      1.0  0.75172  0.28670  0.57601  1.0000
  H   H1637     1.0  0.93098  0.43246  0.81633  1.0000
  C   C946      1.0  0.96441  0.38468  0.88806  1.0000
  S   S277      1.0  0.78375  0.23691  0.59164  1.0000
  S   S278      1.0  0.54473  0.32046  0.49618  1.0000
  H   H1638     1.0  0.94882  0.40213  0.78780  1.0000
  Fe  Fe142     1.0  0.53594  0.35894  0.48251  1.0000
  H   H1639     1.0  0.92614  0.45833  0.85903  1.0000
  H   H1640     1.0  0.72908  0.33996  0.47894  1.0000
  S   S279      1.0  0.61733  0.30400  0.48768  1.0000
  H   H1641     1.0  0.95255  0.41549  0.84628  1.0000
  H   H1642     1.0  0.91756  0.34785  0.61745  1.0000
  C   C947      1.0  0.72140  0.29099  0.49053  1.0000
  C   C948      1.0  0.78366  0.25416  0.49748  1.0000
  H   H1643     1.0  0.49605  0.25580  0.53240  1.0000
  H   H1644     1.0  0.94730  0.25896  0.60287  1.0000
  H   H1645     1.0  0.48602  0.43205  0.51259  1.0000
  H   H1646     1.0  0.89226  0.40366  0.89670  1.0000
  C   C949      1.0  0.66394  0.28932  0.55158  1.0000
  C   C950      1.0  0.64411  0.30635  0.55244  1.0000
  C   C951      1.0  0.62934  0.31078  0.53342  1.0000
  C   C952      1.0  0.63404  0.29803  0.51325  1.0000
  C   C953      1.0  0.65350  0.28051  0.51272  1.0000
  C   C954      1.0  0.66837  0.27622  0.53164  1.0000
  H   H1647     1.0  0.64026  0.31644  0.56785  1.0000
  H   H1648     1.0  0.61450  0.32429  0.53425  1.0000
  H   H1649     1.0  0.65718  0.27025  0.49742  1.0000
  H   H1650     1.0  0.68313  0.26266  0.53089  1.0000
  C   C955      1.0  0.93441  0.32133  0.64159  1.0000
  C   C956      1.0  0.92133  0.29026  0.60169  1.0000
  H   H1651     1.0  0.93489  0.36857  0.87842  1.0000
  H   H1652     1.0  0.67775  0.23588  0.65297  1.0000
  H   H1653     1.0  0.90021  0.32402  0.62885  1.0000
  C   C957      1.0  0.85557  0.28006  0.65710  1.0000
  C   C958      1.0  0.83721  0.28498  0.67478  1.0000
  C   C959      1.0  0.81330  0.28516  0.66989  1.0000
  C   C960      1.0  0.80747  0.27991  0.64749  1.0000
  C   C961      1.0  0.82584  0.27436  0.63000  1.0000
  C   C962      1.0  0.84976  0.27470  0.63472  1.0000
  H   H1654     1.0  0.84140  0.28927  0.69203  1.0000
  H   H1655     1.0  0.79921  0.28950  0.68351  1.0000
  H   H1656     1.0  0.82159  0.27027  0.61271  1.0000
  H   H1657     1.0  0.86379  0.27076  0.62097  1.0000
  H   H1658     1.0  0.97145  0.36690  0.89573  1.0000
  C   C963      1.0  0.95033  0.38301  0.78762  1.0000
  C   C964      1.0  0.93513  0.37209  0.77444  1.0000
  C   C965      1.0  0.93689  0.34720  0.77360  1.0000
  C   C966      1.0  0.95410  0.33338  0.78630  1.0000
  H   H1659     1.0  0.92862  0.40181  0.71037  1.0000
  S   S280      1.0  0.96232  0.36881  0.53711  1.0000
  H   H1660     1.0  0.92194  0.38302  0.76470  1.0000
  H   H1661     1.0  0.95579  0.31426  0.78589  1.0000
  C   C967      1.0  0.95783  0.37411  0.70864  1.0000
  H   H1662     1.0  0.90619  0.28740  0.49014  1.0000
  H   H1663     1.0  0.63675  0.25445  0.58742  1.0000
  H   H1664     1.0  0.87583  0.34059  0.60158  1.0000
  H   H1665     1.0  0.89897  0.37888  0.84963  1.0000
  C   C968      1.0  0.86117  0.22430  0.52038  1.0000
  C   C969      1.0  0.96100  0.44117  0.52886  1.0000
  H   H1666     1.0  0.51891  0.24692  0.51042  1.0000
  H   H1667     1.0  0.95061  0.40533  0.72974  1.0000
  H   H1668     1.0  0.94810  0.36297  0.72285  1.0000
  N   N69       1.0  0.92512  0.40667  0.87417  1.0000
  H   H1669     1.0  0.68013  0.24262  0.61000  1.0000
  C   C970      1.0  0.93486  0.40827  0.84832  1.0000
  C   C971      1.0  0.86061  0.27479  0.49673  1.0000
  H   H1670     1.0  0.90612  0.43660  0.83749  1.0000
  C   C972      1.0  0.94036  0.27341  0.61428  1.0000
  H   H1671     1.0  0.92327  0.25862  0.49358  1.0000
  H   H1672     1.0  0.68327  0.32319  0.51008  1.0000
  C   C973      1.0  0.78226  0.23797  0.71564  1.0000
  H   H1673     1.0  0.94967  0.43039  0.88397  1.0000
  C   C974      1.0  0.72739  0.30180  0.51313  1.0000
  H   H1674     1.0  0.69230  0.34958  0.49173  1.0000
  H   H1675     1.0  0.95289  0.32598  0.63697  1.0000
  C   C975      1.0  0.96730  0.44671  0.55097  1.0000
  H   H1676     1.0  0.91238  0.34705  0.57508  1.0000
  H   H1677     1.0  0.95179  0.36937  0.69172  1.0000
  S   S281      1.0  0.90919  0.23922  0.71307  1.0000
  H   H1678     1.0  0.89537  0.36539  0.87997  1.0000
  H   H1679     1.0  0.71719  0.29355  0.52906  1.0000
  H   H1680     1.0  0.83890  0.24194  0.48027  1.0000
  S   S282      1.0  0.51508  0.38999  0.50033  1.0000
  C   C976      1.0  0.48401  0.39794  0.49957  1.0000
  H   H1681     1.0  0.65039  0.23945  0.62169  1.0000
  H   H1682     1.0  0.75846  0.23042  0.51432  1.0000
  H   H1683     1.0  0.91978  0.28326  0.58423  1.0000
  C   C977      1.0  0.66795  0.22925  0.61816  1.0000
  Fe  Fe143     1.0  0.96725  0.35531  0.50016  1.0000
  H   H1684     1.0  0.96315  0.31536  0.60144  1.0000
  H   H1685     1.0  0.95582  0.28179  0.61890  1.0000
  H   H1686     1.0  0.89276  0.24257  0.51552  1.0000
  H   H1687     1.0  0.93212  0.26472  0.63114  1.0000
  H   H1688     1.0  0.73703  0.27854  0.48548  1.0000
  H   H1689     1.0  0.92929  0.38210  0.90578  1.0000
  H   H1690     1.0  0.67763  0.30389  0.47436  1.0000
  C   C978      1.0  0.91829  0.45232  0.87709  1.0000
  C   C979      1.0  0.97172  0.40437  0.56361  1.0000
  Fe  Fe144     1.0  0.58162  0.32423  0.47753  1.0000
  C   C980      1.0  0.63684  0.23856  0.57743  1.0000
  S   S283      1.0  0.95285  0.32115  0.49350  1.0000
  C   C981      1.0  0.96719  0.36914  0.80075  1.0000
  H   H1691     1.0  0.92721  0.33158  0.65688  1.0000
  H   H1692     1.0  0.97385  0.38761  0.87009  1.0000
  C   C982      1.0  0.76610  0.23851  0.49763  1.0000
  C   C983      1.0  0.93732  0.38489  0.88702  1.0000
  C   C984      1.0  0.94991  0.32125  0.58853  1.0000
  C   C985      1.0  0.78589  0.22333  0.69376  1.0000
  H   H1693     1.0  0.89870  0.45283  0.87770  1.0000
  H   H1694     1.0  0.83118  0.23261  0.70143  1.0000
  H   H1695     1.0  0.86986  0.27856  0.51226  1.0000
  C   C986      1.0  0.96017  0.41736  0.52409  1.0000
  C   C987      1.0  0.48409  0.23901  0.50248  1.0000
  H   H1696     1.0  0.95488  0.41338  0.50716  1.0000
  C   C988      1.0  0.96528  0.39885  0.54155  1.0000
  C   C989      1.0  0.50217  0.24159  0.52053  1.0000
  H   H1697     1.0  0.95130  0.34079  0.58509  1.0000
  C   C990      1.0  0.75842  0.23320  0.47603  1.0000
  H   H1698     1.0  0.62163  0.22825  0.58425  1.0000
  S   S284      1.0  0.73662  0.23507  0.56191  1.0000
  C   C991      1.0  0.68988  0.31818  0.47176  1.0000
  C   C992      1.0  0.91924  0.42295  0.83016  1.0000
  H   H1699     1.0  0.92197  0.46576  0.88896  1.0000
  C   C993      1.0  0.95923  0.30989  0.56530  1.0000
  C   C994      1.0  0.89877  0.40397  0.87743  1.0000
  H   H1700     1.0  0.96430  0.32567  0.72839  1.0000
  H   H1701     1.0  0.87602  0.31045  0.59338  1.0000
  H   H1702     1.0  0.66328  0.34029  0.49167  1.0000
  H   H1703     1.0  0.78490  0.23652  0.67788  1.0000
  C   C995      1.0  0.89099  0.38157  0.86796  1.0000
  C   C996      1.0  0.91832  0.32813  0.62110  1.0000
  H   H1704     1.0  0.95583  0.41293  0.69786  1.0000
  H   H1705     1.0  0.90397  0.28745  0.61200  1.0000
  H   H1706     1.0  0.93807  0.39011  0.84206  1.0000
  H   H1707     1.0  0.82591  0.23577  0.67098  1.0000
  H   H1708     1.0  0.95645  0.45540  0.51546  1.0000
  C   C997      1.0  0.88160  0.32842  0.58749  1.0000
  H   H1709     1.0  0.88823  0.41930  0.86884  1.0000
  H   H1710     1.0  0.92536  0.42545  0.90568  1.0000
  H   H1711     1.0  0.91161  0.31938  0.56317  1.0000
  C   C998      1.0  0.93031  0.42803  0.88610  1.0000
  N   N70       1.0  0.92493  0.31642  0.59823  1.0000
  C   C999      1.0  0.91393  0.27166  0.48097  1.0000
  H   H1712     1.0  0.72339  0.32118  0.51337  1.0000
  H   H1713     1.0  0.96900  0.39774  0.89986  1.0000
  H   H1714     1.0  0.93400  0.30241  0.64840  1.0000
  C   C1000     1.0  0.94811  0.40011  0.71184  1.0000
  H   H1715     1.0  0.63394  0.24540  0.55875  1.0000
  H   H1716     1.0  0.79699  0.24925  0.71641  1.0000
  H   H1717     1.0  0.76577  0.25015  0.71432  1.0000
  H   H1718     1.0  0.95866  0.29034  0.56713  1.0000
  C   C1001     1.0  0.97298  0.42816  0.56823  1.0000
  S   S285      1.0  0.86487  0.22513  0.76834  1.0000
  N   N71       1.0  0.87330  0.25398  0.48452  1.0000
  C   C1002     1.0  0.66086  0.22322  0.57758  1.0000
  H   H1719     1.0  0.49287  0.22636  0.48982  1.0000
  H   H1720     1.0  0.84975  0.23784  0.53015  1.0000
  H   H1721     1.0  0.83905  0.29987  0.47334  1.0000
  C   C1003     1.0  0.85614  0.29862  0.48153  1.0000
  C   C1004     1.0  0.88126  0.23525  0.50368  1.0000
  H   H1722     1.0  0.47790  0.47032  0.47647  1.0000
  H   H1723     1.0  0.67511  0.23496  0.57073  1.0000
  H   H1724     1.0  0.80699  0.27657  0.47542  1.0000
  H   H1725     1.0  0.76448  0.30777  0.47616  1.0000
  C   C1005     1.0  0.79371  0.26419  0.47563  1.0000
  H   H1726     1.0  0.77987  0.22654  0.73259  1.0000
  H   H1727     1.0  0.50683  0.22462  0.53117  1.0000
  H   H1728     1.0  0.47584  0.36549  0.48673  1.0000
  H   H1729     1.0  0.95218  0.63392  0.02325  1.0000
  H   H1730     1.0  0.56663  0.55806  0.13230  1.0000
  C   C1006     1.0  0.69893  0.70821  0.16598  1.0000
  C   C1007     1.0  0.59412  0.56188  0.34868  1.0000
  Fe  Fe145     1.0  0.62675  0.69238  0.24636  1.0000
  H   H1731     1.0  0.89420  0.60621  0.06124  1.0000
  S   S286      1.0  0.62314  0.65222  0.25297  1.0000
  C   C1008     1.0  0.49773  0.49396  0.19564  1.0000
  C   C1009     1.0  0.56136  0.51143  0.12914  1.0000
  S   S287      1.0  0.66214  0.70582  0.23199  1.0000
  H   H1732     1.0  0.62045  0.51887  0.40778  1.0000
  Fe  Fe146     1.0  0.52975  0.51228  0.29446  1.0000
  S   S288      1.0  0.56033  0.52299  0.31260  1.0000
  H   H1733     1.0  0.55468  0.54895  0.08789  1.0000
  Fe  Fe147     1.0  0.49331  0.52647  0.33539  1.0000
  S   S289      1.0  0.52115  0.53880  0.35541  1.0000
  C   C1010     1.0  0.52807  0.54648  0.15979  1.0000
  Fe  Fe148     1.0  0.53623  0.55579  0.32010  1.0000
  S   S290      1.0  0.54714  0.59378  0.32007  1.0000
  Fe  Fe149     1.0  0.54269  0.50507  0.34603  1.0000
  S   S291      1.0  0.50633  0.54604  0.30041  1.0000
  H   H1734     1.0  0.73110  0.68458  0.16305  1.0000
  S   S292      1.0  0.52873  0.59683  0.02070  1.0000
  H   H1735     1.0  0.48350  0.68936  0.28401  1.0000
  C   C1011     1.0  0.61272  0.50958  0.39444  1.0000
  H   H1736     1.0  0.95054  0.70143  0.97930  1.0000
  S   S293      1.0  0.91455  0.65012  0.98426  1.0000
  C   C1012     1.0  0.93065  0.61109  0.09016  1.0000
  H   H1737     1.0  0.61045  0.58424  0.37997  1.0000
  C   C1013     1.0  0.49855  0.48090  0.39559  1.0000
  C   C1014     1.0  0.61007  0.52511  0.37068  1.0000
  H   H1738     1.0  0.50455  0.57782  0.12544  1.0000
  N   N72       1.0  0.59935  0.55027  0.37300  1.0000
  C   C1015     1.0  0.57581  0.54893  0.38787  1.0000
  C   C1016     1.0  0.90317  0.67038  0.00564  1.0000
  C   C1017     1.0  0.87849  0.67664  0.00859  1.0000
  C   C1018     1.0  0.86858  0.69238  0.02554  1.0000
  C   C1019     1.0  0.52893  0.68267  0.28613  1.0000
  C   C1020     1.0  0.90789  0.69523  0.03735  1.0000
  C   C1021     1.0  0.91786  0.67991  0.02006  1.0000
  H   H1739     1.0  0.86691  0.66935  0.99762  1.0000
  H   H1740     1.0  0.84959  0.69720  0.02739  1.0000
  H   H1741     1.0  0.62680  0.57677  0.33230  1.0000
  H   H1742     1.0  0.93687  0.67556  0.01790  1.0000
  H   H1743     1.0  0.55204  0.57861  0.37290  1.0000
  H   H1744     1.0  0.48657  0.52771  0.12933  1.0000
  H   H1745     1.0  0.54524  0.53963  0.16698  1.0000
  H   H1746     1.0  0.49161  0.51109  0.25249  1.0000
  C   C1022     1.0  0.96357  0.56103  0.03363  1.0000
  H   H1747     1.0  0.61120  0.56270  0.40468  1.0000
  H   H1748     1.0  0.57449  0.56988  0.09183  1.0000
  C   C1023     1.0  0.60192  0.63627  0.27186  1.0000
  C   C1024     1.0  0.58955  0.64557  0.29200  1.0000
  C   C1025     1.0  0.57315  0.63215  0.30664  1.0000
  C   C1026     1.0  0.56861  0.60942  0.30122  1.0000
  C   C1027     1.0  0.58094  0.60011  0.28107  1.0000
  C   C1028     1.0  0.59766  0.61336  0.26666  1.0000
  H   H1749     1.0  0.59278  0.66303  0.29641  1.0000
  H   H1750     1.0  0.56381  0.63953  0.32223  1.0000
  H   H1751     1.0  0.57767  0.58269  0.27657  1.0000
  H   H1752     1.0  0.60717  0.60591  0.25119  1.0000
  C   C1029     1.0  0.70274  0.72019  0.00966  1.0000
  Fe  Fe150     1.0  0.53116  0.60956  0.98120  1.0000
  C   C1030     1.0  0.54994  0.56339  0.12352  1.0000
  H   H1753     1.0  0.62448  0.49320  0.39103  1.0000
  C   C1031     1.0  0.72256  0.70176  0.15727  1.0000
  H   H1754     1.0  0.49179  0.49648  0.38398  1.0000
  H   H1755     1.0  0.96094  0.58793  0.07934  1.0000
  H   H1756     1.0  0.52817  0.62912  0.24218  1.0000
  H   H1757     1.0  0.47615  0.54303  0.38988  1.0000
  C   C1032     1.0  0.73501  0.71715  0.14069  1.0000
  C   C1033     1.0  0.50018  0.50437  0.23625  1.0000
  C   C1034     1.0  0.51337  0.50989  0.97151  1.0000
  S   S294      1.0  0.51416  0.49181  0.32753  1.0000
  C   C1035     1.0  0.94315  0.59340  0.07273  1.0000
  C   C1036     1.0  0.53980  0.51881  0.05100  1.0000
  C   C1037     1.0  0.55480  0.52755  0.03157  1.0000
  C   C1038     1.0  0.55070  0.55101  0.02113  1.0000
  C   C1039     1.0  0.53190  0.56617  0.03049  1.0000
  C   C1040     1.0  0.51663  0.55732  0.04965  1.0000
  C   C1041     1.0  0.52024  0.53360  0.05951  1.0000
  H   H1758     1.0  0.56994  0.51626  0.02478  1.0000
  H   H1759     1.0  0.92004  0.58062  0.03618  1.0000
  H   H1760     1.0  0.50205  0.56894  0.05697  1.0000
  H   H1761     1.0  0.50826  0.52703  0.07412  1.0000
  C   C1042     1.0  0.53094  0.67866  0.24269  1.0000
  C   C1043     1.0  0.61483  0.56492  0.38491  1.0000
  H   H1762     1.0  0.93772  0.64010  0.05109  1.0000
  H   H1763     1.0  0.50540  0.61524  0.26065  1.0000
  H   H1764     1.0  0.95767  0.55225  0.05128  1.0000
  H   H1765     1.0  0.62794  0.52455  0.36080  1.0000
  H   H1766     1.0  0.56513  0.66949  0.22318  1.0000
  C   C1044     1.0  0.61509  0.56304  0.32929  1.0000
  H   H1767     1.0  0.56274  0.55768  0.00653  1.0000
  C   C1045     1.0  0.53595  0.52284  0.12564  1.0000
  H   H1768     1.0  0.59534  0.50367  0.40227  1.0000
  H   H1769     1.0  0.65094  0.57361  0.38753  1.0000
  H   H1770     1.0  0.51408  0.48721  0.02089  1.0000
  S   S295      1.0  0.61919  0.72055  0.27218  1.0000
  H   H1771     1.0  0.55901  0.64938  0.24895  1.0000
  C   C1046     1.0  0.77224  0.70819  0.19443  1.0000
  C   C1047     1.0  0.73051  0.70693  0.25280  1.0000
  C   C1048     1.0  0.56019  0.57265  0.38979  1.0000
  S   S296      1.0  0.56087  0.48429  0.37669  1.0000
  H   H1772     1.0  0.68936  0.69608  0.17846  1.0000
  S   S297      1.0  0.87199  0.72221  0.06134  1.0000
  H   H1773     1.0  0.52355  0.51068  0.13580  1.0000
  H   H1774     1.0  0.62531  0.54568  0.32693  1.0000
  C   C1049     1.0  0.49558  0.48594  0.02892  1.0000
  H   H1775     1.0  0.71565  0.69477  0.21258  1.0000
  H   H1776     1.0  0.53287  0.52178  0.10672  1.0000
  H   H1777     1.0  0.71472  0.71759  0.24575  1.0000
  H   H1778     1.0  0.77165  0.64223  0.23588  1.0000
  H   H1779     1.0  0.56490  0.53631  0.38088  1.0000
  H   H1780     1.0  0.94398  0.61968  0.09872  1.0000
  H   H1781     1.0  0.51535  0.53342  0.16740  1.0000
  H   H1782     1.0  0.51225  0.68992  0.97642  1.0000
  C   C1050     1.0  0.74406  0.69186  0.07219  1.0000
  H   H1783     1.0  0.49257  0.49619  0.04478  1.0000
  H   H1784     1.0  0.57847  0.54173  0.40653  1.0000
  S   S298      1.0  0.48577  0.48739  0.10233  1.0000
  H   H1785     1.0  0.54510  0.58192  0.12826  1.0000
  C   C1051     1.0  0.69241  0.70657  0.06374  1.0000
  H   H1786     1.0  0.79741  0.65781  0.23055  1.0000
  C   C1052     1.0  0.51088  0.63277  0.25269  1.0000
  C   C1053     1.0  0.55577  0.56564  0.09614  1.0000
  C   C1054     1.0  0.50779  0.55855  0.12280  1.0000
  H   H1787     1.0  0.95123  0.55840  0.02024  1.0000
  H   H1788     1.0  0.58020  0.55277  0.34154  1.0000
  N   N73       1.0  0.53045  0.54783  0.13291  1.0000
  H   H1789     1.0  0.47925  0.49105  0.45006  1.0000
  C   C1055     1.0  0.95172  0.62789  0.04262  1.0000
  H   H1790     1.0  0.58661  0.58065  0.34976  1.0000
  H   H1791     1.0  0.67598  0.69172  0.09764  1.0000
  H   H1792     1.0  0.64861  0.54246  0.38874  1.0000
  H   H1793     1.0  0.48016  0.48124  0.99646  1.0000
  C   C1056     1.0  0.55714  0.66831  0.24194  1.0000
  H   H1794     1.0  0.50443  0.48467  0.46606  1.0000
  H   H1795     1.0  0.75859  0.69121  0.08410  1.0000
  H   H1796     1.0  0.54602  0.71336  0.26716  1.0000
  S   S299      1.0  0.76483  0.70840  0.13043  1.0000
  H   H1797     1.0  0.92062  0.60098  0.10501  1.0000
  H   H1798     1.0  0.91773  0.62484  0.08249  1.0000
  H   H1799     1.0  0.54423  0.71226  0.29875  1.0000
  N   N74       1.0  0.94608  0.60230  0.04666  1.0000
  C   C1057     1.0  0.88323  0.70173  0.04010  1.0000
  H   H1800     1.0  0.50931  0.55788  0.10311  1.0000
  H   H1801     1.0  0.72537  0.69476  0.02933  1.0000
  N   N75       1.0  0.47616  0.51915  0.00044  1.0000
  H   H1802     1.0  0.53351  0.58311  0.16685  1.0000
  H   H1803     1.0  0.47994  0.53310  0.03396  1.0000
  H   H1804     1.0  0.57018  0.58689  0.39496  1.0000
  H   H1805     1.0  0.51824  0.56624  0.19074  1.0000
  H   H1806     1.0  0.52274  0.67159  0.22814  1.0000
  H   H1807     1.0  0.49752  0.64660  0.28633  1.0000
  H   H1808     1.0  0.70272  0.66967  0.24788  1.0000
  H   H1809     1.0  0.75998  0.71508  0.27308  1.0000
  H   H1810     1.0  0.88714  0.61159  0.03108  1.0000
  N   N76       1.0  0.74591  0.69561  0.23287  1.0000
  C   C1058     1.0  0.52200  0.48643  0.19414  1.0000
  C   C1059     1.0  0.72994  0.68225  0.22020  1.0000
  H   H1811     1.0  0.51238  0.52614  0.00468  1.0000
  C   C1060     1.0  0.76598  0.67982  0.24341  1.0000
  C   C1061     1.0  0.90096  0.61352  0.04323  1.0000
  H   H1812     1.0  0.70931  0.65151  0.22380  1.0000
  H   H1813     1.0  0.73705  0.72268  0.02185  1.0000
  C   C1062     1.0  0.77799  0.65962  0.22860  1.0000
  C   C1063     1.0  0.53528  0.48788  0.21363  1.0000
  C   C1064     1.0  0.48510  0.54670  0.13258  1.0000
  S   S300      1.0  0.54697  0.48995  0.06494  1.0000
  C   C1065     1.0  0.53438  0.70893  0.28354  1.0000
  H   H1814     1.0  0.51630  0.49102  0.97852  1.0000
  C   C1066     1.0  0.96665  0.58761  0.03464  1.0000
  H   H1815     1.0  0.78023  0.69071  0.24724  1.0000
  H   H1816     1.0  0.75947  0.67094  0.26097  1.0000
  H   H1817     1.0  0.54381  0.57984  0.08736  1.0000
  H   H1818     1.0  0.73943  0.67412  0.20457  1.0000
  H   H1819     1.0  0.54519  0.56998  0.40367  1.0000
  H   H1820     1.0  0.54609  0.67190  0.28839  1.0000
  H   H1821     1.0  0.64810  0.56044  0.36076  1.0000
  H   H1822     1.0  0.69725  0.68740  0.06133  1.0000
  C   C1067     1.0  0.51323  0.64848  0.27305  1.0000
  H   H1823     1.0  0.90251  0.63282  0.04290  1.0000
  H   H1824     1.0  0.51823  0.67951  0.30358  1.0000
  C   C1068     1.0  0.52012  0.57000  0.17102  1.0000
  H   H1825     1.0  0.77611  0.66220  0.20926  1.0000
  H   H1826     1.0  0.92741  0.60450  0.01480  1.0000
  C   C1069     1.0  0.75519  0.71546  0.21587  1.0000
  H   H1827     1.0  0.76468  0.69621  0.18348  1.0000
  H   H1828     1.0  0.90972  0.71846  0.98753  1.0000
  H   H1829     1.0  0.75222  0.68472  0.05544  1.0000
  H   H1830     1.0  0.91938  0.70231  0.04856  1.0000
  C   C1070     1.0  0.64204  0.55985  0.37993  1.0000
  H   H1831     1.0  0.72993  0.65018  0.24604  1.0000
  C   C1071     1.0  0.71749  0.66231  0.23562  1.0000
  H   H1832     1.0  0.53092  0.69792  0.23704  1.0000
  H   H1833     1.0  0.49762  0.64021  0.24031  1.0000
  H   H1834     1.0  0.57509  0.52108  0.11792  1.0000
  H   H1835     1.0  0.59914  0.51571  0.35985  1.0000
  H   H1836     1.0  0.55404  0.48197  0.21239  1.0000
  H   H1837     1.0  0.56321  0.49319  0.12326  1.0000
  C   C1072     1.0  0.52438  0.49654  0.23487  1.0000
  H   H1838     1.0  0.72320  0.69317  0.26614  1.0000
  H   H1839     1.0  0.60785  0.56887  0.31191  1.0000
  S   S301      1.0  0.54147  0.49599  0.25948  1.0000
  H   H1840     1.0  0.73088  0.68009  0.08133  1.0000
  N   N77       1.0  0.51657  0.67452  0.26629  1.0000
  S   S302      1.0  0.60720  0.71328  0.21711  1.0000
  H   H1841     1.0  0.52844  0.63939  0.28248  1.0000
  H   H1842     1.0  0.56786  0.67861  0.25192  1.0000
  H   H1843     1.0  0.78963  0.70012  0.20014  1.0000
  C   C1073     1.0  0.68317  0.70866  0.09012  1.0000
  H   H1844     1.0  0.48282  0.68041  0.23104  1.0000
  H   H1845     1.0  0.93339  0.57711  0.07519  1.0000
  H   H1846     1.0  0.50255  0.57795  0.16580  1.0000
  C   C1074     1.0  0.50044  0.52576  0.99026  1.0000
  H   H1847     1.0  0.56518  0.50985  0.14810  1.0000
  C   C1075     1.0  0.48696  0.50320  0.21663  1.0000
  C   C1076     1.0  0.92422  0.59947  0.03435  1.0000
  C   C1077     1.0  0.48920  0.47644  0.46031  1.0000
  H   H1848     1.0  0.53054  0.47950  0.17800  1.0000
  C   C1078     1.0  0.49282  0.68905  0.26574  1.0000
  H   H1849     1.0  0.67652  0.71093  0.05353  1.0000
  S   S303      1.0  0.48038  0.49281  0.17152  1.0000
  H   H1850     1.0  0.51799  0.72130  0.28415  1.0000
  H   H1851     1.0  0.51036  0.48746  0.40752  1.0000
  H   H1852     1.0  0.69708  0.71107  0.10181  1.0000
  H   H1853     1.0  0.48059  0.54845  0.15188  1.0000
  C   C1079     1.0  0.47699  0.49359  0.01081  1.0000
  H   H1854     1.0  0.97081  0.59519  0.01599  1.0000
  H   H1855     1.0  0.49935  0.54413  0.98124  1.0000
  C   C1080     1.0  0.72052  0.71426  0.02888  1.0000
  H   H1856     1.0  0.68613  0.71137  0.01433  1.0000
  H   H1857     1.0  0.49525  0.70791  0.25943  1.0000
  H   H1858     1.0  0.71105  0.71357  0.99265  1.0000
  C   C1081     1.0  0.73333  0.71782  0.06800  1.0000
  S   S304      1.0  0.80010  0.72073  0.06608  1.0000
  N   N78       1.0  0.71210  0.72161  0.05351  1.0000
  H   H1859     1.0  0.48079  0.56929  0.00621  1.0000
  S   S305      1.0  0.96883  0.50088  0.62304  1.0000
  H   H1860     1.0  0.69637  0.60328  0.90625  1.0000
  C   C1082     1.0  0.72960  0.63454  0.88253  1.0000
  H   H1861     1.0  0.85164  0.69623  0.64667  1.0000
  C   C1083     1.0  0.58258  0.72055  0.89229  1.0000
  N   N79       1.0  0.96688  0.54864  0.72514  1.0000
  S   S306      1.0  0.67625  0.70050  0.90805  1.0000
  Fe  Fe151     1.0  0.91281  0.66639  0.70471  1.0000
  S   S307      1.0  0.93157  0.67617  0.73535  1.0000
  S   S308      1.0  0.91281  0.62900  0.69227  1.0000
  H   H1862     1.0  0.93793  0.57410  0.71465  1.0000
  Fe  Fe152     1.0  0.89645  0.69620  0.74712  1.0000
  S   S309      1.0  0.87980  0.69944  0.78510  1.0000
  S   S310      1.0  0.92138  0.69890  0.68070  1.0000
  S   S311      1.0  0.87724  0.68378  0.71863  1.0000
  H   H1863     1.0  0.69283  0.68531  0.82527  1.0000
  H   H1864     1.0  0.47762  0.52127  0.91750  1.0000
  H   H1865     1.0  0.70020  0.65594  0.81683  1.0000
  Fe  Fe153     1.0  0.51497  0.59483  0.93600  1.0000
  H   H1866     1.0  0.93221  0.54054  0.74250  1.0000
  S   S312      1.0  0.50160  0.56214  0.92324  1.0000
  Fe  Fe154     1.0  0.55753  0.62620  0.93305  1.0000
  H   H1867     1.0  0.86863  0.65192  0.57744  1.0000
  S   S313      1.0  0.58922  0.63685  0.90674  1.0000
  H   H1868     1.0  0.68844  0.59303  0.87879  1.0000
  Fe  Fe155     1.0  0.50706  0.64717  0.94701  1.0000
  C   C1084     1.0  0.88209  0.66818  0.84654  1.0000
  S   S314      1.0  0.55048  0.58987  0.95142  1.0000
  S   S315      1.0  0.52344  0.62906  0.91500  1.0000
  H   H1869     1.0  0.90776  0.63658  0.60326  1.0000
  H   H1870     1.0  0.89286  0.66426  0.93349  1.0000
  S   S316      1.0  0.77065  0.68888  0.81972  1.0000
  H   H1871     1.0  0.75191  0.60910  0.82747  1.0000
  H   H1872     1.0  0.88569  0.69422  0.92266  1.0000
  H   H1873     1.0  0.97068  0.51162  0.76942  1.0000
  C   C1085     1.0  0.68512  0.60723  0.89115  1.0000
  N   N80       1.0  0.71136  0.63653  0.86455  1.0000
  C   C1086     1.0  0.95825  0.51249  0.75526  1.0000
  H   H1874     1.0  0.67297  0.63535  0.86645  1.0000
  S   S317      1.0  0.74341  0.69720  0.88584  1.0000
  H   H1875     1.0  0.74437  0.64047  0.82600  1.0000
  H   H1876     1.0  0.96612  0.58064  0.70082  1.0000
  H   H1877     1.0  0.86251  0.67569  0.93609  1.0000
  C   C1087     1.0  0.71714  0.61824  0.84674  1.0000
  H   H1878     1.0  0.90456  0.70236  0.63081  1.0000
  C   C1088     1.0  0.61287  0.65514  0.90761  1.0000
  C   C1089     1.0  0.61984  0.66156  0.92897  1.0000
  C   C1090     1.0  0.63918  0.67549  0.92868  1.0000
  C   C1091     1.0  0.65167  0.68343  0.90709  1.0000
  C   C1092     1.0  0.64426  0.67762  0.88568  1.0000
  C   C1093     1.0  0.62526  0.66323  0.88599  1.0000
  H   H1879     1.0  0.61058  0.65544  0.94575  1.0000
  H   H1880     1.0  0.64460  0.68001  0.94537  1.0000
  H   H1881     1.0  0.65322  0.68411  0.86894  1.0000
  H   H1882     1.0  0.61992  0.65852  0.86934  1.0000
  H   H1883     1.0  0.83362  0.65589  0.90588  1.0000
  H   H1884     1.0  0.72987  0.61710  0.89327  1.0000
  S   S318      1.0  0.54118  0.64564  0.96442  1.0000
  H   H1885     1.0  0.87704  0.68970  0.66283  1.0000
  C   C1094     1.0  0.95131  0.53858  0.74606  1.0000
  C   C1095     1.0  0.83396  0.67508  0.89948  1.0000
  S   S319      1.0  0.96811  0.48564  0.88049  1.0000
  C   C1096     1.0  0.96486  0.52484  0.90658  1.0000
  H   H1886     1.0  0.95006  0.60966  0.72850  1.0000
  H   H1887     1.0  0.54762  0.69963  0.94094  1.0000
  Fe  Fe156     1.0  0.75105  0.71152  0.84772  1.0000
  C   C1097     1.0  0.84894  0.69784  0.79295  1.0000
  H   H1888     1.0  0.96092  0.63750  0.67072  1.0000
  H   H1889     1.0  0.89669  0.65623  0.85409  1.0000
  C   C1098     1.0  0.80067  0.69300  0.80934  1.0000
  C   C1099     1.0  0.81148  0.68126  0.78978  1.0000
  C   C1100     1.0  0.83548  0.68373  0.78154  1.0000
  H   H1890     1.0  0.72252  0.60061  0.85607  1.0000
  H   H1891     1.0  0.52367  0.71481  0.90927  1.0000
  H   H1892     1.0  0.80134  0.67002  0.78106  1.0000
  H   H1893     1.0  0.84373  0.67421  0.76678  1.0000
  C   C1101     1.0  0.48993  0.70720  0.95006  1.0000
  C   C1102     1.0  0.73689  0.62318  0.82637  1.0000
  H   H1894     1.0  0.93009  0.63270  0.62343  1.0000
  C   C1103     1.0  0.94567  0.57663  0.65275  1.0000
  C   C1104     1.0  0.92884  0.59077  0.66665  1.0000
  C   C1105     1.0  0.93420  0.61274  0.67343  1.0000
  C   C1106     1.0  0.95648  0.62066  0.66572  1.0000
  H   H1895     1.0  0.89503  0.67021  0.88962  1.0000
  H   H1896     1.0  0.94129  0.55978  0.64774  1.0000
  H   H1897     1.0  0.94780  0.58783  0.75322  1.0000
  H   H1898     1.0  0.95498  0.72155  0.95276  1.0000
  C   C1107     1.0  0.85345  0.66193  0.66586  1.0000
  H   H1899     1.0  0.91026  0.66177  0.64880  1.0000
  H   H1900     1.0  0.96111  0.55574  0.92685  1.0000
  C   C1108     1.0  0.95697  0.57368  0.71800  1.0000
  C   C1109     1.0  0.54434  0.68586  0.89316  1.0000
  H   H1901     1.0  0.84455  0.67559  0.85133  1.0000
  H   H1902     1.0  0.76648  0.63743  0.88803  1.0000
  Fe  Fe157     1.0  0.88755  0.71716  0.69715  1.0000
  H   H1903     1.0  0.84702  0.67762  0.61313  1.0000
  H   H1904     1.0  0.86176  0.71516  0.60039  1.0000
  H   H1905     1.0  0.58076  0.70108  0.96581  1.0000
  C   C1110     1.0  0.81403  0.70753  0.82037  1.0000
  C   C1111     1.0  0.85858  0.66740  0.86275  1.0000
  H   H1906     1.0  0.70087  0.61553  0.83811  1.0000
  H   H1907     1.0  0.50387  0.51130  0.95513  1.0000
  H   H1908     1.0  0.85269  0.71205  0.86218  1.0000
  C   C1112     1.0  0.83801  0.70990  0.81221  1.0000
  C   C1113     1.0  0.95815  0.59222  0.73599  1.0000
  C   C1114     1.0  0.94323  0.52753  0.69790  1.0000
  H   H1909     1.0  0.84098  0.66989  0.67994  1.0000
  H   H1910     1.0  0.66644  0.60652  0.89908  1.0000
  C   C1115     1.0  0.96746  0.53436  0.70388  1.0000
  H   H1911     1.0  0.86074  0.64823  0.61757  1.0000
  H   H1912     1.0  0.52853  0.68129  0.88500  1.0000
  H   H1913     1.0  0.89248  0.66904  0.58049  1.0000
  C   C1116     1.0  0.87604  0.71919  0.61097  1.0000
  C   C1117     1.0  0.68768  0.63227  0.87829  1.0000
  C   C1118     1.0  0.70889  0.66173  0.85308  1.0000
  C   C1119     1.0  0.96820  0.54851  0.91036  1.0000
  H   H1914     1.0  0.57557  0.68866  0.92784  1.0000
  H   H1915     1.0  0.90502  0.69355  0.60195  1.0000
  C   C1120     1.0  0.69312  0.66624  0.83201  1.0000
  C   C1121     1.0  0.87320  0.66813  0.58491  1.0000
  C   C1122     1.0  0.86035  0.70562  0.87927  1.0000
  H   H1916     1.0  0.68337  0.64508  0.89216  1.0000
  H   H1917     1.0  0.72625  0.66831  0.84644  1.0000
  H   H1918     1.0  0.70153  0.67420  0.86659  1.0000
  H   H1919     1.0  0.72480  0.64820  0.89554  1.0000
  H   H1920     1.0  0.76322  0.62071  0.86377  1.0000
  C   C1123     1.0  0.75573  0.63663  0.87277  1.0000
  H   H1921     1.0  0.86624  0.64926  0.67536  1.0000
  H   H1922     1.0  0.67441  0.66267  0.83718  1.0000
  H   H1923     1.0  0.88757  0.68648  0.84256  1.0000
  H   H1924     1.0  0.75851  0.65290  0.86080  1.0000
  H   H1925     1.0  0.93593  0.51412  0.71153  1.0000
  H   H1926     1.0  0.87955  0.70866  0.87600  1.0000
  H   H1927     1.0  0.91162  0.58449  0.67239  1.0000
  C   C1124     1.0  0.89942  0.65577  0.63550  1.0000
  N   N81       1.0  0.88076  0.67530  0.62835  1.0000
  C   C1125     1.0  0.86600  0.68203  0.65082  1.0000
  C   C1126     1.0  0.89281  0.69702  0.61794  1.0000
  H   H1928     1.0  0.93008  0.54319  0.69578  1.0000
  C   C1127     1.0  0.86459  0.66691  0.61183  1.0000
  C   C1128     1.0  0.87742  0.66770  0.89956  1.0000
  S   S320      1.0  0.48234  0.68067  0.94012  1.0000
  H   H1929     1.0  0.83122  0.68457  0.91593  1.0000
  Fe  Fe158     1.0  0.70690  0.71650  0.88413  1.0000
  H   H1930     1.0  0.94571  0.51929  0.68067  1.0000
  H   H1931     1.0  0.92725  0.65997  0.60532  1.0000
  H   H1932     1.0  0.58930  0.70179  0.88988  1.0000
  H   H1933     1.0  0.85506  0.64836  0.86667  1.0000
  S   S321      1.0  0.96375  0.65117  0.93099  1.0000
  S   S322      1.0  0.49555  0.61313  0.96637  1.0000
  H   H1934     1.0  0.84284  0.65229  0.65519  1.0000
  H   H1935     1.0  0.80954  0.66897  0.87300  1.0000
  N   N82       1.0  0.56067  0.72143  0.90966  1.0000
  H   H1936     1.0  0.87951  0.66166  0.82914  1.0000
  C   C1129     1.0  0.81166  0.68207  0.88583  1.0000
  C   C1130     1.0  0.91689  0.64612  0.61538  1.0000
  H   H1937     1.0  0.85360  0.71812  0.91576  1.0000
  H   H1938     1.0  0.89111  0.63990  0.64440  1.0000
  H   H1939     1.0  0.72990  0.62255  0.80878  1.0000
  Fe  Fe159     1.0  0.93845  0.70974  0.71191  1.0000
  N   N83       1.0  0.85744  0.67950  0.88556  1.0000
  H   H1940     1.0  0.96665  0.50145  0.74115  1.0000
  C   C1131     1.0  0.57663  0.71564  0.95180  1.0000
  H   H1941     1.0  0.54566  0.67398  0.90980  1.0000
  H   H1942     1.0  0.86342  0.68328  0.57499  1.0000
  H   H1943     1.0  0.94204  0.50390  0.76269  1.0000
  H   H1944     1.0  0.87623  0.64809  0.90221  1.0000
  H   H1945     1.0  0.95161  0.54899  0.76168  1.0000
  H   H1946     1.0  0.95524  0.51400  0.92031  1.0000
  C   C1132     1.0  0.56477  0.70540  0.93213  1.0000
  H   H1947     1.0  0.81188  0.70003  0.87625  1.0000
  H   H1948     1.0  0.79559  0.68217  0.89874  1.0000
  H   H1949     1.0  0.56007  0.68183  0.88049  1.0000
  C   C1133     1.0  0.87924  0.67627  0.92428  1.0000
  C   C1134     1.0  0.97367  0.51519  0.88509  1.0000
  S   S323      1.0  0.96698  0.47696  0.55658  1.0000
  C   C1135     1.0  0.96806  0.58442  0.64523  1.0000
  C   C1136     1.0  0.50534  0.70673  0.96793  1.0000
  S   S324      1.0  0.96765  0.60196  0.96570  1.0000
  H   H1950     1.0  0.80599  0.71682  0.83529  1.0000
  H   H1951     1.0  0.84821  0.72113  0.82084  1.0000
  C   C1137     1.0  0.54087  0.71231  0.89806  1.0000
  H   H1952     1.0  0.61535  0.72004  0.91013  1.0000
  Fe  Fe160     1.0  0.95295  0.64006  0.96953  1.0000
  C   C1138     1.0  0.97323  0.60661  0.65167  1.0000
  H   H1953     1.0  0.93380  0.70011  0.95463  1.0000
  C   C1139     1.0  0.94157  0.71261  0.96500  1.0000
  H   H1954     1.0  0.97536  0.54419  0.68743  1.0000
  H   H1955     1.0  0.83639  0.72138  0.74178  1.0000
  H   H1956     1.0  0.53118  0.51623  0.96602  1.0000
  H   H1957     1.0  0.53803  0.72241  0.88057  1.0000
  H   H1958     1.0  0.96433  0.73391  0.99228  1.0000
  H   H1959     1.0  0.69437  0.80429  0.20492  1.0000
  C   C1140     1.0  0.75930  0.80397  0.23041  1.0000
  H   H1960     1.0  0.69874  0.84297  0.20188  1.0000
  S   S325      1.0  0.85385  0.94790  0.44562  1.0000
  H   H1961     1.0  0.61514  0.92287  0.25193  1.0000
  H   H1962     1.0  0.48367  0.88980  0.20793  1.0000
  H   H1963     1.0  0.78440  0.93152  0.37004  1.0000
  H   H1964     1.0  0.59750  0.89698  0.98173  1.0000
  H   H1965     1.0  0.75742  0.92015  0.33579  1.0000
  C   C1141     1.0  0.58055  0.90455  0.99075  1.0000
  C   C1142     1.0  0.74522  0.90833  0.34648  1.0000
  H   H1966     1.0  0.56440  0.87135  0.99369  1.0000
  Fe  Fe161     1.0  0.78683  0.88364  0.28948  1.0000
  S   S326      1.0  0.75112  0.90271  0.28213  1.0000
  S   S327      1.0  0.80198  0.88435  0.32585  1.0000
  Fe  Fe162     1.0  0.79164  0.86096  0.24126  1.0000
  S   S328      1.0  0.75709  0.87935  0.23073  1.0000
  S   S329      1.0  0.81196  0.83261  0.21912  1.0000
  Fe  Fe163     1.0  0.76857  0.91135  0.24541  1.0000
  S   S330      1.0  0.75958  0.94680  0.22493  1.0000
  Fe  Fe164     1.0  0.74254  0.86893  0.26816  1.0000
  S   S331      1.0  0.70497  0.85699  0.27185  1.0000
  S   S332      1.0  0.80482  0.89401  0.25302  1.0000
  S   S333      1.0  0.77662  0.84883  0.27841  1.0000
  S   S334      1.0  0.89324  0.92878  0.01287  1.0000
  S   S335      1.0  0.49987  0.93044  0.35796  1.0000
  H   H1967     1.0  0.53344  0.88849  0.97686  1.0000
  S   S336      1.0  0.68285  0.74867  0.27307  1.0000
  H   H1968     1.0  0.96524  0.87386  0.00110  1.0000
  C   C1143     1.0  0.52743  0.86886  0.26672  1.0000
  Fe  Fe165     1.0  0.53681  0.93607  0.34170  1.0000
  S   S337      1.0  0.57277  0.93164  0.35718  1.0000
  S   S338      1.0  0.53153  0.91877  0.30864  1.0000
  H   H1969     1.0  0.52747  0.84912  0.31274  1.0000
  Fe  Fe166     1.0  0.80594  0.77997  0.09468  1.0000
  S   S339      1.0  0.80357  0.81589  0.11029  1.0000
  S   S340      1.0  0.59479  0.92854  0.46598  1.0000
  H   H1970     1.0  0.90501  0.74398  0.02090  1.0000
  H   H1971     1.0  0.61103  0.95267  0.32711  1.0000
  S   S341      1.0  0.82078  0.77407  0.05694  1.0000
  S   S342      1.0  0.65717  0.73793  0.16679  1.0000
  H   H1972     1.0  0.52867  0.96569  0.38976  1.0000
  H   H1973     1.0  0.88298  0.77694  0.98033  1.0000
  C   C1144     1.0  0.51806  0.76381  0.25074  1.0000
  C   C1145     1.0  0.49714  0.75829  0.24186  1.0000
  H   H1974     1.0  0.65962  0.90801  0.25677  1.0000
  C   C1146     1.0  0.54046  0.75695  0.23943  1.0000
  H   H1975     1.0  0.51686  0.77288  0.26678  1.0000
  C   C1147     1.0  0.60135  0.94442  0.29185  1.0000
  H   H1976     1.0  0.74133  0.88846  0.38070  1.0000
  S   S343      1.0  0.50876  0.84376  0.97376  1.0000
  H   H1977     1.0  0.93502  0.78720  0.98058  1.0000
  H   H1978     1.0  0.50531  0.85505  0.22985  1.0000
  S   S344      1.0  0.47870  0.88007  0.32086  1.0000
  C   C1148     1.0  0.53418  0.83213  0.30515  1.0000
  H   H1979     1.0  0.83306  0.86917  0.11937  1.0000
  H   H1980     1.0  0.72108  0.76465  0.07657  1.0000
  C   C1149     1.0  0.93891  0.93406  0.02434  1.0000
  C   C1150     1.0  0.92408  0.92015  0.01438  1.0000
  C   C1151     1.0  0.72520  0.93603  0.38859  1.0000
  C   C1152     1.0  0.95806  0.89067  0.00751  1.0000
  C   C1153     1.0  0.53080  0.88737  0.24510  1.0000
  H   H1981     1.0  0.93168  0.95070  0.03108  1.0000
  Fe  Fe167     1.0  0.78681  0.75797  0.05334  1.0000
  Fe  Fe168     1.0  0.86073  0.96983  0.41053  1.0000
  C   C1154     1.0  0.69930  0.82679  0.27199  1.0000
  C   C1155     1.0  0.67855  0.82127  0.26278  1.0000
  C   C1156     1.0  0.67340  0.79746  0.26273  1.0000
  C   C1157     1.0  0.68871  0.77893  0.27239  1.0000
  C   C1158     1.0  0.70935  0.78449  0.28178  1.0000
  C   C1159     1.0  0.71473  0.80826  0.28143  1.0000
  H   H1982     1.0  0.66643  0.83548  0.25559  1.0000
  H   H1983     1.0  0.65738  0.79349  0.25561  1.0000
  H   H1984     1.0  0.72119  0.77038  0.28955  1.0000
  H   H1985     1.0  0.73061  0.81229  0.28882  1.0000
  C   C1160     1.0  0.80833  0.82804  0.18909  1.0000
  C   C1161     1.0  0.79753  0.84569  0.17360  1.0000
  C   C1162     1.0  0.79590  0.84157  0.14963  1.0000
  C   C1163     1.0  0.80471  0.81968  0.14096  1.0000
  C   C1164     1.0  0.81503  0.80187  0.15658  1.0000
  C   C1165     1.0  0.81705  0.80614  0.18042  1.0000
  H   H1986     1.0  0.79086  0.86266  0.17999  1.0000
  H   H1987     1.0  0.78790  0.85548  0.13770  1.0000
  H   H1988     1.0  0.82208  0.78503  0.15013  1.0000
  H   H1989     1.0  0.82561  0.79245  0.19219  1.0000
  S   S345      1.0  0.76191  0.76707  0.02418  1.0000
  H   H1990     1.0  0.79537  0.95556  0.25596  1.0000
  C   C1166     1.0  0.83734  0.94146  0.36022  1.0000
  C   C1167     1.0  0.83416  0.91913  0.37237  1.0000
  C   C1168     1.0  0.82394  0.90171  0.36134  1.0000
  C   C1169     1.0  0.81633  0.90643  0.33818  1.0000
  C   C1170     1.0  0.81956  0.92872  0.32604  1.0000
  C   C1171     1.0  0.83022  0.94592  0.33687  1.0000
  H   H1991     1.0  0.83979  0.91518  0.39017  1.0000
  H   H1992     1.0  0.82176  0.88448  0.37087  1.0000
  H   H1993     1.0  0.81405  0.93264  0.30819  1.0000
  C   C1172     1.0  0.96302  0.92601  0.02642  1.0000
  Fe  Fe169     1.0  0.64201  0.72872  0.20492  1.0000
  Fe  Fe170     1.0  0.78637  0.73140  0.10274  1.0000
  C   C1173     1.0  0.75438  0.97205  0.44181  1.0000
  H   H1994     1.0  0.74007  0.72711  0.20869  1.0000
  H   H1995     1.0  0.72034  0.94369  0.37074  1.0000
  H   H1996     1.0  0.72991  0.83132  0.16992  1.0000
  C   C1174     1.0  0.58842  0.93067  0.43569  1.0000
  C   C1175     1.0  0.56652  0.92405  0.43006  1.0000
  C   C1176     1.0  0.56106  0.92508  0.40616  1.0000
  C   C1177     1.0  0.57769  0.93230  0.38761  1.0000
  C   C1178     1.0  0.59955  0.93898  0.39326  1.0000
  C   C1179     1.0  0.60481  0.93844  0.41716  1.0000
  H   H1997     1.0  0.55374  0.91798  0.44424  1.0000
  H   H1998     1.0  0.54427  0.91963  0.40206  1.0000
  H   H1999     1.0  0.58199  0.87456  0.01687  1.0000
  H   H2000     1.0  0.62175  0.94350  0.42122  1.0000
  N   N84       1.0  0.61715  0.92144  0.28999  1.0000
  C   C1180     1.0  0.61126  0.91062  0.26820  1.0000
  C   C1181     1.0  0.64276  0.92731  0.28703  1.0000
  C   C1182     1.0  0.61210  0.90573  0.31267  1.0000
  H   H2001     1.0  0.80246  0.73844  0.00270  1.0000
  H   H2002     1.0  0.69332  0.77957  0.06933  1.0000
  C   C1183     1.0  0.62427  0.88016  0.31421  1.0000
  H   H2003     1.0  0.62263  0.89403  0.26497  1.0000
  H   H2004     1.0  0.47996  0.76329  0.25095  1.0000
  H   H2005     1.0  0.96407  0.77534  0.00525  1.0000
  H   H2006     1.0  0.61743  0.91383  0.32823  1.0000
  H   H2007     1.0  0.59266  0.90461  0.31715  1.0000
  H   H2008     1.0  0.70595  0.91577  0.41852  1.0000
  H   H2009     1.0  0.79713  0.84624  0.06067  1.0000
  H   H2010     1.0  0.71411  0.75750  0.03668  1.0000
  C   C1184     1.0  0.68731  0.72986  0.15763  1.0000
  H   H2011     1.0  0.69854  0.73963  0.00590  1.0000
  H   H2012     1.0  0.83315  0.96271  0.32691  1.0000
  H   H2013     1.0  0.62634  0.87183  0.29721  1.0000
  S   S346      1.0  0.48016  0.95226  0.30654  1.0000
  H   H2014     1.0  0.69348  0.75316  0.08918  1.0000
  H   H2015     1.0  0.51443  0.89135  0.23570  1.0000
  H   H2016     1.0  0.71518  0.75744  0.18479  1.0000
  H   H2017     1.0  0.53444  0.90443  0.25154  1.0000
  H   H2018     1.0  0.72442  0.95152  0.39939  1.0000
  H   H2019     1.0  0.56956  0.91283  0.97643  1.0000
  C   C1185     1.0  0.53310  0.87077  0.03037  1.0000
  H   H2020     1.0  0.91043  0.77413  0.01348  1.0000
  H   H2021     1.0  0.77076  0.89450  0.37054  1.0000
  H   H2022     1.0  0.69069  0.76183  0.13420  1.0000
  H   H2023     1.0  0.75290  0.97228  0.42291  1.0000
  H   H2024     1.0  0.51169  0.87576  0.27825  1.0000
  H   H2025     1.0  0.51594  0.87605  0.04057  1.0000
  C   C1186     1.0  0.81112  0.94959  0.18093  1.0000
  C   C1187     1.0  0.56978  0.83185  0.25480  1.0000
  H   H2026     1.0  0.48729  0.85553  0.25733  1.0000
  H   H2027     1.0  0.84146  0.92107  0.02317  1.0000
  H   H2028     1.0  0.94417  0.76658  0.03115  1.0000
  H   H2029     1.0  0.53899  0.96393  0.02169  1.0000
  H   H2030     1.0  0.52425  0.80896  0.28060  1.0000
  C   C1188     1.0  0.75153  0.78683  0.18185  1.0000
  H   H2031     1.0  0.57272  0.92090  0.26770  1.0000
  H   H2032     1.0  0.58355  0.83142  0.23942  1.0000
  H   H2033     1.0  0.72647  0.91567  0.34564  1.0000
  H   H2034     1.0  0.73199  0.78309  0.15051  1.0000
  H   H2035     1.0  0.72126  0.86311  0.19653  1.0000
  H   H2036     1.0  0.64186  0.87952  0.32144  1.0000
  H   H2037     1.0  0.82404  0.96066  0.12804  1.0000
  H   H2038     1.0  0.52216  0.72895  0.19477  1.0000
  H   H2039     1.0  0.56283  0.84322  0.03573  1.0000
  C   C1189     1.0  0.76047  0.96196  0.36058  1.0000
  H   H2040     1.0  0.56873  0.89240  0.05078  1.0000
  H   H2041     1.0  0.58355  0.89570  0.25207  1.0000
  C   C1190     1.0  0.52096  0.73884  0.21033  1.0000
  Fe  Fe171     1.0  0.60124  0.74209  0.24220  1.0000
  C   C1191     1.0  0.76811  0.94087  0.37840  1.0000
  C   C1192     1.0  0.55419  0.90370  0.04222  1.0000
  H   H2042     1.0  0.77567  0.79542  0.22135  1.0000
  Fe  Fe172     1.0  0.51863  0.95513  0.29365  1.0000
  C   C1193     1.0  0.90734  0.75764  0.00552  1.0000
  H   H2043     1.0  0.56199  0.92065  0.03575  1.0000
  H   H2044     1.0  0.82734  0.94397  0.16960  1.0000
  C   C1194     1.0  0.72344  0.73893  0.13265  1.0000
  H   H2045     1.0  0.55158  0.85758  0.06243  1.0000
  N   N85       1.0  0.52436  0.84392  0.26114  1.0000
  H   H2046     1.0  0.70324  0.80118  0.17441  1.0000
  C   C1195     1.0  0.76244  0.95561  0.98261  1.0000
  H   H2047     1.0  0.55358  0.83171  0.30055  1.0000
  H   H2048     1.0  0.74329  0.89935  0.41914  1.0000
  N   N86       1.0  0.84131  0.87274  0.06712  1.0000
  C   C1196     1.0  0.85327  0.88279  0.08612  1.0000
  C   C1197     1.0  0.84733  0.88686  0.04362  1.0000
  C   C1198     1.0  0.84984  0.84698  0.06491  1.0000
  C   C1199     1.0  0.81490  0.87443  0.07393  1.0000
  C   C1200     1.0  0.85160  0.86896  0.11108  1.0000
  C   C1201     1.0  0.83463  0.91214  0.04050  1.0000
  C   C1202     1.0  0.87698  0.84155  0.06016  1.0000
  C   C1203     1.0  0.79957  0.86542  0.05612  1.0000
  H   H2049     1.0  0.87247  0.88439  0.08053  1.0000
  H   H2050     1.0  0.84563  0.90128  0.08868  1.0000
  H   H2051     1.0  0.84380  0.87732  0.02824  1.0000
  H   H2052     1.0  0.86676  0.88898  0.04085  1.0000
  H   H2053     1.0  0.84374  0.83562  0.08108  1.0000
  H   H2054     1.0  0.84171  0.84011  0.05011  1.0000
  H   H2055     1.0  0.81081  0.86369  0.09107  1.0000
  H   H2056     1.0  0.80778  0.89275  0.07790  1.0000
  H   H2057     1.0  0.61259  0.94444  0.37905  1.0000
  H   H2058     1.0  0.85958  0.85035  0.11089  1.0000
  H   H2059     1.0  0.86170  0.87772  0.12308  1.0000
  H   H2060     1.0  0.81518  0.91189  0.03985  1.0000
  H   H2061     1.0  0.83825  0.92325  0.05457  1.0000
  C   C1204     1.0  0.75067  0.76000  0.97957  1.0000
  H   H2062     1.0  0.88666  0.84584  0.07507  1.0000
  H   H2063     1.0  0.88405  0.85096  0.04324  1.0000
  H   H2064     1.0  0.61292  0.86857  0.32647  1.0000
  H   H2065     1.0  0.61432  0.96470  0.99973  1.0000
  C   C1205     1.0  0.66151  0.90894  0.27600  1.0000
  H   H2066     1.0  0.79579  0.96197  0.99543  1.0000
  N   N87       1.0  0.54636  0.89213  0.02171  1.0000
  H   H2067     1.0  0.50134  0.82994  0.29103  1.0000
  C   C1206     1.0  0.56826  0.88439  0.00598  1.0000
  C   C1207     1.0  0.52089  0.90160  0.98583  1.0000
  C   C1208     1.0  0.52991  0.90987  0.00830  1.0000
  H   H2068     1.0  0.53501  0.83660  0.05123  1.0000
  H   H2069     1.0  0.60070  0.95479  0.27409  1.0000
  C   C1209     1.0  0.95770  0.76016  0.01720  1.0000
  H   H2070     1.0  0.64457  0.94405  0.27516  1.0000
  H   H2071     1.0  0.75069  0.92774  0.42497  1.0000
  H   H2072     1.0  0.54609  0.88194  0.23246  1.0000
  H   H2073     1.0  0.66134  0.89095  0.28534  1.0000
  H   H2074     1.0  0.78183  0.87567  0.05685  1.0000
  C   C1210     1.0  0.70308  0.74764  0.05098  1.0000
  C   C1211     1.0  0.73427  0.82714  0.18871  1.0000
  H   H2075     1.0  0.73269  0.75098  0.11996  1.0000
  H   H2076     1.0  0.53802  0.92686  0.00334  1.0000
  H   H2077     1.0  0.52787  0.86215  0.01506  1.0000
  C   C1212     1.0  0.54501  0.83352  0.24544  1.0000
  H   H2078     1.0  0.64870  0.93076  0.30449  1.0000
  C   C1213     1.0  0.75215  0.90281  0.37216  1.0000
  S   S347      1.0  0.82113  0.74428  0.10989  1.0000
  H   H2079     1.0  0.75280  0.83190  0.18882  1.0000
  C   C1214     1.0  0.73654  0.79558  0.22236  1.0000
  H   H2080     1.0  0.68504  0.76632  0.19442  1.0000
  H   H2081     1.0  0.76528  0.72705  0.22514  1.0000
  C   C1215     1.0  0.88296  0.76263  0.99512  1.0000
  H   H2082     1.0  0.68765  0.93184  0.39763  1.0000
  H   H2083     1.0  0.51363  0.91498  0.01991  1.0000
  C   C1216     1.0  0.74918  0.78852  0.15478  1.0000
  H   H2084     1.0  0.72122  0.80322  0.23368  1.0000
  C   C1217     1.0  0.52033  0.82801  0.28396  1.0000
  H   H2085     1.0  0.54606  0.84272  0.22712  1.0000
  S   S348      1.0  0.56628  0.76381  0.25145  1.0000
  C   C1218     1.0  0.69961  0.74509  0.14080  1.0000
  C   C1219     1.0  0.93380  0.89844  0.00596  1.0000
  C   C1220     1.0  0.54673  0.85115  0.04583  1.0000
  N   N88       1.0  0.73259  0.80112  0.19638  1.0000
  H   H2086     1.0  0.54269  0.86947  0.27738  1.0000
  H   H2087     1.0  0.76938  0.79256  0.18372  1.0000
  H   H2088     1.0  0.55901  0.73924  0.21018  1.0000
  H   H2089     1.0  0.76339  0.77627  0.14642  1.0000
  C   C1221     1.0  0.50239  0.84532  0.24776  1.0000
  H   H2090     1.0  0.58507  0.91842  0.00161  1.0000
  H   H2091     1.0  0.58007  0.89224  0.28391  1.0000
  H   H2092     1.0  0.81574  0.95246  0.19899  1.0000
  H   H2093     1.0  0.57285  0.81527  0.26673  1.0000
  Fe  Fe173     1.0  0.87781  0.96742  0.01357  1.0000
  S   S349      1.0  0.77083  0.76730  0.08946  1.0000
  H   H2094     1.0  0.68472  0.74994  0.04519  1.0000
  H   H2095     1.0  0.70422  0.90498  0.38950  1.0000
  H   H2096     1.0  0.54279  0.91854  0.07590  1.0000
  S   S350      1.0  0.70817  0.96111  0.44717  1.0000
  H   H2097     1.0  0.57297  0.84738  0.26397  1.0000
  Fe  Fe174     1.0  0.88822  0.95958  0.45609  1.0000
  C   C1222     1.0  0.53471  0.90990  0.06222  1.0000
  C   C1223     1.0  0.78042  0.96980  0.98664  1.0000
  H   H2098     1.0  0.62444  0.97029  0.30195  1.0000
  H   H2099     1.0  0.73102  0.72667  0.28379  1.0000
  C   C1224     1.0  0.48856  0.94515  0.21437  1.0000
  C   C1225     1.0  0.58532  0.90463  0.26834  1.0000
  S   S351      1.0  0.84988  0.96449  0.37311  1.0000
  H   H2100     1.0  0.74485  0.74082  0.25739  1.0000
  C   C1226     1.0  0.50000  0.94863  0.23459  1.0000
  C   C1227     1.0  0.70378  0.76840  0.19733  1.0000
  H   H2101     1.0  0.73740  0.77613  0.22740  1.0000
  N   N89       1.0  0.92824  0.74995  0.98841  1.0000
  S   S352      1.0  0.63407  0.75962  0.22732  1.0000
  C   C1228     1.0  0.49856  0.74556  0.22174  1.0000
  C   C1229     1.0  0.76786  0.75555  0.99611  1.0000
  C   C1230     1.0  0.54186  0.74451  0.21913  1.0000
  H   H2102     1.0  0.75256  0.76772  0.18855  1.0000
  Fe  Fe175     1.0  0.49337  0.91619  0.32316  1.0000
  H   H2103     1.0  0.51831  0.91691  0.97230  1.0000
  C   C1231     1.0  0.70801  0.79495  0.19276  1.0000
  H   H2104     1.0  0.75255  0.95656  0.34509  1.0000
  C   C1232     1.0  0.70276  0.76168  0.07302  1.0000
  C   C1233     1.0  0.75491  0.91368  0.41239  1.0000
  H   H2105     1.0  0.75959  0.82354  0.22796  1.0000
  C   C1234     1.0  0.78063  0.90289  0.41565  1.0000
  H   H2106     1.0  0.70622  0.76128  0.21597  1.0000
  H   H2107     1.0  0.79396  0.91598  0.41076  1.0000
  H   H2108     1.0  0.54230  0.81495  0.24230  1.0000
  H   H2109     1.0  0.97323  0.75193  0.02654  1.0000
  H   H2110     1.0  0.78198  0.89686  0.43479  1.0000
  H   H2111     1.0  0.50634  0.81115  0.23139  1.0000
  H   H2112     1.0  0.53111  0.81777  0.31963  1.0000
  H   H2113     1.0  0.52694  0.89394  0.07145  1.0000
  H   H2114     1.0  0.50371  0.89369  0.99027  1.0000
  H   H2115     1.0  0.77597  0.72436  0.18243  1.0000
  C   C1235     1.0  0.70490  0.92092  0.39919  1.0000
  H   H2116     1.0  0.95496  0.93686  0.97364  1.0000
  Fe  Fe176     1.0  0.65261  0.73613  0.25509  1.0000
  C   C1236     1.0  0.78916  0.74203  0.99004  1.0000
  C   C1237     1.0  0.49733  0.95418  0.19153  1.0000
  C   C1238     1.0  0.71780  0.84466  0.20345  1.0000
  C   C1239     1.0  0.94866  0.74137  0.00318  1.0000
  H   H2117     1.0  0.66869  0.72322  0.09185  1.0000
  H   H2118     1.0  0.88097  0.82218  0.05849  1.0000
  C   C1240     1.0  0.74269  0.72321  0.26731  1.0000
  H   H2119     1.0  0.76002  0.79888  0.24981  1.0000
  H   H2120     1.0  0.80707  0.86783  0.03735  1.0000
  H   H2121     1.0  0.58259  0.94085  0.29769  1.0000
  H   H2122     1.0  0.52037  0.92282  0.05569  1.0000
  C   C1241     1.0  0.49345  0.82144  0.24331  1.0000
  C   C1242     1.0  0.73468  0.96744  0.45802  1.0000
  H   H2123     1.0  0.68500  0.96914  0.00454  1.0000
  N   N90       1.0  0.74994  0.92346  0.38737  1.0000
  H   H2124     1.0  0.86948  0.76865  0.00941  1.0000
  H   H2125     1.0  0.72121  0.84278  0.22252  1.0000
  H   H2126     1.0  0.67955  0.91461  0.27709  1.0000
  H   H2127     1.0  0.94373  0.72628  0.01621  1.0000
  H   H2128     1.0  0.79983  0.93443  0.18339  1.0000
  H   H2129     1.0  0.49283  0.94210  0.25218  1.0000
  H   H2130     1.0  0.75191  0.80659  0.14619  1.0000
  Fe  Fe177     1.0  0.83356  0.73703  0.07165  1.0000
  H   H2131     1.0  0.78553  0.88708  0.40555  1.0000
  H   H2132     1.0  0.74714  0.89145  0.33773  1.0000
  H   H2133     1.0  0.59605  0.95102  0.03969  1.0000
  C   C1243     1.0  0.60829  0.96152  0.30915  1.0000
  H   H2134     1.0  0.77420  0.94935  0.39341  1.0000
  H   H2135     1.0  0.92252  0.88753  0.99823  1.0000
  C   C1244     1.0  0.59158  0.96898  0.03216  1.0000
  H   H2136     1.0  0.87672  0.74640  0.98924  1.0000
  H   H2137     1.0  0.76402  0.93683  0.98841  1.0000
  C   C1245     1.0  0.52026  0.96119  0.23201  1.0000
  S   S353      1.0  0.50354  0.95926  0.09806  1.0000
  H   H2138     1.0  0.50685  0.95727  0.99607  1.0000
  H   H2139     1.0  0.74774  0.72855  0.05936  1.0000
  H   H2140     1.0  0.97416  0.93664  0.03470  1.0000
  C   C1246     1.0  0.79675  0.97156  0.16952  1.0000
  H   H2141     1.0  0.73416  0.77045  0.98417  1.0000
  H   H2142     1.0  0.48880  0.81044  0.26010  1.0000
  H   H2143     1.0  0.52466  0.72754  0.98803  1.0000
  H   H2144     1.0  0.77646  0.97114  0.35357  1.0000
  C   C1247     1.0  0.92134  0.72993  0.97542  1.0000
  H   H2145     1.0  0.78996  0.96644  0.15311  1.0000
  C   C1248     1.0  0.97274  0.90428  0.01805  1.0000
  H   H2146     1.0  0.47680  0.82508  0.23420  1.0000
  H   H2147     1.0  0.54461  0.95860  0.97317  1.0000
  H   H2148     1.0  0.51053  0.96321  0.03792  1.0000
  H   H2149     1.0  0.72938  0.72437  0.08586  1.0000
  S   S354      1.0  0.48188  0.95097  0.16658  1.0000
  C   C1249     1.0  0.51217  0.72807  0.97466  1.0000
  Fe  Fe178     1.0  0.48987  0.96691  0.33992  1.0000
  H   H2150     1.0  0.72110  0.95409  0.02166  1.0000
  C   C1250     1.0  0.51796  0.96610  0.18901  1.0000
  H   H2151     1.0  0.69908  0.95511  0.04607  1.0000
  C   C1251     1.0  0.78635  0.97242  0.24977  1.0000
  S   S355      1.0  0.53401  0.96784  0.25685  1.0000
  C   C1252     1.0  0.70886  0.96644  0.03223  1.0000
  C   C1253     1.0  0.52939  0.96954  0.20915  1.0000
  H   H2152     1.0  0.66355  0.97087  0.05429  1.0000
  C   C1254     1.0  0.93364  0.77112  0.97115  1.0000
  H   H2153     1.0  0.52516  0.97268  0.17152  1.0000
  H   H2154     1.0  0.64688  0.97269  0.02972  1.0000
  C   C1255     1.0  0.74238  0.96558  0.97118  1.0000
  C   C1256     1.0  0.71210  0.96899  0.62328  1.0000
  H   H2155     1.0  0.80785  0.94006  0.52516  1.0000
  C   C1257     1.0  0.56711  0.91515  0.52838  1.0000
  H   H2156     1.0  0.61565  0.87286  0.85438  1.0000
  H   H2157     1.0  0.82335  0.78712  0.73154  1.0000
  Fe  Fe179     1.0  0.65106  0.95261  0.52270  1.0000
  H   H2158     1.0  0.86899  0.89263  0.51111  1.0000
  S   S356      1.0  0.65359  0.93879  0.56200  1.0000
  H   H2159     1.0  0.84792  0.89055  0.54881  1.0000
  S   S357      1.0  0.71961  0.94739  0.96766  1.0000
  H   H2160     1.0  0.76173  0.74739  0.71475  1.0000
  S   S358      1.0  0.65870  0.92989  0.49177  1.0000
  Fe  Fe180     1.0  0.78906  0.86359  0.68855  1.0000
  S   S359      1.0  0.76140  0.84608  0.67270  1.0000
  S   S360      1.0  0.82706  0.84726  0.69140  1.0000
  Fe  Fe181     1.0  0.75339  0.90525  0.70306  1.0000
  S   S361      1.0  0.72300  0.88942  0.68933  1.0000
  S   S362      1.0  0.74291  0.94058  0.71886  1.0000
  Fe  Fe182     1.0  0.73881  0.85449  0.70644  1.0000
  S   S363      1.0  0.72013  0.82421  0.72733  1.0000
  Fe  Fe183     1.0  0.74845  0.88282  0.65714  1.0000
  S   S364      1.0  0.74324  0.89462  0.61773  1.0000
  S   S365      1.0  0.76692  0.87091  0.72270  1.0000
  S   S366      1.0  0.77840  0.89978  0.67052  1.0000
  S   S367      1.0  0.62847  0.90579  0.92786  1.0000
  H   H2161     1.0  0.57580  0.87128  0.56644  1.0000
  S   S368      1.0  0.72134  0.79836  0.83962  1.0000
  Fe  Fe184     1.0  0.49717  0.86246  0.93970  1.0000
  H   H2162     1.0  0.85504  0.74097  0.89184  1.0000
  S   S369      1.0  0.51855  0.89272  0.92212  1.0000
  H   H2163     1.0  0.68106  0.88687  0.84981  1.0000
  N   N91       1.0  0.60330  0.89044  0.54552  1.0000
  H   H2164     1.0  0.55549  0.90272  0.53905  1.0000
  H   H2165     1.0  0.86799  0.72788  0.62695  1.0000
  N   N92       1.0  0.79539  0.77023  0.75398  1.0000
  Fe  Fe185     1.0  0.72750  0.76033  0.85630  1.0000
  H   H2166     1.0  0.66576  0.86151  0.91893  1.0000
  H   H2167     1.0  0.59937  0.74914  0.90726  1.0000
  S   S370      1.0  0.71336  0.72796  0.84474  1.0000
  H   H2168     1.0  0.95919  0.78182  0.73248  1.0000
  C   C1258     1.0  0.59751  0.90293  0.92785  1.0000
  C   C1259     1.0  0.58138  0.92225  0.92149  1.0000
  C   C1260     1.0  0.55725  0.91886  0.92012  1.0000
  C   C1261     1.0  0.54881  0.89629  0.92561  1.0000
  C   C1262     1.0  0.56477  0.87714  0.93285  1.0000
  C   C1263     1.0  0.58902  0.88041  0.93366  1.0000
  H   H2169     1.0  0.58765  0.93964  0.91681  1.0000
  H   H2170     1.0  0.54512  0.93375  0.91431  1.0000
  H   H2171     1.0  0.55855  0.85967  0.93708  1.0000
  H   H2172     1.0  0.78829  0.82028  0.76128  1.0000
  C   C1264     1.0  0.74456  0.95309  0.64756  1.0000
  H   H2173     1.0  0.67096  0.79055  0.90522  1.0000
  H   H2174     1.0  0.79223  0.94604  0.70012  1.0000
  H   H2175     1.0  0.57847  0.72782  0.87399  1.0000
  C   C1265     1.0  0.72132  0.81714  0.75847  1.0000
  C   C1266     1.0  0.72924  0.83278  0.77303  1.0000
  C   C1267     1.0  0.72923  0.82678  0.79783  1.0000
  C   C1268     1.0  0.72187  0.80489  0.80825  1.0000
  C   C1269     1.0  0.71424  0.78914  0.79365  1.0000
  C   C1270     1.0  0.71381  0.79533  0.76894  1.0000
  H   H2176     1.0  0.73489  0.84969  0.76525  1.0000
  H   H2177     1.0  0.73504  0.83914  0.80896  1.0000
  H   H2178     1.0  0.70823  0.77236  0.80146  1.0000
  H   H2179     1.0  0.70750  0.78320  0.75787  1.0000
  H   H2180     1.0  0.65749  0.87052  0.51505  1.0000
  H   H2181     1.0  0.63407  0.85186  0.52255  1.0000
  C   C1271     1.0  0.69488  0.94960  0.67325  1.0000
  C   C1272     1.0  0.62976  0.88524  0.53987  1.0000
  C   C1273     1.0  0.67875  0.92636  0.57708  1.0000
  C   C1274     1.0  0.70177  0.92452  0.56562  1.0000
  C   C1275     1.0  0.72115  0.91459  0.57833  1.0000
  C   C1276     1.0  0.71786  0.90629  0.60261  1.0000
  C   C1277     1.0  0.69482  0.90803  0.61407  1.0000
  C   C1278     1.0  0.67545  0.91813  0.60140  1.0000
  H   H2182     1.0  0.70466  0.93072  0.54696  1.0000
  H   H2183     1.0  0.73883  0.91326  0.56923  1.0000
  H   H2184     1.0  0.69194  0.90167  0.63269  1.0000
  H   H2185     1.0  0.65777  0.91950  0.61052  1.0000
  C   C1279     1.0  0.93169  0.94813  0.55443  1.0000
  C   C1280     1.0  0.94576  0.93153  0.54118  1.0000
  C   C1281     1.0  0.94098  0.92874  0.51761  1.0000
  C   C1282     1.0  0.92243  0.94280  0.50683  1.0000
  H   H2186     1.0  0.61879  0.84319  0.86792  1.0000
  H   H2187     1.0  0.70592  0.94926  0.81156  1.0000
  H   H2188     1.0  0.74657  0.75546  0.74269  1.0000
  H   H2189     1.0  0.95139  0.91524  0.50784  1.0000
  S   S371      1.0  0.93427  0.94968  0.58530  1.0000
  H   H2190     1.0  0.58057  0.91036  0.57126  1.0000
  C   C1283     1.0  0.84978  0.76832  0.68169  1.0000
  C   C1284     1.0  0.82774  0.77873  0.67472  1.0000
  C   C1285     1.0  0.82037  0.80273  0.67797  1.0000
  C   C1286     1.0  0.83523  0.81675  0.68776  1.0000
  C   C1287     1.0  0.85727  0.80631  0.69477  1.0000
  C   C1288     1.0  0.86443  0.78216  0.69198  1.0000
  H   H2191     1.0  0.81629  0.76820  0.66671  1.0000
  H   H2192     1.0  0.80342  0.81051  0.67240  1.0000
  H   H2193     1.0  0.86889  0.81699  0.70236  1.0000
  H   H2194     1.0  0.88150  0.77443  0.69731  1.0000
  C   C1289     1.0  0.85324  0.92959  0.51374  1.0000
  H   H2195     1.0  0.70157  0.84090  0.86657  1.0000
  S   S372      1.0  0.68234  0.94690  0.91286  1.0000
  H   H2196     1.0  0.96318  0.78554  0.94865  1.0000
  H   H2197     1.0  0.74672  0.94435  0.85269  1.0000
  C   C1290     1.0  0.81574  0.92650  0.53846  1.0000
  H   H2198     1.0  0.81416  0.82784  0.74271  1.0000
  S   S373      1.0  0.71842  0.75036  0.89559  1.0000
  H   H2199     1.0  0.60511  0.90850  0.60300  1.0000
  H   H2200     1.0  0.78148  0.92661  0.55932  1.0000
  H   H2201     1.0  0.79010  0.81834  0.72930  1.0000
  S   S374      1.0  0.97345  0.72618  0.70124  1.0000
  C   C1291     1.0  0.48709  0.75059  0.94666  1.0000
  Fe  Fe186     1.0  0.75507  0.73142  0.89524  1.0000
  H   H2202     1.0  0.75591  0.76163  0.80562  1.0000
  C   C1292     1.0  0.80008  0.81531  0.74541  1.0000
  H   H2203     1.0  0.78778  0.96887  0.79229  1.0000
  C   C1293     1.0  0.76427  0.75041  0.73342  1.0000
  H   H2204     1.0  0.71898  0.96178  0.84681  1.0000
  H   H2205     1.0  0.81002  0.72323  0.96264  1.0000
  C   C1294     1.0  0.59154  0.86785  0.55341  1.0000
  C   C1295     1.0  0.59980  0.90639  0.56571  1.0000
  C   C1296     1.0  0.81201  0.78964  0.74842  1.0000
  H   H2206     1.0  0.95117  0.76139  0.93657  1.0000
  C   C1297     1.0  0.87970  0.90651  0.55592  1.0000
  H   H2207     1.0  0.60129  0.86534  0.93867  1.0000
  H   H2208     1.0  0.48044  0.76746  0.93801  1.0000
  H   H2209     1.0  0.79209  0.77111  0.71580  1.0000
  H   H2210     1.0  0.69424  0.89070  0.91269  1.0000
  H   H2211     1.0  0.64789  0.88506  0.87160  1.0000
  N   N93       1.0  0.66637  0.85083  0.88314  1.0000
  C   C1298     1.0  0.76423  0.95220  0.62671  1.0000
  C   C1299     1.0  0.64413  0.86665  0.87799  1.0000
  C   C1300     1.0  0.67817  0.86064  0.90239  1.0000
  Fe  Fe187     1.0  0.68730  0.96072  0.94779  1.0000
  Fe  Fe188     1.0  0.62427  0.94730  0.47869  1.0000
  H   H2212     1.0  0.80047  0.94598  0.56934  1.0000
  Fe  Fe189     1.0  0.96882  0.94745  0.60348  1.0000
  Fe  Fe190     1.0  0.64491  0.94099  0.92833  1.0000
  S   S375      1.0  0.65132  0.95148  0.96426  1.0000
  S   S376      1.0  0.78263  0.72750  0.92221  1.0000
  H   H2213     1.0  0.63231  0.86869  0.89475  1.0000
  H   H2214     1.0  0.74156  0.75492  0.94428  1.0000
  S   S377      1.0  0.97351  0.93256  0.64151  1.0000
  C   C1301     1.0  0.73647  0.96790  0.48243  1.0000
  H   H2215     1.0  0.84268  0.75116  0.73333  1.0000
  H   H2216     1.0  0.63092  0.89649  0.58643  1.0000
  H   H2217     1.0  0.65019  0.81843  0.87937  1.0000
  C   C1302     1.0  0.70838  0.97217  0.66722  1.0000
  C   C1303     1.0  0.61127  0.89656  0.58876  1.0000
  H   H2218     1.0  0.82932  0.72516  0.89735  1.0000
  C   C1304     1.0  0.68351  0.84752  0.86128  1.0000
  H   H2219     1.0  0.57664  0.83743  0.54182  1.0000
  H   H2220     1.0  0.69719  0.93705  0.65926  1.0000
  H   H2221     1.0  0.60624  0.87852  0.59525  1.0000
  H   H2222     1.0  0.86390  0.90896  0.48345  1.0000
  H   H2223     1.0  0.97052  0.75637  0.96033  1.0000
  H   H2224     1.0  0.63810  0.87521  0.55526  1.0000
  H   H2225     1.0  0.59598  0.85119  0.51899  1.0000
  C   C1305     1.0  0.77968  0.77566  0.77630  1.0000
  C   C1306     1.0  0.62898  0.85812  0.85983  1.0000
  H   H2226     1.0  0.75816  0.74455  0.78058  1.0000
  H   H2227     1.0  0.64467  0.82876  0.90829  1.0000
  H   H2228     1.0  0.78981  0.78362  0.78899  1.0000
  H   H2229     1.0  0.76488  0.78928  0.77201  1.0000
  H   H2230     1.0  0.88964  0.91350  0.53935  1.0000
  C   C1307     1.0  0.75481  0.75123  0.95697  1.0000
  H   H2231     1.0  0.73882  0.97198  0.86502  1.0000
  C   C1308     1.0  0.90923  0.96025  0.51972  1.0000
  C   C1309     1.0  0.79339  0.73343  0.96735  1.0000
  H   H2232     1.0  0.70087  0.93969  0.68985  1.0000
  C   C1310     1.0  0.65856  0.82683  0.89304  1.0000
  H   H2233     1.0  0.70239  0.88506  0.88247  1.0000
  H   H2234     1.0  0.79982  0.73194  0.76383  1.0000
  H   H2235     1.0  0.63845  0.90216  0.53652  1.0000
  C   C1311     1.0  0.81060  0.74711  0.75834  1.0000
  H   H2236     1.0  0.63976  0.85281  0.84349  1.0000
  H   H2237     1.0  0.73503  0.93538  0.77277  1.0000
  H   H2238     1.0  0.74054  0.93258  0.81699  1.0000
  H   H2239     1.0  0.95999  0.80981  0.70032  1.0000
  H   H2240     1.0  0.83987  0.95018  0.56910  1.0000
  H   H2241     1.0  0.67670  0.86780  0.82708  1.0000
  H   H2242     1.0  0.75405  0.91059  0.78351  1.0000
  H   H2243     1.0  0.77392  0.96840  0.62419  1.0000
  H   H2244     1.0  0.77123  0.93478  0.81066  1.0000
  S   S378      1.0  0.91556  0.93708  0.47793  1.0000
  C   C1312     1.0  0.85252  0.90775  0.55426  1.0000
  H   H2245     1.0  0.48708  0.95828  0.96012  1.0000
  C   C1313     1.0  0.67829  0.80813  0.90167  1.0000
  H   H2246     1.0  0.76708  0.93494  0.76681  1.0000
  C   C1314     1.0  0.73804  0.96253  0.84885  1.0000
  H   H2247     1.0  0.68444  0.81222  0.91873  1.0000
  H   H2248     1.0  0.86563  0.95272  0.54938  1.0000
  C   C1315     1.0  0.92979  0.96010  0.95443  1.0000
  C   C1316     1.0  0.59300  0.90415  0.52414  1.0000
  H   H2249     1.0  0.80530  0.91401  0.57606  1.0000
  C   C1317     1.0  0.91355  0.96257  0.54347  1.0000
  H   H2250     1.0  0.88690  0.88765  0.55897  1.0000
  H   H2251     1.0  0.51794  0.95491  0.94876  1.0000
  C   C1318     1.0  0.78445  0.96266  0.70656  1.0000
  C   C1319     1.0  0.50325  0.75004  0.96393  1.0000
  C   C1320     1.0  0.78078  0.77046  0.73305  1.0000
  H   H2252     1.0  0.96921  0.96936  0.91252  1.0000
  S   S379      1.0  0.85853  0.73816  0.67689  1.0000
  H   H2253     1.0  0.83902  0.89828  0.50180  1.0000
  C   C1321     1.0  0.80026  0.92845  0.56234  1.0000
  C   C1322     1.0  0.82794  0.73951  0.73714  1.0000
  S   S380      1.0  0.90513  0.73057  0.72625  1.0000
  H   H2254     1.0  0.59362  0.89313  0.50890  1.0000
  H   H2255     1.0  0.49726  0.97057  0.93059  1.0000
  C   C1323     1.0  0.76077  0.96466  0.71621  1.0000
  N   N94       1.0  0.84196  0.92871  0.53908  1.0000
  H   H2256     1.0  0.60667  0.92398  0.55983  1.0000
  Fe  Fe191     1.0  0.49458  0.81156  0.96226  1.0000
  H   H2257     1.0  0.69405  0.84881  0.90738  1.0000
  H   H2258     1.0  0.95472  0.93201  0.94318  1.0000
  H   H2259     1.0  0.81284  0.90910  0.53223  1.0000
  S   S381      1.0  0.48593  0.82911  0.92628  1.0000
  H   H2260     1.0  0.76885  0.78723  0.73133  1.0000
  H   H2261     1.0  0.82452  0.78905  0.76255  1.0000
  H   H2262     1.0  0.84451  0.90784  0.57301  1.0000
  H   H2263     1.0  0.88392  0.91642  0.57076  1.0000
  H   H2264     1.0  0.72143  0.96421  0.49506  1.0000
  S   S382      1.0  0.76529  0.74438  0.85715  1.0000
  H   H2265     1.0  0.84273  0.94251  0.50185  1.0000
  H   H2266     1.0  0.87099  0.93650  0.51222  1.0000
  C   C1324     1.0  0.84624  0.95100  0.54982  1.0000
  H   H2267     1.0  0.63043  0.87845  0.50175  1.0000
  C   C1325     1.0  0.68636  0.86940  0.84294  1.0000
  H   H2268     1.0  0.61513  0.73771  0.88200  1.0000
  H   H2269     1.0  0.81881  0.73872  0.72082  1.0000
  C   C1326     1.0  0.68730  0.88537  0.89648  1.0000
  C   C1327     1.0  0.70388  0.96796  0.80408  1.0000
  H   H2270     1.0  0.75710  0.94902  0.60983  1.0000
  H   H2271     1.0  0.92592  0.96549  0.93570  1.0000
  H   H2272     1.0  0.95966  0.92012  0.54942  1.0000
  C   C1328     1.0  0.95574  0.76809  0.95320  1.0000
  C   C1329     1.0  0.95455  0.94626  0.95547  1.0000
  C   C1330     1.0  0.75365  0.94119  0.80401  1.0000
  H   H2273     1.0  0.78202  0.74251  0.79990  1.0000
  C   C1331     1.0  0.63785  0.87068  0.51849  1.0000
  C   C1332     1.0  0.55229  0.74635  0.91574  1.0000
  H   H2274     1.0  0.67310  0.89933  0.89166  1.0000
  H   H2275     1.0  0.56657  0.86489  0.52642  1.0000
  H   H2276     1.0  0.77158  0.73303  0.74139  1.0000
  C   C1333     1.0  0.54737  0.76472  0.89446  1.0000
  H   H2277     1.0  0.67552  0.95468  0.67663  1.0000
  C   C1334     1.0  0.58238  0.85485  0.53383  1.0000
  H   H2278     1.0  0.91044  0.73705  0.96054  1.0000
  H   H2279     1.0  0.91604  0.94822  0.96221  1.0000
  H   H2280     1.0  0.56487  0.75392  0.92608  1.0000
  H   H2281     1.0  0.77753  0.93698  0.63066  1.0000
  H   H2282     1.0  0.70539  0.86948  0.83606  1.0000
  H   H2283     1.0  0.96424  0.86256  0.70184  1.0000
  C   C1335     1.0  0.77629  0.73809  0.95071  1.0000
  Fe  Fe192     1.0  0.67491  0.96199  0.47276  1.0000
  H   H2284     1.0  0.60398  0.91895  0.51727  1.0000
  H   H2285     1.0  0.69131  0.96826  0.79014  1.0000
  H   H2286     1.0  0.56314  0.76611  0.88137  1.0000
  H   H2287     1.0  0.53179  0.76092  0.88552  1.0000
  H   H2288     1.0  0.54283  0.78249  0.90126  1.0000
  H   H2289     1.0  0.67806  0.83337  0.85112  1.0000
  H   H2290     1.0  0.69365  0.80601  0.88812  1.0000
  H   H2291     1.0  0.60382  0.85477  0.56328  1.0000
  C   C1336     1.0  0.75234  0.93029  0.78028  1.0000
  S   S383      1.0  0.51541  0.77601  0.96982  1.0000
  H   H2292     1.0  0.82138  0.74799  0.77365  1.0000
  C   C1337     1.0  0.50165  0.96729  0.94942  1.0000
  H   H2293     1.0  0.70926  0.95003  0.62276  1.0000
  C   C1338     1.0  0.97388  0.81248  0.71220  1.0000
  H   H2294     1.0  0.53568  0.74613  0.92777  1.0000
  C   C1339     1.0  0.85624  0.90583  0.50219  1.0000
  H   H2295     1.0  0.56435  0.72924  0.96066  1.0000
  C   C1340     1.0  0.76841  0.75467  0.79107  1.0000
  H   H2296     1.0  0.89510  0.97143  0.51175  1.0000
  H   H2297     1.0  0.56646  0.93181  0.53732  1.0000
  H   H2298     1.0  0.73733  0.93539  0.64970  1.0000
  H   H2299     1.0  0.75310  0.95388  0.66433  1.0000
  C   C1341     1.0  0.84893  0.72308  0.89733  1.0000
  H   H2300     1.0  0.96550  0.82725  0.72257  1.0000
  N   N95       1.0  0.75001  0.96795  0.80298  1.0000
  H   H2301     1.0  0.91851  0.77655  0.96013  1.0000
  C   C1342     1.0  0.48066  0.72919  0.93958  1.0000
  S   S384      1.0  0.61501  0.96756  0.51118  1.0000
  C   C1343     1.0  0.60412  0.73247  0.89867  1.0000
  H   H2302     1.0  0.55971  0.92007  0.51089  1.0000
  H   H2303     1.0  0.88651  0.73253  0.60002  1.0000
  C   C1344     1.0  0.75796  0.97274  0.49059  1.0000
  N   N96       1.0  0.72486  0.97271  0.64464  1.0000
  H   H2304     1.0  0.59350  0.72319  0.94528  1.0000
