data_image0
_chemical_formula_structural       C6HSH3C2HFeH3CSC2HC5H2CHSHCH3CH2CSH2CH4C6SH3FeH2CNH2C2SH3SC2H6C3H2C2H3CHCH3NH6SH2CSH4CNH2NCH10SHCFeCH2C2H4CH4CH6C2S2Fe2S2CSFeH2FeS2FeSFeHS2FeS3FeSFeHSFeS2FeS2FeSFeS3FeS2FeS2FeSFeS3FeSFeS4HCHSHC8HFeH4CH2C6H4C6H4C4H4CHCHC4H4C6H4C6H4C6H3C7H4CHFeH6FeCH4CHC2HC2HCHSH2CFeH2NH4CHNC8H21CH6CH4C2NC2HCHCH5CH3SH4CH2SH6NSC3H2C2HCH2FeH11CH2CNC8H19NC8H12SH3SHCNCSH2C2H2CH3SH2C2HCH2C2H2C2HSHFeSH3SHC2HC3H3CH4C2H2CFeH2CH5NH2FeH10C2H4SC2HCSHNHCSCHC3H3CH6NCH3C2HCH3C2HC2HCH2C2HCHNC4H2CHSH5SHCH7NCH2CH2CHC2HCH2C2H4CH4CHC3FeH3C2H5C2HC2H4CH3CHCH2NFeH3CHCHC2HCSH2C2H3CHSNCH3FeH2FeS2FeSHCS2FeS2FeS2FeSFeS3HSFe3CSFeS2H5CHC6H4C6H7C6H4CH2C2H3C7H4CHC3H2C6HCHNC8H20CSH3CH2SCHCH2CH2C2H6CNH3CSH2SH2CSH3FeC2H6SH2C2HCH2CH3CHCH2FeH4CH5C2H3SH2CHCH3CHNHCH5CHCFeCHCH2CHCSFeHC3HC2H3CH4CSNHC2HCHCH2FeH5C5H2CH4NH2CH6C3H3SC2H5CH5NH2FeH2CSNSFeS2FeS2FeSFeS3FeS2NSFeCFeSHSH6FeS2H3FeSH2SH2CSFeS2FeS2Fe2S3FeC2H2C6H5CHCH2CH2C5H2NH2SC7H4C6H4C6H4C4HCHCHFeHCH2C6H5CH2C2H3SH2SH2CHC3H7CH3N2C8H21CH7CHSH4NC2H3C2H2CH2CH3CNHC3SHC2HCH3CHCHC2HCSHC2HCH2C2H2SC3HC2H2SH4CNC9H2SH4SH4NFeH6NC8H18C2FeC2H6FeHCH2CH3CH2CH3C2HS2H2CHC2HCHCH4CH6CH3C3H3CH7CHC2H4SH5SFeSFeS2FeHFeS3FeS2FeS2FeSFeS3FeS2FeS2FeSFeS3HSHSHSHFeSH3FeHFeSHSNH2CHSCHFeSCHFeS2FeS2FeSFeS3HC6H4C6HCH3FeC2HSH3CHC4H2C6H4C6SH5CH4C6H4C6H4C3H2C6H4C6H8CNC8H4CH10C2H3NFeC3HC3H9CFeH9NC8H22SH2NH3FeHCH2CHNCH2NH5CH7CHCHC4H6SNSHNC5HC2H11CHCH8CH2CH2CHNH5C2H2C3H6CHNH6CHC2H3CH4CH4CH2CH2CHCHC3HCNH3C2H5SHC3H2SHC2H3CS2CH4CSHFeH3CHCH5CSH2SCHCHC2HC2HCHCH2CH2CH2CH2CH3SH3CHFeHCH2SH6C2HCH2FeSCHCHSH2C2HCH2CHC2HSC3FeCHC2HCHSC2NH2SH2SH2CFeSHSHC2SH2C4H3C4H3CH2C2H2C3SC2H2CH3CHCHC2SHCFeH9CH2C2HCHNCH4CHNHCH9CHCFeH6NH3C2H2CHC3H11C3H6CH5C2H3CH5CHCH2C2H3CHNHSH9FeCH3C2H3CHCHSCHCSH2SNCH2CH2CSFeSFeS4FeS2FeSFeSFeS3FeS2FeS2FeHFeS3FeS2FeS2FeSFeS3CSH2SHFeCFeSH2FeCSFeHSHFeCS2HCFeS2FeSHS3HFeHSFeCSHFeHS2CHFeC2HNC2H2CHNC6H5C6H5CHC2H4CH2CH2C2HC8H4C6HCH5CHSNC8H4C6H2SHC6H4C2H2C6H4C6H2FeHC6H4C3H2C2H2C2H3CFeH10CH2SHCH3CHCHSH4FeNC5HC2H8CH11NC5H8C2H3SH5CNC8H20CH2CH3CH4C2H2CSH5SCH4NC8H20CHCHC2H3SCH3SH5FeHCNC2H9C2HCH3CS2H2S2C2H5FeC2H2C2H2CH2SH3SH5CH3C2H2C4HFeCH11CH2CNHSH4CH2C3H3C3H2FeCH3CH7NH4SHNH7CHCH5CHC5H3FeHNH3CH3SC3H2C2HC4H6CH8C3H5CH2NCH3FeCH3SCHSCHCH2FeS2FeS2FeSFeS3FeS2FeS2Fe2S3H2SH3SH5SHCHNFeCHCSHSH2CH2C6H4C3HC2H4CH3C3H2C6H4CSCFeSC3H5NHC4HCSCH2CHC2HC2H4SH5C2SHCH2CH2C2HCSHNSH2CHC2H2CHCHCHCNH5CH3FeCHC2H2CH4NH2CH11CHFeC2H2CH11CHCHC3NC8H19CNC8H3C2H2C2H5CH2C3H5CHCH5FeHCHCH2CHNH2SCH4CH3CH3CH2CHC2H6CH5S2H2C2HCHNHCHCHCHCH2CFeS2FeHSFeH2S3CHCH4FeS2FeS2FeSHS2C3H2SH2CH4CH4CH7CHNH6CH2C6H4C6H4C2HSCH2C2FeC3HC2H4C2H2C7H5CHFeCH4FeC2H4C2HC3HS2H2SH3CHC2H4CNCNC8H14CH5SHCH2C2FeH2CSH2C2H2FeHCH2SH2CHCHC2HCH2SH2C2H3CHFeH2SHNH2CH2CFeNC8H19NCNCHCHSC2H3S2HNHC2H2NHSH4CSCS2HFeS2FeS2FeSFeS3FeS2CSFeSFeS3FeS2FeS2FeSFeS3FeS2FeSCFeSFeS3FeHSFeHSFeH2S2H4C2H3CFeHCHCSHC2SHCHCHC2HC2HC2H2C2HCH2C6H4C6H4C2HCNC6H4C6H4C6H4C6H4C6H4C7H4C2HC3H3SH2C6H4C2H6CH4SFeH5CH4NC8H21NHFeC3H3C2NCNH3CH2CHCHFeH3NC8H10CH2FeH11CHC2H5CSC3H2CHCH4C3NCSCHCHCH3CH8CHCH6SH3SHC2H2NH2CH4NC2HC5H4CH14CH3SCHC2NHSHCSCHFe2CHCFeCH4CH5SCH2CH2CH6SC2H2C3H2C3HSH6C2NH3CHCH2FeCH3C2H17CH9CHCH4CHCH2CH3CH2CH5C2HCHCH2C2H6CH3CHCH2NHFeS2FeS2FeSFeS3FeSHFeS2FeSFeS5Fe2S2FeSHFeS2FeSFeHS2FeSFeHSH2S4H2FeCFeSFeS3H2CSHCH4C6H8C2HC6H4C3H2C2H4C7H3C6H4C6H4C6H4C6H4C6H4C2HNC5H10C3H8CH3C3H3CH2SHNCFe2H4CNH2SCH2CH4CH6FeHC5H2CHFeHSH2C2HFeCHC2H2SC2SHCH3CHCHSCHCH2C2HC5HCH3CH5CH3SH8SH2CHNCHCHC2H10C2HNC6HCHCH2CHCH5CH3NCH4CHCHCHSHFeHC2H4CFeH2SH6NC8H22C3H2FeH3CFeHNH2SH2CFeHC2H3CHCSH2CNC3H2NHCH2CH4SHC2H3CH9CHNCH4CHCH2CSHCHCH2SH2C2SHSC2HCFeSH3CHC2H6SHCSHCFeHCHCH7CH6CH7CH3C4HCH3CH2NH2SHFeS2FeCSH4SHCH2CSH2SHC6H4CH2CHSHCHC2H11CHC3HCNH3CNHC2H2C2H5CHCHC3HSH6CH3CHCH2CH2CH2CFeHCHC5HCH6CH2CHS2CH2CH6CHNCHC3H5CH2NHFeC7FeS2CHCSCHFeS2FeS2FeSFeS2CHSFeS2H2NHFeHS2FeS2FeS2FeSFeS3HC2SH2SCH4C7H4C6H4CHC2SC2HC4H3C6H4C3H2C2SHC6H4C6H6C2H6CH2FeHCH2NC8H21C2H8CH2CHNH2C2H2NH3CH5C2HNHC2HCH2CFeH4CH2CHCH2NH2CHFeC4H4CHNC8H12NH3FeH9CH3CHSH4NCHCH7CH2CH4CFeCSH4CH2S2H3CH4CHC2SH2CH4CH2CH3CHCH5CH3NH2SHC2SH3C2HNH5FeH2CH3CHCSH3CSFeS3HSFeS3H2NHFeSCSFeS2FeS2FeSFeS3C2HS2CFeSHC3H4C6H4C6H6FeC6H4C4HSHC6H4C6H4CHSH9CFeH7CH2C2H4CH3C2H2CH3C3H2FeCSFeCH2SHCH4CHCH4CH3SH2CHCHCHCSHNCH2SH2CSCFeHNCHCSH2CNC2HC2FeH2NHC3H5CH2CH6CFeCFeNCFeH2CHFeH3C2H2CHC2HSH2CHSH6SCH2CH5CH2C4HFeHCHFeH4CH2CSHCS2HCHCHNC2HC4H6CH2CHCH4CH6C3H2CHCH6CHC2HCHCHCHSFeS3FeS2FeS2FeSFeS3H5C6H4C6H5CHCH2C3S2H6NHC3NH6CHCNCH4CH2FeH5CH4CHSC2SHCHCSH2CHCH3CFeHCHCH4NC8H23CHCHCSCHCH5CFeS2FeS2FeSFeS2CS2FeSFeS2FeSHFeS2Fe2CS2FeS2FeS2FeSFeS3FeS2FeS2FeSFeS3FeS2FeS2FeSFeHS2HS2H2CFeHSH3C6H4C6H7CH2C2HC6H4C6H4C6H4C6H4SC2H2C6H5C4HCHC6H4NFeHCH3CH4CNH2CH2NC5HC2H18CH3CHC2H4CH2SH3CH2C4H8SH4CH3C3H4CFeC2H3CH2CHNCH2SH5C3H3CH3CH5NS2NC7H16CHNHC2H12C2H15SH3C2H5C2H5FeC2HC2H2NCH3CH3CH2C3HCHCH3CSH3CSHCHSC2NHCH3CH2CHCH2CH3CH2SHCH4C3H2CH3CH4CH3CSH2NHCH2C2H3CHCH3CH2FeHCHC2H3C2H3NH2CHCHC3H2CH4CH3CH3C2H3CH3CHCH2NHC2HNCH2C2HCHCHCFeH6NCH2CSHCHCHCH2FeNHCSH3CSFeHSFeS2Fe2S3FeSHFeS2FeSHSFeHFeS2FeS2FeSFeS3HSHCSCFeSH4FeS2FeS2FeSFeS3FeS2FeSFeSFeS4H2FeS3CH4SC2H3C6H5C2H6SC6H9C2HN2SC6H4C6H4C6H6SC6H4C3H2CH4C6H5NC5H2C8SH6CHCH2CHCH5CHCH8SCH3CH2CH2C2H3CH2CHC3H8CNC7H17NC8H21CHCHC3H3NCH9CHNC4H3CH3NC4HNHNHNH3CHC2H2FeCH10CHC3HCH4CH2CHSH3C2FeSH2CHCHCHC2HCH2FeHCH3CHNH4CHCSCH7CSCH2CHC4HCHSHCHC3H4C2H3NCH2SHCSHFeH4FeHC3HNH5SCH3C2H3S2HCH2FeH3C2H2CHCHSHCH2NCSHCH3CH3C4HFe2SCH5CHCHCH4CH3C2H7CSHCH2CHCHC2HCH4CHC2H2CH3CH6CH5CH7FeC3H2CHCH5SHCH3CSFeCH2CH3SCHCNH2SCH2SHC2HCSHFe2HC3H4CH2CH5CH8CH2SH4C2H2CHCHC2H4CH2CH2C2HCH2CHSH4CNH2FeSHFeS2FeSFeS3CFeSFeS2FeSFeS3CS2CSH3NH6CHCHCH3SC3HC2HCH2C6H5SC2H3C6H4C6H4C3H3NC3H5CHCHCFeNCHCSC3FeH2CH2C3H2CH3C2HNH6CHC2HC3HCH3CH5NC5HC2H12CH7NC6HCH15CH5CH11SHC2H2C2H2CH2C2H4CHCHSHCH3CH3SHC3H2CHC2HSC3H3CH5FeH2CHCH3C2H3SHNHCH5CHCFeS2FeS2FeSHSCFeSHFeS2FeSFeS3HCSCSHCH5NH2CH5C2H2C4HC2H5C4HFeH2C6H4C6H6CH6NFeH3CH3CH2C2HCHCHCH2CHNHCHCHC2H2CHCHFeHSCH2CHSH3CH2CHC2HC2SHCH2CHCH6C7H2SH7CHCHCH4C3HFeHNH2CH2CH2CH4C2HSHSHSHCH3CH3FeH5CFeHCH2C2SHSCHNCHCHCHCHCH5CHCH2CH3CH2SCHC2NH2CH2CHCH2CSH7CH2NHCH2NH2SFeH3CHCHFeH3FeS2FeS2Fe2HS2H4CHFeCFeH4S2HCH3CSFeS2FeS2FeSFeS3FeSHFeS2FeSFeS3FeS2FeS2Fe2S3FeS2FeS2FeSFeS3HFeS2FeS2C2HNSC7H4C6H4C6H4C4HC4HCH2CHC6H4C6H4C6H4CHC2H3C3H4CH3CSFeH2NC3H3C6H5C3H7C6H3CNC8H22CH2C3H2CH2SH2C2FeCH3CH3CHNC8H20NC8H20NC7H17NH3CH2SH2CHC2HCNH3SHCH2C3HFeHFeCHCH2CFeC4HSHC2H2CHC2NCH2SHCSHC2H3CHSH3SCH3CH4CH4CH2SCSH2CNH5SH6C2HNH6C2H5CH2CNC2H2CHCH4C4HC2HCHCH3CH2C5H5C2H2CH2FeH3CHCHCH3CSH2SC2H4CHC2H2SH2CH6CHCH8SC2H4CH8C2HCH6CH
_chemical_formula_sum              "C2688 H4608 S768 Fe384 N192"
_cell_length_a       79.1855
_cell_length_b       79.3334
_cell_length_c       79.3707
_cell_angle_alpha    74.6789
_cell_angle_beta     74.7282
_cell_angle_gamma    74.621

_space_group_name_H-M_alt    "P 1"
_space_group_IT_number       1

loop_
  _space_group_symop_operation_xyz
  'x, y, z'

loop_
  _atom_site_type_symbol
  _atom_site_label
  _atom_site_symmetry_multiplicity
  _atom_site_fract_x
  _atom_site_fract_y
  _atom_site_fract_z
  _atom_site_occupancy
  C   C1        1.0  0.03157  0.25695  0.13359  1.0000
  C   C2        1.0  0.01812  0.23034  0.10376  1.0000
  C   C3        1.0  0.05479  0.02674  0.34654  1.0000
  C   C4        1.0  0.17097  0.01334  0.29991  1.0000
  C   C5        1.0  0.02454  0.11687  0.36533  1.0000
  C   C6        1.0  0.14935  0.00855  0.26306  1.0000
  H   H1        1.0  0.12999  0.00149  0.37067  1.0000
  S   S1        1.0  0.00738  0.32251  0.04577  1.0000
  H   H2        1.0  0.14697  0.03408  0.29739  1.0000
  H   H3        1.0  0.04072  0.04830  0.38840  1.0000
  H   H4        1.0  0.22016  0.00864  0.25357  1.0000
  C   C7        1.0  0.03616  0.28158  0.14489  1.0000
  C   C8        1.0  0.06788  0.30108  0.02379  1.0000
  H   H5        1.0  0.02450  0.28502  0.10543  1.0000
  Fe  Fe1       1.0  0.01933  0.30456  0.06857  1.0000
  H   H6        1.0  0.01819  0.24654  0.16151  1.0000
  H   H7        1.0  0.04362  0.07858  0.38863  1.0000
  H   H8        1.0  0.12786  0.00225  0.23891  1.0000
  C   C9        1.0  0.14063  0.99797  0.37797  1.0000
  S   S2        1.0  0.03019  0.27518  0.06965  1.0000
  C   C10       1.0  0.01849  0.09439  0.33718  1.0000
  C   C11       1.0  0.04964  0.29901  0.02191  1.0000
  H   H9        1.0  0.05171  0.10191  0.36438  1.0000
  C   C12       1.0  0.05847  0.26871  0.01652  1.0000
  C   C13       1.0  0.13695  0.00113  0.39527  1.0000
  C   C14       1.0  0.05941  0.07394  0.33541  1.0000
  C   C15       1.0  0.05288  0.07095  0.35582  1.0000
  C   C16       1.0  0.16164  0.03311  0.29475  1.0000
  H   H10       1.0  0.12349  0.00706  0.40132  1.0000
  H   H11       1.0  0.03036  0.09947  0.32889  1.0000
  C   C17       1.0  0.03265  0.28645  0.11424  1.0000
  H   H12       1.0  0.02389  0.05714  0.40544  1.0000
  S   S3        1.0  0.07284  0.01866  0.35750  1.0000
  H   H13       1.0  0.00630  0.24771  0.14470  1.0000
  C   C18       1.0  0.21761  0.00618  0.26839  1.0000
  H   H14       1.0  0.04972  0.07149  0.32894  1.0000
  H   H15       1.0  0.01771  0.05669  0.38556  1.0000
  H   H16       1.0  0.03911  0.23737  0.08140  1.0000
  C   C19       1.0  0.02041  0.08321  0.35606  1.0000
  H   H17       1.0  0.02581  0.23076  0.14727  1.0000
  H   H18       1.0  0.16386  0.04141  0.30291  1.0000
  C   C20       1.0  0.03236  0.07786  0.38303  1.0000
  S   S4        1.0  0.21721  0.05460  0.48963  1.0000
  H   H19       1.0  0.01197  0.11721  0.36149  1.0000
  H   H20       1.0  0.02204  0.11538  0.38003  1.0000
  C   C21       1.0  0.21153  0.03432  0.48970  1.0000
  H   H21       1.0  0.00775  0.08786  0.36528  1.0000
  H   H22       1.0  0.07553  0.30772  0.01107  1.0000
  H   H23       1.0  0.05496  0.28803  0.09147  1.0000
  H   H24       1.0  0.05599  0.26604  0.10467  1.0000
  C   C22       1.0  0.03727  0.02956  0.35665  1.0000
  C   C23       1.0  0.02277  0.03754  0.34818  1.0000
  C   C24       1.0  0.02575  0.04303  0.32959  1.0000
  C   C25       1.0  0.04323  0.03974  0.31945  1.0000
  C   C26       1.0  0.05774  0.03158  0.32791  1.0000
  C   C27       1.0  0.02645  0.24228  0.08970  1.0000
  S   S5        1.0  0.12946  0.01761  0.27680  1.0000
  H   H25       1.0  0.04559  0.04385  0.30505  1.0000
  H   H26       1.0  0.03493  0.02561  0.37106  1.0000
  H   H27       1.0  0.07265  0.26752  0.01699  1.0000
  Fe  Fe2       1.0  0.09771  0.00455  0.34118  1.0000
  H   H28       1.0  0.02805  0.13014  0.35933  1.0000
  H   H29       1.0  0.19500  0.03595  0.29462  1.0000
  C   C28       1.0  0.24221  0.09250  0.47496  1.0000
  N   N1        1.0  0.02663  0.27683  0.13321  1.0000
  H   H30       1.0  0.09925  0.00371  0.25516  1.0000
  H   H31       1.0  0.14738  0.03138  0.24122  1.0000
  C   C29       1.0  0.17065  0.01091  0.23460  1.0000
  C   C30       1.0  0.03050  0.27477  0.16515  1.0000
  S   S6        1.0  0.14578  0.99895  0.42697  1.0000
  H   H32       1.0  0.04467  0.10706  0.34413  1.0000
  H   H33       1.0  0.05083  0.05705  0.35991  1.0000
  H   H34       1.0  0.02035  0.06921  0.35614  1.0000
  S   S7        1.0  0.00800  0.05470  0.31879  1.0000
  C   C31       1.0  0.15510  0.01827  0.24590  1.0000
  C   C32       1.0  0.04019  0.10219  0.35863  1.0000
  H   H35       1.0  0.01595  0.27920  0.17029  1.0000
  H   H36       1.0  0.19035  0.00517  0.26989  1.0000
  H   H37       1.0  0.06540  0.30986  0.03340  1.0000
  H   H38       1.0  0.03452  0.26005  0.16890  1.0000
  H   H39       1.0  0.05212  0.26437  0.03083  1.0000
  H   H40       1.0  0.20851  0.04235  0.46231  1.0000
  C   C33       1.0  0.19272  0.02145  0.32234  1.0000
  C   C34       1.0  0.20379  0.01565  0.47383  1.0000
  C   C35       1.0  0.01863  0.26052  0.08657  1.0000
  H   H41       1.0  0.23017  0.08904  0.47317  1.0000
  H   H42       1.0  0.07612  0.28814  0.02929  1.0000
  C   C36       1.0  0.01852  0.28191  0.02411  1.0000
  C   C37       1.0  0.01977  0.24503  0.14773  1.0000
  H   H43       1.0  0.04567  0.25129  0.13512  1.0000
  H   H44       1.0  0.16574  0.03880  0.28034  1.0000
  H   H45       1.0  0.06269  0.08725  0.32934  1.0000
  C   C38       1.0  0.00657  0.28298  0.13832  1.0000
  H   H46       1.0  0.02045  0.08698  0.38912  1.0000
  C   C39       1.0  0.20345  0.00173  0.48896  1.0000
  H   H47       1.0  0.01546  0.08600  0.32958  1.0000
  H   H48       1.0  0.17908  0.01901  0.32842  1.0000
  H   H49       1.0  0.03755  0.28029  0.17215  1.0000
  N   N2        1.0  0.03629  0.08373  0.36291  1.0000
  H   H50       1.0  0.07195  0.06388  0.33235  1.0000
  H   H51       1.0  0.05084  0.27632  0.14140  1.0000
  H   H52       1.0  0.22556  0.01396  0.27173  1.0000
  H   H53       1.0  0.09119  0.00434  0.27809  1.0000
  H   H54       1.0  0.03063  0.30105  0.11331  1.0000
  H   H55       1.0  0.20088  0.01397  0.46187  1.0000
  S   S8        1.0  0.00415  0.16119  0.48637  1.0000
  H   H56       1.0  0.03094  0.25434  0.12066  1.0000
  H   H57       1.0  0.03443  0.29636  0.14249  1.0000
  C   C40       1.0  0.20806  0.03177  0.47414  1.0000
  S   S9        1.0  0.12196  0.01625  0.32752  1.0000
  H   H58       1.0  0.06428  0.07088  0.36163  1.0000
  H   H59       1.0  0.17482  0.01826  0.22118  1.0000
  H   H60       1.0  0.07124  0.02959  0.32003  1.0000
  H   H61       1.0  0.01691  0.28813  0.03552  1.0000
  C   C41       1.0  0.02850  0.05888  0.39072  1.0000
  N   N3        1.0  0.19117  0.00945  0.29555  1.0000
  H   H62       1.0  0.00931  0.03947  0.35605  1.0000
  H   H63       1.0  0.16560  0.00845  0.31429  1.0000
  N   N4        1.0  0.05023  0.28776  0.00900  1.0000
  C   C42       1.0  0.05250  0.28034  0.10546  1.0000
  H   H64       1.0  0.04273  0.29357  0.03557  1.0000
  H   H65       1.0  0.05879  0.24139  0.01590  1.0000
  H   H66       1.0  0.16586  0.00581  0.29310  1.0000
  H   H67       1.0  0.06173  0.28314  0.11222  1.0000
  H   H68       1.0  0.02435  0.21627  0.10623  1.0000
  H   H69       1.0  0.00680  0.10578  0.33812  1.0000
  H   H70       1.0  0.03047  0.28368  0.99657  1.0000
  H   H71       1.0  0.19246  0.03469  0.32476  1.0000
  H   H72       1.0  0.19363  0.02648  0.26907  1.0000
  H   H73       1.0  0.02297  0.26722  0.02818  1.0000
  S   S10       1.0  0.03851  0.32146  0.06687  1.0000
  H   H74       1.0  0.04170  0.31273  0.01816  1.0000
  C   C43       1.0  0.03120  0.28989  0.00725  1.0000
  Fe  Fe3       1.0  0.12318  0.00287  0.30545  1.0000
  C   C44       1.0  0.19828  0.02188  0.30205  1.0000
  H   H75       1.0  0.04692  0.25702  0.00061  1.0000
  H   H76       1.0  0.00500  0.28445  0.02118  1.0000
  C   C45       1.0  0.19733  0.01214  0.27552  1.0000
  C   C46       1.0  0.00198  0.23657  0.11486  1.0000
  H   H77       1.0  0.00299  0.31173  0.12562  1.0000
  H   H78       1.0  0.21316  0.01861  0.29907  1.0000
  H   H79       1.0  0.00427  0.30680  0.14894  1.0000
  H   H80       1.0  0.20225  0.01102  0.32964  1.0000
  C   C47       1.0  0.00219  0.26674  0.09730  1.0000
  H   H81       1.0  0.23736  0.10398  0.48170  1.0000
  H   H82       1.0  0.07112  0.25309  0.99566  1.0000
  H   H83       1.0  0.00234  0.16975  0.33342  1.0000
  H   H84       1.0  0.02510  0.30433  0.00306  1.0000
  C   C48       1.0  0.05886  0.25447  0.00637  1.0000
  H   H85       1.0  0.00855  0.19212  0.34196  1.0000
  H   H86       1.0  0.25014  0.09663  0.46139  1.0000
  H   H87       1.0  0.02215  0.33072  0.14956  1.0000
  H   H88       1.0  0.00105  0.27564  0.15175  1.0000
  H   H89       1.0  0.02010  0.10059  0.57955  1.0000
  H   H90       1.0  0.01920  0.11935  0.54139  1.0000
  C   C49       1.0  0.18099  0.19678  0.66249  1.0000
  C   C50       1.0  0.02898  0.18615  0.66235  1.0000
  S   S11       1.0  0.13148  0.29390  0.76606  1.0000
  S   S12       1.0  0.22174  0.22347  0.58511  1.0000
  Fe  Fe4       1.0  0.21960  0.08013  0.54264  1.0000
  Fe  Fe5       1.0  0.19241  0.05623  0.55417  1.0000
  S   S13       1.0  0.18098  0.06769  0.52965  1.0000
  S   S14       1.0  0.18100  0.03404  0.57397  1.0000
  C   C51       1.0  0.18352  0.21433  0.64920  1.0000
  S   S15       1.0  0.19183  0.08276  0.55952  1.0000
  Fe  Fe6       1.0  0.20024  0.09454  0.70349  1.0000
  H   H91       1.0  0.05955  0.30961  0.98895  1.0000
  H   H92       1.0  0.16533  0.03503  0.61108  1.0000
  Fe  Fe7       1.0  0.16011  0.10880  0.70821  1.0000
  S   S16       1.0  0.16091  0.11572  0.67893  1.0000
  S   S17       1.0  0.13377  0.11509  0.72695  1.0000
  Fe  Fe8       1.0  0.17895  0.08885  0.67854  1.0000
  S   S18       1.0  0.17291  0.07630  0.65876  1.0000
  Fe  Fe9       1.0  0.18556  0.12542  0.67665  1.0000
  H   H93       1.0  0.10753  0.20733  0.55113  1.0000
  S   S19       1.0  0.17686  0.08110  0.70836  1.0000
  S   S20       1.0  0.18290  0.12140  0.70599  1.0000
  Fe  Fe10      1.0  0.08570  0.04797  0.62022  1.0000
  S   S21       1.0  0.08186  0.06257  0.64208  1.0000
  S   S22       1.0  0.09706  0.06024  0.59182  1.0000
  S   S23       1.0  0.06523  0.02847  0.66905  1.0000
  Fe  Fe11      1.0  0.05523  0.05461  0.65161  1.0000
  S   S24       1.0  0.02892  0.07164  0.66227  1.0000
  Fe  Fe12      1.0  0.09237  0.03566  0.65784  1.0000
  H   H94       1.0  0.05905  0.27717  0.97487  1.0000
  S   S25       1.0  0.05794  0.04275  0.62810  1.0000
  Fe  Fe13      1.0  0.13243  0.20953  0.64309  1.0000
  S   S26       1.0  0.10452  0.20548  0.64826  1.0000
  S   S27       1.0  0.15333  0.19226  0.62620  1.0000
  Fe  Fe14      1.0  0.12235  0.23794  0.66520  1.0000
  S   S28       1.0  0.09311  0.23710  0.67171  1.0000
  S   S29       1.0  0.13591  0.25572  0.67320  1.0000
  Fe  Fe15      1.0  0.10288  0.20735  0.67621  1.0000
  S   S30       1.0  0.08717  0.19000  0.69842  1.0000
  Fe  Fe16      1.0  0.09675  0.23522  0.64311  1.0000
  S   S31       1.0  0.07580  0.24956  0.62672  1.0000
  S   S32       1.0  0.13188  0.20815  0.67183  1.0000
  S   S33       1.0  0.12495  0.23936  0.63586  1.0000
  Fe  Fe17      1.0  0.07542  0.14983  0.59006  1.0000
  S   S34       1.0  0.05198  0.13694  0.59673  1.0000
  S   S35       1.0  0.10175  0.13376  0.59653  1.0000
  Fe  Fe18      1.0  0.05312  0.18645  0.58051  1.0000
  S   S36       1.0  0.02741  0.17674  0.58619  1.0000
  S   S37       1.0  0.05435  0.21559  0.57323  1.0000
  Fe  Fe19      1.0  0.03721  0.15938  0.61042  1.0000
  S   S38       1.0  0.01985  0.15498  0.63782  1.0000
  Fe  Fe20      1.0  0.04399  0.15489  0.57173  1.0000
  S   S39       1.0  0.03409  0.13819  0.55823  1.0000
  S   S40       1.0  0.06126  0.17071  0.60594  1.0000
  S   S41       1.0  0.06906  0.16618  0.56384  1.0000
  Fe  Fe21      1.0  0.15004  0.26730  0.76387  1.0000
  S   S42       1.0  0.14265  0.24657  0.75345  1.0000
  Fe  Fe22      1.0  0.17615  0.27486  0.78181  1.0000
  S   S43       1.0  0.20280  0.26665  0.79007  1.0000
  S   S44       1.0  0.15298  0.26098  0.79259  1.0000
  S   S45       1.0  0.17472  0.27888  0.75302  1.0000
  S   S46       1.0  0.21757  0.30385  0.89252  1.0000
  H   H95       1.0  0.08565  0.10949  0.51345  1.0000
  C   C52       1.0  0.18884  0.04485  0.62517  1.0000
  H   H96       1.0  0.08172  0.14086  0.50884  1.0000
  S   S47       1.0  0.19009  0.15150  0.65915  1.0000
  H   H97       1.0  0.09831  0.28524  0.73705  1.0000
  C   C53       1.0  0.23777  0.22230  0.93428  1.0000
  C   C54       1.0  0.00945  0.12456  0.65849  1.0000
  C   C55       1.0  0.20094  0.27228  0.81054  1.0000
  C   C56       1.0  0.18486  0.27269  0.82318  1.0000
  C   C57       1.0  0.18340  0.27715  0.83953  1.0000
  C   C58       1.0  0.19767  0.28207  0.84300  1.0000
  C   C59       1.0  0.21381  0.28165  0.83037  1.0000
  C   C60       1.0  0.21555  0.27639  0.81429  1.0000
  H   H98       1.0  0.17358  0.26932  0.82048  1.0000
  Fe  Fe23      1.0  0.18291  0.09399  0.53346  1.0000
  H   H99       1.0  0.22495  0.28528  0.83300  1.0000
  H   H100      1.0  0.22805  0.27598  0.80456  1.0000
  H   H101      1.0  0.04169  0.16429  0.68215  1.0000
  H   H102      1.0  0.06645  0.08865  0.52202  1.0000
  C   C61       1.0  0.23621  0.32587  0.77911  1.0000
  H   H103      1.0  0.02065  0.12160  0.59490  1.0000
  H   H104      1.0  0.03159  0.17118  0.53068  1.0000
  C   C62       1.0  0.13837  0.25222  0.69547  1.0000
  C   C63       1.0  0.15023  0.26054  0.69914  1.0000
  C   C64       1.0  0.15188  0.25870  0.71681  1.0000
  C   C65       1.0  0.14155  0.24867  0.73098  1.0000
  C   C66       1.0  0.13005  0.23998  0.72724  1.0000
  C   C67       1.0  0.12848  0.24171  0.70957  1.0000
  H   H105      1.0  0.15808  0.26853  0.68828  1.0000
  H   H106      1.0  0.16110  0.26508  0.71953  1.0000
  H   H107      1.0  0.12199  0.23221  0.73814  1.0000
  H   H108      1.0  0.11926  0.23530  0.70691  1.0000
  C   C68       1.0  0.07094  0.23963  0.61155  1.0000
  C   C69       1.0  0.07812  0.22168  0.61050  1.0000
  C   C70       1.0  0.07284  0.21404  0.59908  1.0000
  C   C71       1.0  0.06093  0.22447  0.58814  1.0000
  C   C72       1.0  0.05424  0.24251  0.58884  1.0000
  C   C73       1.0  0.05899  0.24996  0.60067  1.0000
  H   H109      1.0  0.08760  0.21370  0.61854  1.0000
  H   H110      1.0  0.07817  0.20021  0.59850  1.0000
  H   H111      1.0  0.04511  0.25071  0.58039  1.0000
  H   H112      1.0  0.05341  0.26385  0.60131  1.0000
  C   C74       1.0  0.02764  0.09476  0.65753  1.0000
  C   C75       1.0  0.04206  0.10225  0.64689  1.0000
  C   C76       1.0  0.04004  0.12087  0.64177  1.0000
  C   C77       1.0  0.02354  0.13201  0.64703  1.0000
  H   H113      1.0  0.15508  0.31684  0.68667  1.0000
  H   H114      1.0  0.16508  0.03064  0.65754  1.0000
  H   H115      1.0  0.05458  0.09375  0.64216  1.0000
  H   H116      1.0  0.05118  0.12660  0.63350  1.0000
  C   C78       1.0  0.13522  0.01514  0.54034  1.0000
  H   H117      1.0  0.21525  0.14279  0.56961  1.0000
  C   C79       1.0  0.15404  0.06636  0.66468  1.0000
  H   H118      1.0  0.13115  0.22197  0.57403  1.0000
  C   C80       1.0  0.01935  0.13252  0.53300  1.0000
  C   C81       1.0  0.12674  0.04698  0.67178  1.0000
  C   C82       1.0  0.13028  0.05884  0.65540  1.0000
  C   C83       1.0  0.14405  0.06830  0.65180  1.0000
  H   H119      1.0  0.14845  0.14949  0.60329  1.0000
  H   H120      1.0  0.08327  0.14340  0.69206  1.0000
  H   H121      1.0  0.12517  0.18809  0.54940  1.0000
  H   H122      1.0  0.14721  0.07686  0.63881  1.0000
  C   C84       1.0  0.12099  0.13588  0.71875  1.0000
  C   C85       1.0  0.10351  0.14134  0.72797  1.0000
  C   C86       1.0  0.09311  0.15793  0.72154  1.0000
  C   C87       1.0  0.10020  0.16913  0.70593  1.0000
  C   C88       1.0  0.11766  0.16369  0.69667  1.0000
  C   C89       1.0  0.12810  0.14714  0.70317  1.0000
  H   H123      1.0  0.09801  0.13271  0.74008  1.0000
  H   H124      1.0  0.07961  0.16214  0.72875  1.0000
  H   H125      1.0  0.12320  0.17226  0.68457  1.0000
  H   H126      1.0  0.14175  0.14330  0.69627  1.0000
  C   C90       1.0  0.15765  0.04103  0.57847  1.0000
  C   C91       1.0  0.14686  0.02898  0.58864  1.0000
  C   C92       1.0  0.12819  0.03480  0.59269  1.0000
  C   C93       1.0  0.12033  0.05267  0.58666  1.0000
  C   C94       1.0  0.13116  0.06461  0.57635  1.0000
  C   C95       1.0  0.14977  0.05882  0.57231  1.0000
  H   H127      1.0  0.15291  0.01523  0.59356  1.0000
  H   H128      1.0  0.11989  0.02540  0.60029  1.0000
  H   H129      1.0  0.12527  0.07847  0.57188  1.0000
  H   H130      1.0  0.15801  0.06826  0.56473  1.0000
  C   C96       1.0  0.14477  0.12258  0.54754  1.0000
  C   C97       1.0  0.14541  0.11106  0.56417  1.0000
  C   C98       1.0  0.13228  0.11468  0.57925  1.0000
  C   C99       1.0  0.11825  0.12963  0.57764  1.0000
  C   C100      1.0  0.11759  0.14120  0.56103  1.0000
  C   C101      1.0  0.13087  0.13771  0.54600  1.0000
  H   H131      1.0  0.15586  0.09924  0.56544  1.0000
  H   H132      1.0  0.13277  0.10562  0.59206  1.0000
  H   H133      1.0  0.10703  0.15299  0.55979  1.0000
  C   C102      1.0  0.03121  0.08341  0.61044  1.0000
  C   C103      1.0  0.20198  0.21531  0.59445  1.0000
  C   C104      1.0  0.20224  0.19716  0.59700  1.0000
  C   C105      1.0  0.18701  0.19035  0.60620  1.0000
  C   C106      1.0  0.17137  0.20169  0.61298  1.0000
  C   C107      1.0  0.17063  0.22009  0.60951  1.0000
  C   C108      1.0  0.18595  0.22691  0.60022  1.0000
  H   H134      1.0  0.21421  0.18825  0.59212  1.0000
  H   H135      1.0  0.18758  0.17617  0.60872  1.0000
  H   H136      1.0  0.15847  0.22900  0.61429  1.0000
  H   H137      1.0  0.18552  0.24106  0.59796  1.0000
  C   C109      1.0  0.20731  0.00418  0.50434  1.0000
  H   H138      1.0  0.18708  0.00094  0.62787  1.0000
  Fe  Fe24      1.0  0.24659  0.20167  0.58141  1.0000
  H   H139      1.0  0.17638  0.18863  0.65586  1.0000
  H   H140      1.0  0.12963  0.20870  0.55120  1.0000
  H   H141      1.0  0.12295  0.06014  0.64523  1.0000
  H   H142      1.0  0.25075  0.16355  0.97868  1.0000
  H   H143      1.0  0.16194  0.05055  0.49893  1.0000
  H   H144      1.0  0.19950  0.23841  0.62522  1.0000
  Fe  Fe25      1.0  0.06973  0.01703  0.64474  1.0000
  C   C110      1.0  0.22484  0.21136  0.63548  1.0000
  H   H145      1.0  0.23166  0.12033  0.52926  1.0000
  H   H146      1.0  0.00775  0.12764  0.51330  1.0000
  H   H147      1.0  0.14589  0.02698  0.50645  1.0000
  H   H148      1.0  0.18011  0.05732  0.59961  1.0000
  C   C111      1.0  0.02579  0.00186  0.65061  1.0000
  H   H149      1.0  0.11585  0.10953  0.54057  1.0000
  C   C112      1.0  0.12099  0.30773  0.68540  1.0000
  C   C113      1.0  0.16339  0.03286  0.62575  1.0000
  H   H150      1.0  0.10433  0.13896  0.51148  1.0000
  C   C114      1.0  0.01295  0.15416  0.50612  1.0000
  C   C115      1.0  0.11510  0.29827  0.83549  1.0000
  H   H151      1.0  0.23428  0.14631  0.70888  1.0000
  C   C116      1.0  0.08530  0.13187  0.53689  1.0000
  H   H152      1.0  0.24129  0.22169  0.82259  1.0000
  S   S48       1.0  0.24952  0.32613  0.87247  1.0000
  H   H153      1.0  0.16104  0.29138  0.89120  1.0000
  H   H154      1.0  0.21827  0.20482  0.62905  1.0000
  C   C117      1.0  0.24097  0.26550  0.57394  1.0000
  Fe  Fe26      1.0  0.13628  0.28857  0.79380  1.0000
  H   H155      1.0  0.21747  0.21728  0.85226  1.0000
  H   H156      1.0  0.15592  0.14030  0.58373  1.0000
  N   N5        1.0  0.19417  0.22537  0.65327  1.0000
  H   H157      1.0  0.16966  0.22200  0.64858  1.0000
  H   H158      1.0  0.10354  0.10373  0.56984  1.0000
  H   H159      1.0  0.23899  0.21861  0.92140  1.0000
  H   H160      1.0  0.05044  0.22220  0.68603  1.0000
  C   C118      1.0  0.03017  0.21176  0.62850  1.0000
  H   H161      1.0  0.16499  0.15827  0.58475  1.0000
  N   N6        1.0  0.15196  0.16720  0.73351  1.0000
  C   C119      1.0  0.15605  0.14712  0.74000  1.0000
  C   C120      1.0  0.16112  0.17103  0.71405  1.0000
  C   C121      1.0  0.13186  0.17332  0.73568  1.0000
  C   C122      1.0  0.15890  0.17535  0.74478  1.0000
  C   C123      1.0  0.14568  0.13975  0.75879  1.0000
  C   C124      1.0  0.18181  0.16675  0.71022  1.0000
  C   C125      1.0  0.12454  0.19128  0.72398  1.0000
  C   C126      1.0  0.15787  0.19571  0.73933  1.0000
  H   H162      1.0  0.15321  0.14040  0.73069  1.0000
  H   H163      1.0  0.17047  0.14188  0.74033  1.0000
  H   H164      1.0  0.15719  0.18523  0.70752  1.0000
  H   H165      1.0  0.15684  0.16351  0.70641  1.0000
  H   H166      1.0  0.12610  0.16336  0.73264  1.0000
  H   H167      1.0  0.12543  0.17411  0.74981  1.0000
  H   H168      1.0  0.15141  0.17290  0.75887  1.0000
  H   H169      1.0  0.17297  0.16860  0.74582  1.0000
  H   H170      1.0  0.15025  0.12496  0.76190  1.0000
  H   H171      1.0  0.14829  0.14486  0.76936  1.0000
  H   H172      1.0  0.13107  0.14237  0.75943  1.0000
  H   H173      1.0  0.18696  0.16868  0.69556  1.0000
  H   H174      1.0  0.18699  0.17584  0.71513  1.0000
  H   H175      1.0  0.18762  0.15275  0.71588  1.0000
  H   H176      1.0  0.12966  0.20251  0.72505  1.0000
  H   H177      1.0  0.10972  0.19465  0.72829  1.0000
  H   H178      1.0  0.12727  0.19028  0.70981  1.0000
  H   H179      1.0  0.14506  0.20303  0.74630  1.0000
  H   H180      1.0  0.15957  0.20113  0.72480  1.0000
  H   H181      1.0  0.16901  0.19887  0.74319  1.0000
  H   H182      1.0  0.09856  0.17300  0.60774  1.0000
  C   C127      1.0  0.15129  0.01904  0.63375  1.0000
  H   H183      1.0  0.19362  0.18837  0.66606  1.0000
  H   H184      1.0  0.24641  0.10283  0.63054  1.0000
  H   H185      1.0  0.03098  0.06965  0.60977  1.0000
  H   H186      1.0  0.13367  0.03639  0.69760  1.0000
  H   H187      1.0  0.06589  0.11026  0.56193  1.0000
  H   H188      1.0  0.13422  0.21414  0.59682  1.0000
  C   C128      1.0  0.05195  0.21891  0.67287  1.0000
  H   H189      1.0  0.19342  0.31940  0.92298  1.0000
  H   H190      1.0  0.20207  0.04250  0.59738  1.0000
  H   H191      1.0  0.06635  0.21319  0.66853  1.0000
  H   H192      1.0  0.15257  0.21881  0.57907  1.0000
  C   C129      1.0  0.07784  0.10829  0.52746  1.0000
  C   C130      1.0  0.23228  0.18501  0.84414  1.0000
  N   N7        1.0  0.16279  0.30864  0.91937  1.0000
  C   C131      1.0  0.17785  0.29817  0.92872  1.0000
  C   C132      1.0  0.18017  0.32213  0.81154  1.0000
  H   H193      1.0  0.03246  0.17864  0.65143  1.0000
  C   C133      1.0  0.05828  0.29141  0.97426  1.0000
  H   H194      1.0  0.06512  0.11855  0.52688  1.0000
  C   C134      1.0  0.16081  0.28365  0.90510  1.0000
  H   H195      1.0  0.17544  0.22295  0.82491  1.0000
  H   H196      1.0  0.17094  0.26096  0.64999  1.0000
  H   H197      1.0  0.17298  0.28867  0.94103  1.0000
  H   H198      1.0  0.18797  0.28957  0.92015  1.0000
  H   H199      1.0  0.23306  0.32697  0.76601  1.0000
  C   C135      1.0  0.08988  0.14245  0.51751  1.0000
  H   H200      1.0  0.19891  0.06406  0.60202  1.0000
  H   H201      1.0  0.24666  0.31349  0.78130  1.0000
  H   H202      1.0  0.04523  0.29952  0.97126  1.0000
  S   S49       1.0  0.24846  0.17216  0.58605  1.0000
  H   H203      1.0  0.14258  0.30646  0.72778  1.0000
  H   H204      1.0  0.23092  0.27722  0.52364  1.0000
  H   H205      1.0  0.22752  0.21631  0.94486  1.0000
  H   H206      1.0  0.22124  0.20262  0.79300  1.0000
  C   C136      1.0  0.12802  0.03310  0.54647  1.0000
  H   H207      1.0  0.17962  0.31610  0.94509  1.0000
  H   H208      1.0  0.24959  0.08259  0.73847  1.0000
  S   S50       1.0  0.24066  0.08603  0.55380  1.0000
  H   H209      1.0  0.08354  0.10101  0.58597  1.0000
  H   H210      1.0  0.12849  0.08040  0.53795  1.0000
  H   H211      1.0  0.15536  0.04577  0.62901  1.0000
  H   H212      1.0  0.23985  0.17095  0.84678  1.0000
  H   H213      1.0  0.18894  0.21124  0.63575  1.0000
  H   H214      1.0  0.17072  0.19921  0.67462  1.0000
  N   N8        1.0  0.21156  0.12566  0.60785  1.0000
  S   S51       1.0  0.24548  0.29243  0.85705  1.0000
  C   C137      1.0  0.19247  0.13352  0.61579  1.0000
  C   C138      1.0  0.22051  0.14053  0.59610  1.0000
  C   C139      1.0  0.21311  0.11136  0.59785  1.0000
  H   H215      1.0  0.19970  0.30020  0.93946  1.0000
  H   H216      1.0  0.11327  0.07927  0.52511  1.0000
  C   C140      1.0  0.21295  0.15120  0.57948  1.0000
  C   C141      1.0  0.19945  0.11475  0.58585  1.0000
  H   H217      1.0  0.20077  0.19552  0.82191  1.0000
  C   C142      1.0  0.21244  0.00707  0.62485  1.0000
  H   H218      1.0  0.18467  0.14095  0.60550  1.0000
  H   H219      1.0  0.19213  0.14378  0.62323  1.0000
  Fe  Fe27      1.0  0.24577  0.32144  0.84715  1.0000
  H   H220      1.0  0.07609  0.28963  0.99129  1.0000
  H   H221      1.0  0.20563  0.01714  0.65563  1.0000
  H   H222      1.0  0.22218  0.12742  0.66950  1.0000
  H   H223      1.0  0.17606  0.00841  0.65580  1.0000
  H   H224      1.0  0.09419  0.31592  0.72246  1.0000
  H   H225      1.0  0.06777  0.16239  0.66082  1.0000
  H   H226      1.0  0.15716  0.32847  0.70268  1.0000
  H   H227      1.0  0.12631  0.01514  0.53161  1.0000
  H   H228      1.0  0.02151  0.17863  0.69169  1.0000
  H   H229      1.0  0.22044  0.16201  0.57262  1.0000
  H   H230      1.0  0.21857  0.01811  0.62468  1.0000
  C   C143      1.0  0.23748  0.13245  0.71559  1.0000
  H   H231      1.0  0.20669  0.11137  0.57273  1.0000
  H   H232      1.0  0.19174  0.12857  0.58293  1.0000
  C   C144      1.0  0.15067  0.32268  0.92916  1.0000
  N   N9        1.0  0.10355  0.11287  0.67253  1.0000
  C   C145      1.0  0.11011  0.12960  0.66215  1.0000
  C   C146      1.0  0.10186  0.10207  0.66023  1.0000
  C   C147      1.0  0.11693  0.10155  0.68368  1.0000
  C   C148      1.0  0.08539  0.11823  0.68401  1.0000
  C   C149      1.0  0.12721  0.12687  0.64748  1.0000
  C   C150      1.0  0.08945  0.11177  0.64695  1.0000
  C   C151      1.0  0.11052  0.08620  0.69850  1.0000
  C   C152      1.0  0.08473  0.12888  0.69798  1.0000
  H   H233      1.0  0.09956  0.13951  0.65575  1.0000
  H   H234      1.0  0.11299  0.13649  0.67133  1.0000
  H   H235      1.0  0.09674  0.08989  0.66800  1.0000
  H   H236      1.0  0.11519  0.09694  0.65228  1.0000
  H   H237      1.0  0.12927  0.09529  0.67514  1.0000
  H   H238      1.0  0.12173  0.10976  0.69012  1.0000
  H   H239      1.0  0.07586  0.12696  0.67562  1.0000
  H   H240      1.0  0.07906  0.10653  0.69076  1.0000
  H   H241      1.0  0.12465  0.12299  0.63608  1.0000
  H   H242      1.0  0.13182  0.13969  0.64217  1.0000
  H   H243      1.0  0.13834  0.11681  0.65265  1.0000
  H   H244      1.0  0.09065  0.10296  0.63769  1.0000
  H   H245      1.0  0.07518  0.11434  0.65387  1.0000
  H   H246      1.0  0.09307  0.12437  0.63854  1.0000
  H   H247      1.0  0.09964  0.09125  0.70915  1.0000
  H   H248      1.0  0.12185  0.07837  0.70499  1.0000
  H   H249      1.0  0.10620  0.07680  0.69318  1.0000
  H   H250      1.0  0.09668  0.12437  0.70399  1.0000
  H   H251      1.0  0.07329  0.12669  0.70934  1.0000
  N   N10       1.0  0.13069  0.18374  0.58536  1.0000
  C   C153      1.0  0.12401  0.18103  0.60533  1.0000
  C   C154      1.0  0.14568  0.19373  0.58015  1.0000
  C   C155      1.0  0.13768  0.16609  0.57962  1.0000
  C   C156      1.0  0.11531  0.19410  0.57645  1.0000
  C   C157      1.0  0.11060  0.16858  0.61363  1.0000
  C   C158      1.0  0.14031  0.21323  0.58273  1.0000
  C   C159      1.0  0.15258  0.15298  0.58856  1.0000
  C   C160      1.0  0.11997  0.19974  0.55589  1.0000
  H   H252      1.0  0.13533  0.17558  0.61235  1.0000
  H   H253      1.0  0.11735  0.19402  0.60931  1.0000
  H   H254      1.0  0.15268  0.19386  0.56599  1.0000
  H   H255      1.0  0.15615  0.18682  0.58813  1.0000
  H   H256      1.0  0.12659  0.15914  0.58190  1.0000
  H   H257      1.0  0.14332  0.16806  0.56502  1.0000
  H   H258      1.0  0.10481  0.18618  0.57947  1.0000
  H   H259      1.0  0.10867  0.20645  0.58172  1.0000
  H   H260      1.0  0.11685  0.15455  0.61256  1.0000
  H   H261      1.0  0.10599  0.16865  0.62809  1.0000
  H   H262      1.0  0.08314  0.07860  0.53510  1.0000
  H   H263      1.0  0.15765  0.00603  0.62986  1.0000
  S   S52       1.0  0.16100  0.11827  0.52848  1.0000
  H   H264      1.0  0.15264  0.27356  0.90717  1.0000
  H   H265      1.0  0.18870  0.22302  0.80289  1.0000
  H   H266      1.0  0.24845  0.19207  0.81854  1.0000
  S   S53       1.0  0.22104  0.05216  0.53966  1.0000
  H   H267      1.0  0.17531  0.00099  0.56736  1.0000
  C   C161      1.0  0.01996  0.16626  0.51108  1.0000
  N   N11       1.0  0.15455  0.01128  0.53079  1.0000
  C   C162      1.0  0.23597  0.16620  0.63118  1.0000
  S   S54       1.0  0.09890  0.32916  0.92914  1.0000
  H   H268      1.0  0.13778  0.03736  0.55126  1.0000
  H   H269      1.0  0.21939  0.12440  0.70457  1.0000
  C   C163      1.0  0.11891  0.30317  0.86805  1.0000
  C   C164      1.0  0.14177  0.31563  0.94866  1.0000
  H   H270      1.0  0.18839  0.01800  0.67525  1.0000
  H   H271      1.0  0.18199  0.10866  0.62295  1.0000
  C   C165      1.0  0.14982  0.05527  0.68141  1.0000
  H   H272      1.0  0.17166  0.31898  0.82506  1.0000
  H   H273      1.0  0.06110  0.08973  0.54502  1.0000
  H   H274      1.0  0.04798  0.23169  0.66356  1.0000
  S   S55       1.0  0.22364  0.08572  0.71762  1.0000
  H   H275      1.0  0.04777  0.08578  0.58313  1.0000
  H   H276      1.0  0.06020  0.18646  0.63808  1.0000
  C   C166      1.0  0.08053  0.10461  0.55867  1.0000
  C   C167      1.0  0.19461  0.24197  0.63860  1.0000
  H   H277      1.0  0.22845  0.22355  0.62600  1.0000
  C   C168      1.0  0.21329  0.21556  0.65346  1.0000
  H   H278      1.0  0.21405  0.20269  0.66332  1.0000
  H   H279      1.0  0.18144  0.22311  0.69979  1.0000
  C   C169      1.0  0.08885  0.10834  0.57241  1.0000
  C   C170      1.0  0.02607  0.14477  0.53808  1.0000
  H   H280      1.0  0.22254  0.23893  0.84373  1.0000
  H   H281      1.0  0.16859  0.30597  0.70285  1.0000
  C   C171      1.0  0.15591  0.31559  0.70068  1.0000
  C   C172      1.0  0.04020  0.20543  0.67509  1.0000
  H   H282      1.0  0.24582  0.21793  0.77298  1.0000
  S   S56       1.0  0.09810  0.02137  0.63526  1.0000
  H   H283      1.0  0.19181  0.03830  0.66006  1.0000
  Fe  Fe28      1.0  0.21600  0.30159  0.86547  1.0000
  S   S57       1.0  0.19471  0.28902  0.86305  1.0000
  H   H284      1.0  0.14171  0.29465  0.71233  1.0000
  H   H285      1.0  0.17050  0.23350  0.67286  1.0000
  H   H286      1.0  0.17890  0.32686  0.90160  1.0000
  S   S58       1.0  0.11138  0.03293  0.67601  1.0000
  H   H287      1.0  0.21797  0.27760  0.54609  1.0000
  C   C173      1.0  0.21036  0.32628  0.73762  1.0000
  C   C174      1.0  0.21968  0.32430  0.79449  1.0000
  H   H288      1.0  0.15158  0.04962  0.52197  1.0000
  C   C175      1.0  0.24786  0.25447  0.59086  1.0000
  C   C176      1.0  0.18532  0.23106  0.67085  1.0000
  C   C177      1.0  0.13637  0.04548  0.68486  1.0000
  H   H289      1.0  0.20152  0.04296  0.62951  1.0000
  H   H290      1.0  0.12453  0.31218  0.67065  1.0000
  H   H291      1.0  0.18914  0.30942  0.80899  1.0000
  C   C178      1.0  0.19057  0.21830  0.68795  1.0000
  H   H292      1.0  0.22037  0.22353  0.65786  1.0000
  H   H293      1.0  0.22423  0.23713  0.81275  1.0000
  H   H294      1.0  0.23066  0.25897  0.57267  1.0000
  H   H295      1.0  0.24283  0.07155  0.49833  1.0000
  C   C179      1.0  0.19285  0.01311  0.62259  1.0000
  C   C180      1.0  0.19337  0.32261  0.74031  1.0000
  H   H296      1.0  0.12306  0.04385  0.53565  1.0000
  H   H297      1.0  0.02756  0.01209  0.65631  1.0000
  C   C181      1.0  0.10790  0.10451  0.53402  1.0000
  Fe  Fe29      1.0  0.15640  0.30494  0.75762  1.0000
  H   H298      1.0  0.18632  0.11489  0.64151  1.0000
  H   H299      1.0  0.18947  0.20441  0.68923  1.0000
  C   C182      1.0  0.11834  0.32367  0.69420  1.0000
  H   H300      1.0  0.09024  0.30652  0.87590  1.0000
  H   H301      1.0  0.18832  0.24403  0.67084  1.0000
  H   H302      1.0  0.08676  0.15692  0.51770  1.0000
  H   H303      1.0  0.17111  0.27692  0.84945  1.0000
  H   H304      1.0  0.15746  0.05359  0.69144  1.0000
  N   N12       1.0  0.08808  0.11185  0.53932  1.0000
  H   H305      1.0  0.14896  0.28682  0.93196  1.0000
  H   H306      1.0  0.21830  0.12680  0.63224  1.0000
  Fe  Fe30      1.0  0.20952  0.06523  0.51520  1.0000
  H   H307      1.0  0.05996  0.07933  0.60054  1.0000
  H   H308      1.0  0.04408  0.19420  0.68603  1.0000
  H   H309      1.0  0.23972  0.17723  0.62081  1.0000
  H   H310      1.0  0.10717  0.07663  0.54921  1.0000
  H   H311      1.0  0.02172  0.22368  0.65150  1.0000
  H   H312      1.0  0.21835  0.18484  0.85149  1.0000
  H   H313      1.0  0.01479  0.19344  0.66268  1.0000
  H   H314      1.0  0.04899  0.10205  0.59481  1.0000
  H   H315      1.0  0.18995  0.10560  0.59170  1.0000
  H   H316      1.0  0.21394  0.02207  0.51682  1.0000
  C   C183      1.0  0.24415  0.13788  0.65102  1.0000
  C   C184      1.0  0.20292  0.20787  0.82450  1.0000
  H   H317      1.0  0.20437  0.21833  0.68867  1.0000
  H   H318      1.0  0.23342  0.27886  0.57654  1.0000
  H   H319      1.0  0.19870  0.15788  0.58276  1.0000
  H   H320      1.0  0.23337  0.25776  0.54060  1.0000
  S   S59       1.0  0.21069  0.09302  0.51666  1.0000
  C   C185      1.0  0.18904  0.22362  0.81662  1.0000
  C   C186      1.0  0.23979  0.12185  0.53757  1.0000
  H   H321      1.0  0.17127  0.32692  0.80181  1.0000
  C   C187      1.0  0.04773  0.08817  0.59628  1.0000
  S   S60       1.0  0.20413  0.09928  0.67358  1.0000
  H   H322      1.0  0.06867  0.29594  0.96266  1.0000
  N   N13       1.0  0.22225  0.20936  0.81748  1.0000
  H   H323      1.0  0.17889  0.26703  0.62652  1.0000
  C   C188      1.0  0.15203  0.29582  0.91869  1.0000
  S   S61       1.0  0.15967  0.30186  0.78544  1.0000
  C   C189      1.0  0.18164  0.12003  0.62875  1.0000
  H   H324      1.0  0.23487  0.13527  0.59069  1.0000
  C   C190      1.0  0.23407  0.19166  0.82381  1.0000
  C   C191      1.0  0.10191  0.30405  0.86541  1.0000
  C   C192      1.0  0.17785  0.02249  0.65141  1.0000
  H   H325      1.0  0.16744  0.12697  0.63218  1.0000
  H   H326      1.0  0.06754  0.17606  0.67600  1.0000
  H   H327      1.0  0.00910  0.06042  0.63129  1.0000
  C   C193      1.0  0.21660  0.22894  0.84102  1.0000
  H   H328      1.0  0.20771  0.17713  0.63347  1.0000
  H   H329      1.0  0.06831  0.20146  0.64478  1.0000
  H   H330      1.0  0.24124  0.14907  0.52402  1.0000
  H   H331      1.0  0.13863  0.30301  0.91593  1.0000
  H   H332      1.0  0.04405  0.22440  0.63979  1.0000
  H   H333      1.0  0.17457  0.27641  0.90651  1.0000
  N   N14       1.0  0.04109  0.19919  0.65843  1.0000
  C   C194      1.0  0.03429  0.21544  0.64504  1.0000
  H   H334      1.0  0.13036  0.14669  0.53315  1.0000
  H   H335      1.0  0.23278  0.23704  0.93199  1.0000
  H   H336      1.0  0.11374  0.28504  0.71617  1.0000
  C   C195      1.0  0.05999  0.19118  0.65014  1.0000
  C   C196      1.0  0.23126  0.27248  0.53805  1.0000
  H   H337      1.0  0.08491  0.17483  0.65722  1.0000
  C   C197      1.0  0.07200  0.09018  0.53289  1.0000
  H   H338      1.0  0.03399  0.08235  0.62376  1.0000
  H   H339      1.0  0.23970  0.29251  0.54527  1.0000
  H   H340      1.0  0.22026  0.15027  0.60410  1.0000
  C   C198      1.0  0.21281  0.15216  0.65206  1.0000
  C   C199      1.0  0.21785  0.16631  0.63856  1.0000
  H   H341      1.0  0.23857  0.19275  0.84962  1.0000
  C   C200      1.0  0.07034  0.17515  0.66184  1.0000
  C   C201      1.0  0.13212  0.29728  0.83821  1.0000
  H   H342      1.0  0.21542  0.31224  0.79391  1.0000
  C   C202      1.0  0.02839  0.17223  0.68012  1.0000
  H   H343      1.0  0.23979  0.18989  0.95876  1.0000
  H   H344      1.0  0.22673  0.10866  0.58935  1.0000
  C   C203      1.0  0.19260  0.05238  0.60485  1.0000
  C   C204      1.0  0.14017  0.30832  0.71415  1.0000
  H   H345      1.0  0.22147  0.31553  0.74085  1.0000
  C   C205      1.0  0.22597  0.13821  0.65875  1.0000
  H   H346      1.0  0.17958  0.05572  0.63155  1.0000
  N   N15       1.0  0.18120  0.02819  0.63128  1.0000
  C   C206      1.0  0.24520  0.13814  0.53465  1.0000
  C   C207      1.0  0.15756  0.02403  0.51290  1.0000
  C   C208      1.0  0.02638  0.16166  0.52701  1.0000
  C   C209      1.0  0.19194  0.02409  0.66082  1.0000
  H   H347      1.0  0.07113  0.13769  0.54246  1.0000
  H   H348      1.0  0.13225  0.29670  0.68867  1.0000
  C   C210      1.0  0.01148  0.10594  0.66365  1.0000
  H   H349      1.0  0.09354  0.13530  0.54434  1.0000
  S   S62       1.0  0.12182  0.30580  0.88834  1.0000
  H   H350      1.0  0.17514  0.04008  0.51528  1.0000
  H   H351      1.0  0.08684  0.30230  0.84711  1.0000
  H   H352      1.0  0.11287  0.10968  0.51958  1.0000
  H   H353      1.0  0.16920  0.01781  0.50349  1.0000
  H   H354      1.0  0.21584  0.10541  0.63173  1.0000
  S   S63       1.0  0.11206  0.29643  0.81492  1.0000
  H   H355      1.0  0.19151  0.30907  0.74556  1.0000
  C   C211      1.0  0.01281  0.13718  0.51711  1.0000
  H   H356      1.0  0.24350  0.23435  0.88031  1.0000
  H   H357      1.0  0.01071  0.08151  0.59008  1.0000
  H   H358      1.0  0.11676  0.03169  0.55821  1.0000
  H   H359      1.0  0.23176  0.18093  0.81851  1.0000
  H   H360      1.0  0.21178  0.09843  0.60740  1.0000
  H   H361      1.0  0.08169  0.08995  0.56163  1.0000
  H   H362      1.0  0.24079  0.26274  0.88921  1.0000
  N   N16       1.0  0.12167  0.31941  0.71287  1.0000
  C   C212      1.0  0.22895  0.12004  0.71316  1.0000
  H   H363      1.0  0.13213  0.00424  0.55205  1.0000
  H   H364      1.0  0.02488  0.11384  0.61674  1.0000
  C   C213      1.0  0.13398  0.29973  0.85449  1.0000
  H   H365      1.0  0.08525  0.12269  0.57288  1.0000
  H   H366      1.0  0.22454  0.32092  0.80722  1.0000
  C   C214      1.0  0.16163  0.04207  0.51257  1.0000
  H   H367      1.0  0.13390  0.32720  0.95473  1.0000
  C   C215      1.0  0.23329  0.10195  0.72132  1.0000
  C   C216      1.0  0.17660  0.25550  0.63772  1.0000
  H   H368      1.0  0.14380  0.29472  0.82777  1.0000
  C   C217      1.0  0.22102  0.11733  0.62326  1.0000
  H   H369      1.0  0.02688  0.22468  0.61905  1.0000
  H   H370      1.0  0.13880  0.02419  0.62848  1.0000
  C   C218      1.0  0.11425  0.08405  0.53669  1.0000
  C   C219      1.0  0.24157  0.11108  0.61837  1.0000
  H   H371      1.0  0.14702  0.01709  0.64849  1.0000
  H   H372      1.0  0.13222  0.30735  0.94932  1.0000
  H   H373      1.0  0.15164  0.30797  0.95698  1.0000
  H   H374      1.0  0.10588  0.31270  0.73970  1.0000
  C   C220      1.0  0.24616  0.27913  0.54210  1.0000
  H   H375      1.0  0.02613  0.21170  0.68056  1.0000
  H   H376      1.0  0.23641  0.25449  0.60250  1.0000
  H   H377      1.0  0.23762  0.20205  0.63784  1.0000
  H   H378      1.0  0.16650  0.24983  0.63491  1.0000
  C   C221      1.0  0.10753  0.31024  0.72609  1.0000
  H   H379      1.0  0.19291  0.01600  0.60806  1.0000
  C   C222      1.0  0.22576  0.21268  0.79733  1.0000
  C   C223      1.0  0.21105  0.02043  0.50484  1.0000
  C   C224      1.0  0.16714  0.01181  0.54191  1.0000
  Fe  Fe31      1.0  0.24722  0.29741  0.88295  1.0000
  H   H380      1.0  0.18122  0.00904  0.53441  1.0000
  H   H381      1.0  0.20423  0.24942  0.63979  1.0000
  H   H382      1.0  0.23939  0.18893  0.93214  1.0000
  C   C225      1.0  0.18805  0.30930  0.93425  1.0000
  C   C226      1.0  0.24611  0.09654  0.73211  1.0000
  H   H383      1.0  0.00261  0.09074  0.63684  1.0000
  H   H384      1.0  0.14708  0.29918  0.85656  1.0000
  H   H385      1.0  0.12139  0.28299  0.73631  1.0000
  H   H386      1.0  0.00105  0.14085  0.61373  1.0000
  H   H387      1.0  0.04171  0.20339  0.62115  1.0000
  C   C227      1.0  0.10002  0.30156  0.84915  1.0000
  C   C228      1.0  0.16620  0.99861  0.56012  1.0000
  H   H388      1.0  0.02022  0.17939  0.50261  1.0000
  C   C229      1.0  0.00977  0.09552  0.59093  1.0000
  C   C230      1.0  0.11062  0.28976  0.72876  1.0000
  H   H389      1.0  0.25056  0.19647  0.97185  1.0000
  H   H390      1.0  0.14463  0.32500  0.89281  1.0000
  H   H391      1.0  0.20231  0.23525  0.84106  1.0000
  H   H392      1.0  0.16527  0.02526  0.54463  1.0000
  C   C231      1.0  0.01515  0.11458  0.60856  1.0000
  H   H393      1.0  0.02039  0.16263  0.68011  1.0000
  H   H394      1.0  0.13953  0.33010  0.92223  1.0000
  H   H395      1.0  0.01840  0.20547  0.63200  1.0000
  C   C232      1.0  0.22672  0.22441  0.82273  1.0000
  H   H396      1.0  0.19171  0.23669  0.81633  1.0000
  C   C233      1.0  0.17078  0.31777  0.90089  1.0000
  H   H397      1.0  0.21796  0.22599  0.79177  1.0000
  H   H398      1.0  0.19906  0.20640  0.83921  1.0000
  N   N17       1.0  0.01351  0.09601  0.60845  1.0000
  Fe  Fe32      1.0  0.10374  0.32884  0.90002  1.0000
  H   H399      1.0  0.18052  0.30809  0.89329  1.0000
  H   H400      1.0  0.10857  0.30244  0.68887  1.0000
  H   H401      1.0  0.22076  0.00126  0.61327  1.0000
  C   C234      1.0  0.24552  0.10738  0.55075  1.0000
  H   H402      1.0  0.24831  0.12261  0.61388  1.0000
  C   C235      1.0  0.06157  0.29484  0.99126  1.0000
  H   H403      1.0  0.24584  0.10277  0.60814  1.0000
  C   C236      1.0  0.24540  0.21253  0.78747  1.0000
  C   C237      1.0  0.24912  0.15172  0.63693  1.0000
  H   H404      1.0  0.16313  0.32831  0.87506  1.0000
  C   C238      1.0  0.15743  0.32938  0.88920  1.0000
  S   S64       1.0  0.21589  0.33038  0.85308  1.0000
  H   H405      1.0  0.15257  0.00055  0.56864  1.0000
  H   H406      1.0  0.19591  0.33047  0.77537  1.0000
  C   C239      1.0  0.25044  0.12702  0.72620  1.0000
  C   C240      1.0  0.00846  0.99915  0.65228  1.0000
  H   H407      1.0  0.24918  0.56007  0.30314  1.0000
  H   H408      1.0  0.07996  0.58633  0.02131  1.0000
  H   H409      1.0  0.21744  0.54681  0.07316  1.0000
  C   C241      1.0  0.21159  0.65766  0.18894  1.0000
  H   H410      1.0  0.09529  0.62189  0.04401  1.0000
  S   S65       1.0  0.05067  0.40782  0.10712  1.0000
  N   N18       1.0  0.10793  0.48998  0.10199  1.0000
  C   C242      1.0  0.12144  0.48305  0.11392  1.0000
  H   H411      1.0  0.16283  0.49919  0.99611  1.0000
  H   H412      1.0  0.06443  0.59858  0.03655  1.0000
  H   H413      1.0  0.18700  0.62864  0.16425  1.0000
  Fe  Fe33      1.0  0.23689  0.56901  0.22940  1.0000
  H   H414      1.0  0.23386  0.62585  0.05755  1.0000
  H   H415      1.0  0.06724  0.40761  0.01352  1.0000
  Fe  Fe34      1.0  0.20706  0.59595  0.21390  1.0000
  S   S66       1.0  0.21368  0.58559  0.18888  1.0000
  S   S67       1.0  0.18380  0.61918  0.21568  1.0000
  Fe  Fe35      1.0  0.21626  0.55860  0.20689  1.0000
  S   S68       1.0  0.20634  0.53839  0.19844  1.0000
  H   H416      1.0  0.14676  0.63327  0.17624  1.0000
  C   C243      1.0  0.08728  0.58280  0.06031  1.0000
  S   S69       1.0  0.20765  0.56901  0.23232  1.0000
  S   S70       1.0  0.23536  0.59683  0.21289  1.0000
  Fe  Fe36      1.0  0.11704  0.53988  0.17267  1.0000
  S   S71       1.0  0.12270  0.51314  0.16524  1.0000
  S   S72       1.0  0.12508  0.54750  0.19458  1.0000
  Fe  Fe37      1.0  0.09555  0.55837  0.14401  1.0000
  S   S73       1.0  0.09943  0.53358  0.13383  1.0000
  S   S74       1.0  0.07887  0.58420  0.13184  1.0000
  Fe  Fe38      1.0  0.09394  0.51988  0.16252  1.0000
  S   S75       1.0  0.07841  0.49771  0.17177  1.0000
  Fe  Fe39      1.0  0.12770  0.52850  0.13702  1.0000
  S   S76       1.0  0.15013  0.51635  0.11690  1.0000
  S   S77       1.0  0.08760  0.54520  0.17273  1.0000
  S   S78       1.0  0.12454  0.55469  0.14458  1.0000
  H   H417      1.0  0.08586  0.63342  0.02519  1.0000
  S   S79       1.0  0.12546  0.61978  0.06091  1.0000
  Fe  Fe40      1.0  0.01978  0.46775  0.12284  1.0000
  Fe  Fe41      1.0  0.23609  0.66089  0.08636  1.0000
  Fe  Fe42      1.0  0.17076  0.56381  0.02220  1.0000
  C   C244      1.0  0.22956  0.63338  0.12605  1.0000
  S   S80       1.0  0.14394  0.55999  0.03921  1.0000
  Fe  Fe43      1.0  0.20699  0.57133  0.02043  1.0000
  S   S81       1.0  0.17991  0.58901  0.01931  1.0000
  S   S82       1.0  0.19724  0.54568  0.02549  1.0000
  H   H418      1.0  0.10527  0.57707  0.03599  1.0000
  H   H419      1.0  0.16783  0.60681  0.12397  1.0000
  H   H420      1.0  0.15253  0.56786  0.10816  1.0000
  H   H421      1.0  0.00780  0.54210  0.07387  1.0000
  H   H422      1.0  0.09342  0.66113  0.10399  1.0000
  C   C245      1.0  0.20203  0.52636  0.08197  1.0000
  H   H423      1.0  0.16763  0.65820  0.25782  1.0000
  C   C246      1.0  0.09096  0.59326  0.11106  1.0000
  C   C247      1.0  0.10886  0.58536  0.10553  1.0000
  C   C248      1.0  0.11919  0.59337  0.08982  1.0000
  C   C249      1.0  0.11168  0.60944  0.07961  1.0000
  C   C250      1.0  0.09353  0.61709  0.08469  1.0000
  C   C251      1.0  0.08311  0.60893  0.10040  1.0000
  H   H424      1.0  0.11486  0.57318  0.11345  1.0000
  H   H425      1.0  0.13305  0.58716  0.08567  1.0000
  H   H426      1.0  0.08747  0.62914  0.07653  1.0000
  H   H427      1.0  0.06912  0.61489  0.10446  1.0000
  C   C252      1.0  0.14806  0.52775  0.09518  1.0000
  C   C253      1.0  0.13427  0.54268  0.09255  1.0000
  C   C254      1.0  0.13294  0.55232  0.07528  1.0000
  C   C255      1.0  0.14557  0.54721  0.06056  1.0000
  C   C256      1.0  0.15928  0.53206  0.06310  1.0000
  C   C257      1.0  0.16041  0.52222  0.08044  1.0000
  H   H428      1.0  0.12474  0.54697  0.10384  1.0000
  H   H429      1.0  0.12250  0.56413  0.07336  1.0000
  H   H430      1.0  0.16887  0.52786  0.05171  1.0000
  H   H431      1.0  0.17093  0.51044  0.08242  1.0000
  H   H432      1.0  0.06536  0.63721  0.05375  1.0000
  H   H433      1.0  0.17482  0.64164  0.04764  1.0000
  H   H434      1.0  0.12893  0.46925  0.11260  1.0000
  C   C258      1.0  0.14785  0.54596  0.19433  1.0000
  C   C259      1.0  0.15216  0.55516  0.20499  1.0000
  C   C260      1.0  0.17010  0.55358  0.20575  1.0000
  C   C261      1.0  0.18385  0.54229  0.19630  1.0000
  C   C262      1.0  0.17954  0.53317  0.18556  1.0000
  C   C263      1.0  0.16164  0.53518  0.18437  1.0000
  H   H435      1.0  0.14156  0.56340  0.21285  1.0000
  H   H436      1.0  0.17325  0.56054  0.21418  1.0000
  H   H437      1.0  0.19010  0.52436  0.17828  1.0000
  H   H438      1.0  0.15849  0.52795  0.17619  1.0000
  C   C264      1.0  0.19015  0.63835  0.20131  1.0000
  H   H439      1.0  0.16420  0.61898  0.18674  1.0000
  H   H440      1.0  0.21236  0.64169  0.14967  1.0000
  C   C265      1.0  0.20715  0.64161  0.19949  1.0000
  C   C266      1.0  0.23336  0.61913  0.15629  1.0000
  H   H441      1.0  0.08780  0.51376  0.07848  1.0000
  H   H442      1.0  0.21653  0.63222  0.20692  1.0000
  H   H443      1.0  0.16793  0.57965  0.11099  1.0000
  C   C267      1.0  0.04405  0.49321  0.13514  1.0000
  C   C268      1.0  0.05009  0.50899  0.13261  1.0000
  C   C269      1.0  0.06055  0.51049  0.14378  1.0000
  C   C270      1.0  0.06517  0.49617  0.15758  1.0000
  C   C271      1.0  0.05914  0.48035  0.16012  1.0000
  C   C272      1.0  0.04867  0.47884  0.14891  1.0000
  C   C273      1.0  0.09947  0.58894  0.04226  1.0000
  H   H444      1.0  0.06475  0.52287  0.14190  1.0000
  H   H445      1.0  0.06256  0.46922  0.17080  1.0000
  H   H446      1.0  0.04410  0.46660  0.15101  1.0000
  H   H447      1.0  0.13175  0.49136  0.10989  1.0000
  C   C274      1.0  0.07313  0.39339  0.01304  1.0000
  H   H448      1.0  0.09425  0.56971  0.06710  1.0000
  C   C275      1.0  0.15572  0.61979  0.17720  1.0000
  C   C276      1.0  0.17015  0.65041  0.14932  1.0000
  C   C277      1.0  0.06774  0.61297  0.00940  1.0000
  H   H449      1.0  0.08623  0.48113  0.12287  1.0000
  H   H450      1.0  0.13153  0.59594  0.01917  1.0000
  C   C278      1.0  0.23953  0.57262  0.29954  1.0000
  C   C279      1.0  0.03000  0.35892  0.10823  1.0000
  C   C280      1.0  0.04527  0.35702  0.11485  1.0000
  C   C281      1.0  0.05184  0.37207  0.11388  1.0000
  C   C282      1.0  0.04277  0.38918  0.10694  1.0000
  C   C283      1.0  0.02739  0.39114  0.10039  1.0000
  H   H451      1.0  0.06675  0.38530  0.02567  1.0000
  C   C284      1.0  0.02946  0.34503  0.99727  1.0000
  H   H452      1.0  0.06370  0.37052  0.11894  1.0000
  N   N19       1.0  0.10602  0.49357  0.22123  1.0000
  C   C285      1.0  0.09019  0.50464  0.21323  1.0000
  C   C286      1.0  0.11401  0.47799  0.21206  1.0000
  C   C287      1.0  0.11955  0.50517  0.21701  1.0000
  C   C288      1.0  0.09970  0.48788  0.24118  1.0000
  C   C289      1.0  0.08112  0.52241  0.21941  1.0000
  C   C290      1.0  0.10084  0.46653  0.21244  1.0000
  C   C291      1.0  0.13742  0.49655  0.22303  1.0000
  C   C292      1.0  0.11043  0.47032  0.25071  1.0000
  H   H453      1.0  0.09409  0.50791  0.19838  1.0000
  H   H454      1.0  0.07940  0.49703  0.21632  1.0000
  H   H455      1.0  0.12532  0.46880  0.21774  1.0000
  H   H456      1.0  0.11997  0.48276  0.19774  1.0000
  H   H457      1.0  0.12290  0.51051  0.20237  1.0000
  H   H458      1.0  0.11401  0.51705  0.22324  1.0000
  H   H459      1.0  0.09938  0.49859  0.24803  1.0000
  H   H460      1.0  0.08559  0.48613  0.24454  1.0000
  H   H461      1.0  0.06834  0.52794  0.21466  1.0000
  H   H462      1.0  0.07785  0.52062  0.23415  1.0000
  H   H463      1.0  0.08944  0.53263  0.21340  1.0000
  H   H464      1.0  0.10849  0.45350  0.20909  1.0000
  H   H465      1.0  0.09177  0.46385  0.22565  1.0000
  H   H466      1.0  0.09263  0.47313  0.20218  1.0000
  H   H467      1.0  0.13561  0.49441  0.23772  1.0000
  H   H468      1.0  0.14654  0.50610  0.21725  1.0000
  H   H469      1.0  0.14441  0.48412  0.21821  1.0000
  H   H470      1.0  0.10834  0.45844  0.24731  1.0000
  H   H471      1.0  0.10555  0.46894  0.26538  1.0000
  H   H472      1.0  0.12494  0.46985  0.24790  1.0000
  C   C293      1.0  0.05169  0.63706  0.13568  1.0000
  S   S83       1.0  0.02456  0.45801  0.09750  1.0000
  H   H473      1.0  0.07887  0.53006  0.09188  1.0000
  H   H474      1.0  0.10502  0.49523  0.13667  1.0000
  H   H475      1.0  0.08555  0.62155  0.12803  1.0000
  C   C294      1.0  0.24725  0.58946  0.29590  1.0000
  H   H476      1.0  0.17196  0.55542  0.07636  1.0000
  H   H477      1.0  0.21522  0.58132  0.10431  1.0000
  S   S84       1.0  0.03108  0.49205  0.12053  1.0000
  C   C295      1.0  0.14345  0.60631  0.18646  1.0000
  H   H478      1.0  0.21719  0.60237  0.06117  1.0000
  C   C296      1.0  0.19602  0.59435  0.14810  1.0000
  H   H479      1.0  0.19461  0.59881  0.13405  1.0000
  H   H480      1.0  0.20142  0.57967  0.15050  1.0000
  C   C297      1.0  0.20727  0.54247  0.08519  1.0000
  H   H481      1.0  0.05212  0.64060  0.12114  1.0000
  H   H482      1.0  0.21446  0.53704  0.09639  1.0000
  C   C298      1.0  0.23088  0.59490  0.03601  1.0000
  C   C299      1.0  0.08556  0.62147  0.03634  1.0000
  H   H483      1.0  0.06403  0.61425  0.05973  1.0000
  H   H484      1.0  0.07038  0.49622  0.09864  1.0000
  H   H485      1.0  0.19211  0.62755  0.03514  1.0000
  H   H486      1.0  0.08436  0.48054  0.08475  1.0000
  H   H487      1.0  0.01920  0.38008  0.14037  1.0000
  H   H488      1.0  0.11075  0.51614  0.10266  1.0000
  C   C300      1.0  0.07901  0.48272  0.09855  1.0000
  N   N20       1.0  0.16732  0.61725  0.15921  1.0000
  H   H489      1.0  0.10671  0.47140  0.14040  1.0000
  H   H490      1.0  0.23618  0.60092  0.29241  1.0000
  H   H491      1.0  0.22898  0.61847  0.17052  1.0000
  C   C301      1.0  0.15371  0.64766  0.99898  1.0000
  S   S85       1.0  0.02622  0.44016  0.13956  1.0000
  H   H492      1.0  0.08899  0.65347  0.15236  1.0000
  H   H493      1.0  0.00503  0.52342  0.10325  1.0000
  S   S86       1.0  0.22037  0.57663  0.04012  1.0000
  H   H494      1.0  0.04653  0.52020  0.12206  1.0000
  H   H495      1.0  0.08761  0.39051  0.01303  1.0000
  C   C302      1.0  0.15522  0.62044  0.14636  1.0000
  S   S87       1.0  0.00468  0.35608  0.06460  1.0000
  H   H496      1.0  0.23952  0.57453  0.33166  1.0000
  H   H497      1.0  0.16328  0.58484  0.06034  1.0000
  H   H498      1.0  0.05605  0.62879  0.04046  1.0000
  Fe  Fe44      1.0  0.02855  0.43056  0.11469  1.0000
  C   C303      1.0  0.11771  0.48692  0.08362  1.0000
  C   C304      1.0  0.13347  0.49648  0.07487  1.0000
  H   H499      1.0  0.10874  0.49099  0.07403  1.0000
  H   H500      1.0  0.12308  0.47235  0.08406  1.0000
  H   H501      1.0  0.13813  0.49529  0.06067  1.0000
  H   H502      1.0  0.12961  0.51093  0.07500  1.0000
  H   H503      1.0  0.14510  0.49023  0.08136  1.0000
  H   H504      1.0  0.22178  0.55805  0.10460  1.0000
  S   S88       1.0  0.24565  0.55577  0.20573  1.0000
  H   H505      1.0  0.07001  0.47316  0.10521  1.0000
  H   H506      1.0  0.17006  0.58876  0.16142  1.0000
  C   C305      1.0  0.09364  0.47904  0.10932  1.0000
  C   C306      1.0  0.10013  0.50947  0.10231  1.0000
  H   H507      1.0  0.15113  0.59234  0.18903  1.0000
  C   C307      1.0  0.24901  0.60763  0.14962  1.0000
  H   H508      1.0  0.13089  0.61454  0.00075  1.0000
  H   H509      1.0  0.09985  0.46449  0.11094  1.0000
  C   C308      1.0  0.22382  0.63215  0.14450  1.0000
  H   H510      1.0  0.11215  0.63339  0.10737  1.0000
  H   H511      1.0  0.20626  0.60041  0.15017  1.0000
  H   H512      1.0  0.11091  0.59202  0.04576  1.0000
  C   C309      1.0  0.09144  0.52111  0.08654  1.0000
  H   H513      1.0  0.18178  0.59382  0.17494  1.0000
  C   C310      1.0  0.17816  0.59825  0.16156  1.0000
  H   H514      1.0  0.08992  0.51081  0.11480  1.0000
  H   H515      1.0  0.14697  0.64676  0.01280  1.0000
  Fe  Fe45      1.0  0.01672  0.33547  0.08593  1.0000
  H   H516      1.0  0.20075  0.56707  0.11839  1.0000
  H   H517      1.0  0.19116  0.56129  0.06106  1.0000
  H   H518      1.0  0.07475  0.37343  0.99860  1.0000
  H   H519      1.0  0.21976  0.63134  0.01703  1.0000
  C   C311      1.0  0.21526  0.64024  0.00504  1.0000
  H   H520      1.0  0.16100  0.56246  0.12844  1.0000
  H   H521      1.0  0.19323  0.51997  0.09393  1.0000
  H   H522      1.0  0.16357  0.58823  0.08157  1.0000
  H   H523      1.0  0.01879  0.33238  0.17217  1.0000
  H   H524      1.0  0.10788  0.59570  0.00537  1.0000
  C   C312      1.0  0.11393  0.48247  0.13405  1.0000
  C   C313      1.0  0.24756  0.59058  0.34459  1.0000
  H   H525      1.0  0.07445  0.58066  0.05911  1.0000
  H   H526      1.0  0.13316  0.60737  0.17888  1.0000
  H   H527      1.0  0.05209  0.34389  0.12067  1.0000
  S   S89       1.0  0.10996  0.65616  0.02195  1.0000
  H   H528      1.0  0.14715  0.60996  0.15035  1.0000
  H   H529      1.0  0.18049  0.65864  0.14537  1.0000
  C   C314      1.0  0.16434  0.62052  0.12660  1.0000
  H   H530      1.0  0.05471  0.38986  0.99947  1.0000
  C   C315      1.0  0.17941  0.63047  0.15366  1.0000
  H   H531      1.0  0.19070  0.58569  0.09015  1.0000
  H   H532      1.0  0.18181  0.59222  0.06269  1.0000
  H   H533      1.0  0.02050  0.40432  0.09479  1.0000
  C   C316      1.0  0.17215  0.58342  0.06964  1.0000
  H   H534      1.0  0.18766  0.54491  0.11712  1.0000
  N   N21       1.0  0.19210  0.55810  0.08895  1.0000
  H   H535      1.0  0.16470  0.64841  0.19346  1.0000
  C   C317      1.0  0.21001  0.56933  0.10522  1.0000
  H   H536      1.0  0.12188  0.61825  0.02298  1.0000
  H   H537      1.0  0.22831  0.59705  0.32779  1.0000
  H   H538      1.0  0.14492  0.63307  0.14700  1.0000
  H   H539      1.0  0.12522  0.47999  0.14086  1.0000
  H   H540      1.0  0.18985  0.62826  0.14159  1.0000
  C   C318      1.0  0.06669  0.62529  0.04826  1.0000
  H   H541      1.0  0.17352  0.54169  0.10534  1.0000
  C   C319      1.0  0.16450  0.56646  0.11365  1.0000
  Fe  Fe46      1.0  0.02512  0.34052  0.04550  1.0000
  C   C320      1.0  0.18001  0.55205  0.10645  1.0000
  H   H542      1.0  0.06254  0.64195  0.15572  1.0000
  C   C321      1.0  0.18202  0.56372  0.07389  1.0000
  H   H543      1.0  0.21052  0.57577  0.07705  1.0000
  H   H544      1.0  0.00878  0.35737  0.18391  1.0000
  C   C322      1.0  0.20050  0.57287  0.08958  1.0000
  H   H545      1.0  0.10023  0.53014  0.07760  1.0000
  C   C323      1.0  0.22729  0.60491  0.04925  1.0000
  S   S90       1.0  0.04447  0.35214  0.02157  1.0000
  Fe  Fe47      1.0  0.24208  0.58374  0.18958  1.0000
  H   H546      1.0  0.10017  0.61929  0.00249  1.0000
  C   C324      1.0  0.17314  0.65552  0.24421  1.0000
  C   C325      1.0  0.06186  0.64800  0.14146  1.0000
  C   C326      1.0  0.12328  0.60909  0.01411  1.0000
  H   H547      1.0  0.23599  0.57195  0.28711  1.0000
  C   C327      1.0  0.08862  0.65972  0.13808  1.0000
  C   C328      1.0  0.17785  0.65087  0.19209  1.0000
  H   H548      1.0  0.18066  0.51923  0.99931  1.0000
  H   H549      1.0  0.16042  0.61922  0.00131  1.0000
  H   H550      1.0  0.06517  0.62700  0.01076  1.0000
  C   C329      1.0  0.24504  0.62168  0.11942  1.0000
  H   H551      1.0  0.01021  0.39915  0.15062  1.0000
  H   H552      1.0  0.18489  0.64416  0.24495  1.0000
  H   H553      1.0  0.22442  0.66051  0.18818  1.0000
  H   H554      1.0  0.02068  0.50776  0.08332  1.0000
  C   C330      1.0  0.11114  0.62797  0.12192  1.0000
  S   S91       1.0  0.21771  0.65008  0.11150  1.0000
  N   N22       1.0  0.09108  0.60448  0.02924  1.0000
  H   H555      1.0  0.01713  0.34561  0.00724  1.0000
  C   C331      1.0  0.24183  0.58831  0.32833  1.0000
  C   C332      1.0  0.07571  0.59974  0.02487  1.0000
  H   H556      1.0  0.03738  0.63973  0.14257  1.0000
  C   C333      1.0  0.10506  0.60708  0.01217  1.0000
  H   H557      1.0  0.16353  0.65356  0.13783  1.0000
  C   C334      1.0  0.23673  0.61830  0.04722  1.0000
  H   H558      1.0  0.15502  0.62920  0.11798  1.0000
  H   H559      1.0  0.21437  0.51605  0.07903  1.0000
  Fe  Fe48      1.0  0.11375  0.64826  0.05008  1.0000
  H   H560      1.0  0.19572  0.52999  0.07022  1.0000
  H   H561      1.0  0.01260  0.51837  0.06263  1.0000
  H   H562      1.0  0.21328  0.44211  0.00116  1.0000
  H   H563      1.0  0.09176  0.62421  0.14680  1.0000
  H   H564      1.0  0.08500  0.59213  0.06928  1.0000
  C   C335      1.0  0.01094  0.38459  0.15262  1.0000
  C   C336      1.0  0.25004  0.62172  0.03198  1.0000
  C   C337      1.0  0.01703  0.34024  0.15870  1.0000
  C   C338      1.0  0.02113  0.37597  0.10084  1.0000
  C   C339      1.0  0.18704  0.65615  0.02194  1.0000
  H   H565      1.0  0.22693  0.57322  0.30983  1.0000
  H   H566      1.0  0.17641  0.62636  0.12208  1.0000
  C   C340      1.0  0.04476  0.34775  0.00093  1.0000
  H   H567      1.0  0.13618  0.60927  0.19973  1.0000
  H   H568      1.0  0.11949  0.63380  0.12711  1.0000
  H   H569      1.0  0.05684  0.62245  0.13975  1.0000
  H   H570      1.0  0.08012  0.64632  0.10412  1.0000
  N   N23       1.0  0.08037  0.64915  0.13039  1.0000
  H   H571      1.0  0.05476  0.61015  0.00930  1.0000
  H   H572      1.0  0.11714  0.61343  0.12345  1.0000
  C   C341      1.0  0.09153  0.63031  0.13246  1.0000
  H   H573      1.0  0.02553  0.35027  0.15400  1.0000
  H   H574      1.0  0.00928  0.37750  0.09579  1.0000
  H   H575      1.0  0.01801  0.37847  0.16372  1.0000
  H   H576      1.0  0.24152  0.62024  0.30867  1.0000
  H   H577      1.0  0.23777  0.58641  0.35692  1.0000
  H   H578      1.0  0.19177  0.63110  0.00331  1.0000
  C   C342      1.0  0.08056  0.65686  0.11080  1.0000
  C   C343      1.0  0.24400  0.59852  0.02061  1.0000
  C   C344      1.0  0.01232  0.50712  0.07439  1.0000
  H   H579      1.0  0.24762  0.60471  0.34392  1.0000
  H   H580      1.0  0.24714  0.59073  0.01045  1.0000
  H   H581      1.0  0.16333  0.65084  0.23975  1.0000
  S   S92       1.0  0.02135  0.33995  0.11099  1.0000
  C   C345      1.0  0.18825  0.64091  0.03862  1.0000
  C   C346      1.0  0.20616  0.62990  0.99732  1.0000
  H   H582      1.0  0.24255  0.41943  0.99937  1.0000
  H   H583      1.0  0.24935  0.62227  0.10523  1.0000
  H   H584      1.0  0.17709  0.65432  0.01534  1.0000
  H   H585      1.0  0.21204  0.61536  0.00066  1.0000
  H   H586      1.0  0.05303  0.66133  0.14187  1.0000
  C   C347      1.0  0.06950  0.38805  0.99719  1.0000
  H   H587      1.0  0.24220  0.65975  0.99995  1.0000
  H   H588      1.0  0.07662  0.61156  0.99622  1.0000
  H   H589      1.0  0.01877  0.49479  0.06907  1.0000
  H   H590      1.0  0.10273  0.65957  0.13114  1.0000
  H   H591      1.0  0.19770  0.64198  0.04621  1.0000
  N   N24       1.0  0.20451  0.65804  0.00891  1.0000
  H   H592      1.0  0.21962  0.65574  0.02883  1.0000
  H   H593      1.0  0.16040  0.65493  0.16091  1.0000
  Fe  Fe49      1.0  0.20270  0.54925  0.99551  1.0000
  H   H594      1.0  0.20753  0.34781  0.76556  1.0000
  H   H595      1.0  0.04094  0.64910  0.79147  1.0000
  C   C348      1.0  0.20125  0.46542  0.78530  1.0000
  S   S93       1.0  0.18308  0.61300  0.96757  1.0000
  N   N25       1.0  0.07691  0.39794  0.97880  1.0000
  S   S94       1.0  0.21444  0.52837  0.97824  1.0000
  Fe  Fe50      1.0  0.13914  0.48715  0.81216  1.0000
  S   S95       1.0  0.13784  0.45877  0.82474  1.0000
  S   S96       1.0  0.16425  0.49665  0.80886  1.0000
  Fe  Fe51      1.0  0.10143  0.49709  0.80608  1.0000
  S   S97       1.0  0.09673  0.46945  0.81775  1.0000
  S   S98       1.0  0.07917  0.51846  0.79614  1.0000
  Fe  Fe52      1.0  0.11046  0.47002  0.83877  1.0000
  S   S99       1.0  0.10057  0.45753  0.86719  1.0000
  Fe  Fe53      1.0  0.12440  0.46010  0.80278  1.0000
  S   S100      1.0  0.13133  0.43417  0.79366  1.0000
  S   S101      1.0  0.11288  0.49857  0.82851  1.0000
  S   S102      1.0  0.12805  0.48783  0.78864  1.0000
  Fe  Fe54      1.0  0.23293  0.37695  0.72809  1.0000
  S   S103      1.0  0.21299  0.39209  0.74749  1.0000
  S   S104      1.0  0.23402  0.34818  0.72921  1.0000
  N   N26       1.0  0.04389  0.46089  0.84817  1.0000
  S   S105      1.0  0.23362  0.42554  0.72796  1.0000
  Fe  Fe55      1.0  0.23628  0.40139  0.75011  1.0000
  C   C349      1.0  0.00309  0.62496  0.89287  1.0000
  Fe  Fe56      1.0  0.21165  0.41499  0.72394  1.0000
  S   S106      1.0  0.18594  0.43440  0.71975  1.0000
  H   H596      1.0  0.22231  0.56370  0.94058  1.0000
  S   S107      1.0  0.22964  0.39899  0.70410  1.0000
  H   H597      1.0  0.24323  0.35040  0.68845  1.0000
  H   H598      1.0  0.20990  0.52436  0.91800  1.0000
  H   H599      1.0  0.15459  0.34359  0.89027  1.0000
  H   H600      1.0  0.05782  0.47220  0.80140  1.0000
  H   H601      1.0  0.16586  0.60006  0.92219  1.0000
  H   H602      1.0  0.15336  0.34238  0.84510  1.0000
  Fe  Fe57      1.0  0.08357  0.36681  0.89092  1.0000
  S   S108      1.0  0.11246  0.35499  0.89110  1.0000
  S   S109      1.0  0.07908  0.38718  0.86615  1.0000
  H   H603      1.0  0.22913  0.38874  0.81558  1.0000
  H   H604      1.0  0.03513  0.59681  0.80962  1.0000
  H   H605      1.0  0.02422  0.43364  0.85521  1.0000
  Fe  Fe58      1.0  0.10496  0.35666  0.91988  1.0000
  S   S110      1.0  0.12377  0.36383  0.93250  1.0000
  H   H606      1.0  0.18472  0.55111  0.96048  1.0000
  H   H607      1.0  0.18253  0.37012  0.76730  1.0000
  S   S111      1.0  0.07661  0.37088  0.91911  1.0000
  H   H608      1.0  0.20790  0.63437  0.98258  1.0000
  H   H609      1.0  0.06354  0.44279  0.95784  1.0000
  C   C350      1.0  0.03845  0.42855  0.85619  1.0000
  S   S112      1.0  0.19832  0.35350  0.89244  1.0000
  Fe  Fe59      1.0  0.17050  0.46610  0.94656  1.0000
  S   S113      1.0  0.19417  0.46450  0.92378  1.0000
  S   S114      1.0  0.16775  0.47745  0.97087  1.0000
  Fe  Fe60      1.0  0.14939  0.45032  0.92936  1.0000
  S   S115      1.0  0.17137  0.44765  0.90512  1.0000
  S   S116      1.0  0.12278  0.44435  0.93029  1.0000
  Fe  Fe61      1.0  0.18944  0.43745  0.92475  1.0000
  Fe  Fe62      1.0  0.17404  0.47474  0.90623  1.0000
  S   S117      1.0  0.17753  0.49814  0.88337  1.0000
  S   S118      1.0  0.16724  0.43802  0.94915  1.0000
  S   S119      1.0  0.15058  0.47838  0.92891  1.0000
  Fe  Fe63      1.0  0.18734  0.58915  0.99003  1.0000
  C   C351      1.0  0.19150  0.39622  0.91407  1.0000
  C   C352      1.0  0.18850  0.38248  0.90787  1.0000
  H   H610      1.0  0.18027  0.40579  0.91955  1.0000
  H   H611      1.0  0.17491  0.38157  0.90865  1.0000
  C   C353      1.0  0.12405  0.38643  0.93021  1.0000
  C   C354      1.0  0.11047  0.40020  0.92411  1.0000
  C   C355      1.0  0.11019  0.41799  0.92412  1.0000
  C   C356      1.0  0.12381  0.42213  0.92959  1.0000
  C   C357      1.0  0.13775  0.40842  0.93499  1.0000
  C   C358      1.0  0.13776  0.39060  0.93549  1.0000
  H   H612      1.0  0.09999  0.39713  0.91976  1.0000
  H   H613      1.0  0.09951  0.42862  0.91972  1.0000
  H   H614      1.0  0.14831  0.41149  0.93922  1.0000
  H   H615      1.0  0.14837  0.38000  0.94010  1.0000
  H   H616      1.0  0.04798  0.40581  0.95938  1.0000
  C   C359      1.0  0.21291  0.34382  0.73120  1.0000
  H   H617      1.0  0.04061  0.44314  0.87435  1.0000
  C   C360      1.0  0.23754  0.44588  0.93415  1.0000
  H   H618      1.0  0.16950  0.44383  0.79448  1.0000
  H   H619      1.0  0.23206  0.45979  0.93607  1.0000
  C   C361      1.0  0.20684  0.45211  0.99090  1.0000
  H   H620      1.0  0.15163  0.58435  0.93443  1.0000
  H   H621      1.0  0.10223  0.40319  0.96227  1.0000
  C   C362      1.0  0.19800  0.37279  0.79977  1.0000
  C   C363      1.0  0.17712  0.57238  0.91818  1.0000
  C   C364      1.0  0.01902  0.49003  0.84614  1.0000
  C   C365      1.0  0.19846  0.35771  0.72727  1.0000
  C   C366      1.0  0.18154  0.35394  0.72947  1.0000
  H   H622      1.0  0.13452  0.36568  0.78761  1.0000
  H   H623      1.0  0.01824  0.33965  0.97769  1.0000
  N   N27       1.0  0.18773  0.56440  0.93269  1.0000
  H   H624      1.0  0.20033  0.37132  0.72241  1.0000
  H   H625      1.0  0.17041  0.36468  0.72629  1.0000
  S   S120      1.0  0.02891  0.64548  0.92256  1.0000
  C   C367      1.0  0.02314  0.61340  0.78695  1.0000
  C   C368      1.0  0.08638  0.40583  0.86686  1.0000
  C   C369      1.0  0.08267  0.41163  0.88289  1.0000
  C   C370      1.0  0.08751  0.42729  0.88315  1.0000
  C   C371      1.0  0.09636  0.43693  0.86744  1.0000
  C   C372      1.0  0.10082  0.43062  0.85163  1.0000
  C   C373      1.0  0.09551  0.41530  0.85123  1.0000
  H   H626      1.0  0.07534  0.40453  0.89493  1.0000
  H   H627      1.0  0.08402  0.43216  0.89539  1.0000
  H   H628      1.0  0.10824  0.43757  0.83960  1.0000
  H   H629      1.0  0.09838  0.41094  0.83878  1.0000
  C   C374      1.0  0.14557  0.43434  0.77262  1.0000
  C   C375      1.0  0.14664  0.45033  0.76007  1.0000
  C   C376      1.0  0.15852  0.45019  0.74346  1.0000
  C   C377      1.0  0.16965  0.43412  0.73961  1.0000
  C   C378      1.0  0.16825  0.41810  0.75205  1.0000
  C   C379      1.0  0.15615  0.41819  0.76849  1.0000
  H   H630      1.0  0.13822  0.46278  0.76307  1.0000
  H   H631      1.0  0.15943  0.46257  0.73377  1.0000
  H   H632      1.0  0.17624  0.40561  0.74883  1.0000
  H   H633      1.0  0.15515  0.40577  0.77806  1.0000
  C   C380      1.0  0.16902  0.49603  0.82940  1.0000
  C   C381      1.0  0.17525  0.51019  0.83131  1.0000
  C   C382      1.0  0.17827  0.51044  0.84784  1.0000
  C   C383      1.0  0.17558  0.49629  0.86242  1.0000
  C   C384      1.0  0.17019  0.48165  0.86030  1.0000
  C   C385      1.0  0.16653  0.48169  0.84388  1.0000
  H   H634      1.0  0.17726  0.52125  0.82012  1.0000
  H   H635      1.0  0.18250  0.52175  0.84939  1.0000
  H   H636      1.0  0.16817  0.47066  0.87146  1.0000
  H   H637      1.0  0.16189  0.47062  0.84241  1.0000
  C   C386      1.0  0.20098  0.51481  0.97592  1.0000
  C   C387      1.0  0.20646  0.50601  0.96153  1.0000
  C   C388      1.0  0.18034  0.49247  0.97190  1.0000
  C   C389      1.0  0.17293  0.64940  0.96379  1.0000
  H   H638      1.0  0.07970  0.37485  0.96779  1.0000
  C   C390      1.0  0.05064  0.47585  0.81441  1.0000
  H   H639      1.0  0.19229  0.37024  0.81433  1.0000
  C   C391      1.0  0.19318  0.44398  0.77231  1.0000
  H   H640      1.0  0.08151  0.39455  0.95156  1.0000
  Fe  Fe64      1.0  0.01675  0.62122  0.93217  1.0000
  H   H641      1.0  0.07343  0.34383  0.96105  1.0000
  C   C392      1.0  0.05678  0.65325  0.97633  1.0000
  H   H642      1.0  0.19078  0.43367  0.80130  1.0000
  H   H643      1.0  0.21447  0.43464  0.94609  1.0000
  C   C393      1.0  0.02936  0.53289  0.83873  1.0000
  C   C394      1.0  0.02925  0.53969  0.82060  1.0000
  C   C395      1.0  0.04471  0.53545  0.80763  1.0000
  C   C396      1.0  0.06033  0.52440  0.81271  1.0000
  C   C397      1.0  0.06057  0.51789  0.83086  1.0000
  C   C398      1.0  0.04508  0.52209  0.84386  1.0000
  H   H644      1.0  0.02217  0.58204  0.88900  1.0000
  H   H645      1.0  0.04447  0.54052  0.79361  1.0000
  H   H646      1.0  0.07260  0.50944  0.83487  1.0000
  H   H647      1.0  0.04523  0.51689  0.85787  1.0000
  H   H648      1.0  0.13427  0.53589  0.84780  1.0000
  C   C399      1.0  0.20294  0.36996  0.90071  1.0000
  H   H649      1.0  0.10793  0.36990  0.97042  1.0000
  H   H650      1.0  0.10649  0.33452  0.84281  1.0000
  C   C400      1.0  0.22343  0.38465  0.90661  1.0000
  C   C401      1.0  0.21945  0.45357  0.78872  1.0000
  H   H651      1.0  0.09114  0.34383  0.72887  1.0000
  H   H652      1.0  0.08544  0.65074  0.96936  1.0000
  H   H653      1.0  0.06096  0.43666  0.85946  1.0000
  S   S121      1.0  0.02280  0.60019  0.91578  1.0000
  H   H654      1.0  0.19589  0.54181  0.90552  1.0000
  H   H655      1.0  0.15388  0.59212  0.91085  1.0000
  S   S122      1.0  0.17546  0.56570  0.99283  1.0000
  H   H656      1.0  0.07270  0.34837  0.99091  1.0000
  H   H657      1.0  0.21947  0.45078  0.80319  1.0000
  C   C402      1.0  0.03007  0.34177  0.98053  1.0000
  H   H658      1.0  0.17086  0.35937  0.78850  1.0000
  C   C403      1.0  0.22044  0.37107  0.90005  1.0000
  C   C404      1.0  0.00446  0.60041  0.87259  1.0000
  C   C405      1.0  0.05027  0.47325  0.87239  1.0000
  H   H659      1.0  0.20281  0.58544  0.92081  1.0000
  H   H660      1.0  0.19100  0.46384  0.79796  1.0000
  H   H661      1.0  0.02905  0.49660  0.83594  1.0000
  H   H662      1.0  0.04603  0.59103  0.78860  1.0000
  H   H663      1.0  0.23060  0.46033  0.78103  1.0000
  H   H664      1.0  0.17191  0.35220  0.76897  1.0000
  H   H665      1.0  0.21151  0.48076  0.75151  1.0000
  C   C406      1.0  0.19822  0.53573  0.91923  1.0000
  H   H666      1.0  0.21391  0.55444  0.91744  1.0000
  H   H667      1.0  0.02837  0.65745  0.98690  1.0000
  H   H668      1.0  0.20642  0.43487  0.76928  1.0000
  N   N28       1.0  0.01329  0.63084  0.79273  1.0000
  N   N29       1.0  0.16429  0.40657  0.85849  1.0000
  C   C407      1.0  0.14704  0.41890  0.86514  1.0000
  C   C408      1.0  0.16730  0.41063  0.83839  1.0000
  C   C409      1.0  0.17913  0.41118  0.86393  1.0000
  C   C410      1.0  0.16268  0.38743  0.86686  1.0000
  C   C411      1.0  0.14218  0.41842  0.88536  1.0000
  C   C412      1.0  0.15224  0.40826  0.83074  1.0000
  C   C413      1.0  0.19834  0.40110  0.85759  1.0000
  C   C414      1.0  0.17441  0.37295  0.85641  1.0000
  H   H669      1.0  0.14723  0.43308  0.85826  1.0000
  H   H670      1.0  0.13541  0.41579  0.86208  1.0000
  H   H671      1.0  0.17990  0.40238  0.83227  1.0000
  H   H672      1.0  0.16905  0.42467  0.83286  1.0000
  H   H673      1.0  0.17899  0.42577  0.85922  1.0000
  H   H674      1.0  0.17716  0.40851  0.87872  1.0000
  H   H675      1.0  0.16558  0.38353  0.88054  1.0000
  H   H676      1.0  0.14861  0.38609  0.86867  1.0000
  H   H677      1.0  0.15082  0.42499  0.88937  1.0000
  H   H678      1.0  0.12828  0.42619  0.88870  1.0000
  H   H679      1.0  0.14261  0.40465  0.89345  1.0000
  H   H680      1.0  0.14059  0.41964  0.83172  1.0000
  H   H681      1.0  0.15720  0.40811  0.81631  1.0000
  H   H682      1.0  0.14754  0.39573  0.83744  1.0000
  H   H683      1.0  0.20020  0.38667  0.86376  1.0000
  H   H684      1.0  0.20772  0.40621  0.86225  1.0000
  H   H685      1.0  0.20255  0.40325  0.84286  1.0000
  H   H686      1.0  0.17746  0.36019  0.86610  1.0000
  H   H687      1.0  0.18745  0.37575  0.84844  1.0000
  H   H688      1.0  0.16690  0.36996  0.84796  1.0000
  H   H689      1.0  0.23698  0.38542  0.90617  1.0000
  C   C415      1.0  0.19602  0.49517  0.95931  1.0000
  H   H690      1.0  0.18596  0.44300  0.76248  1.0000
  H   H691      1.0  0.18054  0.65008  0.95022  1.0000
  H   H692      1.0  0.16767  0.47320  0.78226  1.0000
  H   H693      1.0  0.10267  0.36162  0.72371  1.0000
  H   H694      1.0  0.05260  0.41859  0.98024  1.0000
  H   H695      1.0  0.11859  0.54193  0.86684  1.0000
  H   H696      1.0  0.13134  0.34040  0.85699  1.0000
  C   C416      1.0  0.20897  0.39730  0.91354  1.0000
  H   H697      1.0  0.16247  0.50283  0.76416  1.0000
  S   S123      1.0  0.21522  0.57310  0.99075  1.0000
  H   H698      1.0  0.20450  0.56655  0.95991  1.0000
  H   H699      1.0  0.20031  0.48860  0.94812  1.0000
  H   H700      1.0  0.18344  0.49922  0.74895  1.0000
  H   H701      1.0  0.15832  0.54826  0.93975  1.0000
  N   N30       1.0  0.19501  0.46299  0.76989  1.0000
  C   C417      1.0  0.20857  0.46741  0.75299  1.0000
  C   C418      1.0  0.20348  0.46704  0.73562  1.0000
  H   H702      1.0  0.22164  0.45780  0.75353  1.0000
  H   H703      1.0  0.20274  0.47940  0.78325  1.0000
  H   H704      1.0  0.04958  0.61043  0.79347  1.0000
  C   C419      1.0  0.01428  0.59547  0.88618  1.0000
  C   C420      1.0  0.07222  0.42923  0.95803  1.0000
  H   H705      1.0  0.17997  0.34836  0.81355  1.0000
  H   H706      1.0  0.15783  0.33311  0.92895  1.0000
  C   C421      1.0  0.05119  0.45866  0.82911  1.0000
  H   H707      1.0  0.01554  0.49586  0.85821  1.0000
  H   H708      1.0  0.20198  0.45357  0.73562  1.0000
  C   C422      1.0  0.17692  0.47517  0.76899  1.0000
  H   H709      1.0  0.07001  0.42423  0.94718  1.0000
  H   H710      1.0  0.02912  0.62763  0.81249  1.0000
  H   H711      1.0  0.17151  0.56236  0.91521  1.0000
  C   C423      1.0  0.17161  0.63273  0.97511  1.0000
  N   N31       1.0  0.20430  0.34042  0.79422  1.0000
  H   H712      1.0  0.08095  0.34955  0.82760  1.0000
  C   C424      1.0  0.20271  0.54916  0.92748  1.0000
  C   C425      1.0  0.04115  0.65852  0.98857  1.0000
  C   C426      1.0  0.12037  0.33680  0.71805  1.0000
  S   S124      1.0  0.00381  0.65902  0.95848  1.0000
  H   H713      1.0  0.19084  0.43024  0.97770  1.0000
  C   C427      1.0  0.04648  0.44249  0.86011  1.0000
  C   C428      1.0  0.21570  0.45087  0.97126  1.0000
  H   H714      1.0  0.20448  0.45500  0.96401  1.0000
  C   C429      1.0  0.03907  0.64770  0.77858  1.0000
  H   H715      1.0  0.21954  0.36106  0.78079  1.0000
  H   H716      1.0  0.03913  0.41660  0.86731  1.0000
  H   H717      1.0  0.05515  0.46054  0.88136  1.0000
  C   C430      1.0  0.19743  0.34331  0.77746  1.0000
  H   H718      1.0  0.17046  0.53176  0.95523  1.0000
  C   C431      1.0  0.17492  0.50122  0.98630  1.0000
  H   H719      1.0  0.10170  0.36306  0.80329  1.0000
  C   C432      1.0  0.17620  0.55844  0.95064  1.0000
  C   C433      1.0  0.23871  0.37897  0.80868  1.0000
  H   H720      1.0  0.07789  0.36929  0.83651  1.0000
  C   C434      1.0  0.24812  0.43009  0.98900  1.0000
  S   S125      1.0  0.04666  0.33695  0.94672  1.0000
  H   H721      1.0  0.22105  0.35213  0.80346  1.0000
  C   C435      1.0  0.05493  0.47118  0.85281  1.0000
  C   C436      1.0  0.06740  0.41731  0.97668  1.0000
  H   H722      1.0  0.07486  0.34851  0.85105  1.0000
  C   C437      1.0  0.01313  0.60756  0.89675  1.0000
  H   H723      1.0  0.18607  0.57716  0.90533  1.0000
  H   H724      1.0  0.22225  0.44034  0.78530  1.0000
  C   C438      1.0  0.07326  0.65471  0.97877  1.0000
  C   C439      1.0  0.01493  0.63028  0.81141  1.0000
  H   H725      1.0  0.18246  0.50029  0.77163  1.0000
  H   H726      1.0  0.20517  0.38384  0.79701  1.0000
  S   S126      1.0  0.21291  0.41421  0.92174  1.0000
  C   C440      1.0  0.18312  0.43571  0.79081  1.0000
  C   C441      1.0  0.07405  0.38947  0.96513  1.0000
  C   C442      1.0  0.03941  0.60254  0.79520  1.0000
  H   H727      1.0  0.18727  0.37789  0.79210  1.0000
  C   C443      1.0  0.21900  0.41743  0.97960  1.0000
  C   C444      1.0  0.17662  0.49542  0.76307  1.0000
  H   H728      1.0  0.17042  0.47184  0.75982  1.0000
  H   H729      1.0  0.04367  0.45063  0.82545  1.0000
  S   S127      1.0  0.02167  0.61602  0.95997  1.0000
  H   H730      1.0  0.18672  0.52995  0.92747  1.0000
  H   H731      1.0  0.07041  0.42370  0.98612  1.0000
  H   H732      1.0  0.15172  0.54846  0.96263  1.0000
  H   H733      1.0  0.03672  0.48240  0.81297  1.0000
  C   C445      1.0  0.19609  0.57887  0.93422  1.0000
  N   N32       1.0  0.11625  0.35693  0.82459  1.0000
  C   C446      1.0  0.10289  0.34928  0.84023  1.0000
  C   C447      1.0  0.13468  0.34729  0.82771  1.0000
  C   C448      1.0  0.11343  0.35331  0.80786  1.0000
  C   C449      1.0  0.11282  0.37671  0.82386  1.0000
  C   C450      1.0  0.08311  0.35466  0.83842  1.0000
  C   C451      1.0  0.13897  0.34838  0.84520  1.0000
  C   C452      1.0  0.12929  0.35330  0.79161  1.0000
  C   C453      1.0  0.12592  0.38741  0.81005  1.0000
  C   C454      1.0  0.24463  0.38333  0.79012  1.0000
  H   H734      1.0  0.10313  0.35301  0.85274  1.0000
  H   H735      1.0  0.14536  0.35198  0.81671  1.0000
  S   S128      1.0  0.00973  0.53710  0.85503  1.0000
  H   H736      1.0  0.13012  0.34448  0.70856  1.0000
  H   H737      1.0  0.01783  0.46566  0.86556  1.0000
  H   H738      1.0  0.09939  0.38341  0.82086  1.0000
  H   H739      1.0  0.11175  0.37947  0.83718  1.0000
  S   S129      1.0  0.07529  0.34055  0.89765  1.0000
  H   H740      1.0  0.08623  0.43098  0.95503  1.0000
  H   H741      1.0  0.19244  0.45165  0.99372  1.0000
  H   H742      1.0  0.09930  0.40478  0.98463  1.0000
  H   H743      1.0  0.24615  0.37108  0.67415  1.0000
  N   N33       1.0  0.22693  0.43299  0.96789  1.0000
  Fe  Fe65      1.0  0.07097  0.34330  0.92609  1.0000
  H   H744      1.0  0.20109  0.41298  0.96486  1.0000
  H   H745      1.0  0.01725  0.46400  0.84383  1.0000
  H   H746      1.0  0.12165  0.39237  0.79704  1.0000
  H   H747      1.0  0.14002  0.38018  0.80797  1.0000
  H   H748      1.0  0.12594  0.39919  0.81508  1.0000
  H   H749      1.0  0.05733  0.48318  0.87349  1.0000
  N   N34       1.0  0.11214  0.50846  0.88370  1.0000
  C   C455      1.0  0.10941  0.48991  0.88557  1.0000
  C   C456      1.0  0.09430  0.52132  0.88328  1.0000
  C   C457      1.0  0.11913  0.50972  0.89915  1.0000
  C   C458      1.0  0.12570  0.51283  0.86681  1.0000
  C   C459      1.0  0.12604  0.47460  0.88707  1.0000
  C   C460      1.0  0.08731  0.52520  0.86592  1.0000
  C   C461      1.0  0.10847  0.50278  0.91789  1.0000
  C   C462      1.0  0.13014  0.53151  0.86252  1.0000
  H   H750      1.0  0.09859  0.48652  0.89727  1.0000
  H   H751      1.0  0.10469  0.48914  0.87386  1.0000
  H   H752      1.0  0.09448  0.53441  0.88582  1.0000
  H   H753      1.0  0.08371  0.51624  0.89432  1.0000
  H   H754      1.0  0.13339  0.50257  0.89835  1.0000
  H   H755      1.0  0.11939  0.52384  0.89853  1.0000
  H   H756      1.0  0.13864  0.50330  0.86756  1.0000
  H   H757      1.0  0.12219  0.51068  0.85500  1.0000
  H   H758      1.0  0.13533  0.47451  0.87393  1.0000
  H   H759      1.0  0.13322  0.47489  0.89718  1.0000
  H   H760      1.0  0.12173  0.46161  0.89121  1.0000
  H   H761      1.0  0.08598  0.51290  0.86271  1.0000
  H   H762      1.0  0.07374  0.53400  0.86761  1.0000
  H   H763      1.0  0.09587  0.53245  0.85437  1.0000
  H   H764      1.0  0.10986  0.48805  0.92073  1.0000
  H   H765      1.0  0.09412  0.50943  0.91977  1.0000
  H   H766      1.0  0.11397  0.50568  0.92808  1.0000
  H   H767      1.0  0.14130  0.53111  0.86878  1.0000
  C   C463      1.0  0.21157  0.35622  0.79424  1.0000
  C   C464      1.0  0.06064  0.34704  0.98791  1.0000
  Fe  Fe66      1.0  0.03107  0.64197  0.95118  1.0000
  C   C465      1.0  0.16129  0.58810  0.92187  1.0000
  C   C466      1.0  0.10845  0.37794  0.97969  1.0000
  H   H768      1.0  0.19103  0.47678  0.73314  1.0000
  H   H769      1.0  0.01715  0.54790  0.81651  1.0000
  H   H770      1.0  0.05422  0.48473  0.84443  1.0000
  H   H771      1.0  0.19446  0.40713  0.98854  1.0000
  H   H772      1.0  0.16790  0.57006  0.95649  1.0000
  H   H773      1.0  0.20858  0.54126  0.93922  1.0000
  Fe  Fe67      1.0  0.21933  0.33237  0.87970  1.0000
  H   H774      1.0  0.21882  0.50764  0.95203  1.0000
  C   C467      1.0  0.24578  0.43060  0.97021  1.0000
  H   H775      1.0  0.01096  0.65917  0.81030  1.0000
  H   H776      1.0  0.04890  0.63612  0.77409  1.0000
  C   C468      1.0  0.17976  0.35712  0.77568  1.0000
  H   H777      1.0  0.21436  0.58483  0.94698  1.0000
  H   H778      1.0  0.22801  0.40455  0.97696  1.0000
  H   H779      1.0  0.18155  0.42232  0.79040  1.0000
  C   C469      1.0  0.16369  0.54600  0.95183  1.0000
  H   H780      1.0  0.19667  0.33198  0.82294  1.0000
  H   H781      1.0  0.18572  0.58970  0.93978  1.0000
  C   C470      1.0  0.02416  0.46936  0.85116  1.0000
  H   H782      1.0  0.04622  0.38582  0.97671  1.0000
  H   H783      1.0  0.01081  0.65932  0.78219  1.0000
  H   H784      1.0  0.05751  0.48549  0.81628  1.0000
  C   C471      1.0  0.18502  0.51255  0.98816  1.0000
  C   C472      1.0  0.21010  0.57288  0.94611  1.0000
  H   H785      1.0  0.04645  0.42375  0.84396  1.0000
  S   S130      1.0  0.05642  0.64484  0.95781  1.0000
  S   S131      1.0  0.23551  0.40403  0.77784  1.0000
  H   H786      1.0  0.06537  0.45106  0.82754  1.0000
  H   H787      1.0  0.00488  0.59082  0.86493  1.0000
  C   C473      1.0  0.01978  0.64648  0.77949  1.0000
  H   H788      1.0  0.13649  0.36233  0.84683  1.0000
  C   C474      1.0  0.22808  0.43227  0.94878  1.0000
  C   C475      1.0  0.00579  0.64735  0.81877  1.0000
  H   H789      1.0  0.01405  0.60388  0.79011  1.0000
  C   C476      1.0  0.05440  0.39167  0.96393  1.0000
  H   H790      1.0  0.23536  0.44543  0.92100  1.0000
  C   C477      1.0  0.24479  0.36173  0.81824  1.0000
  H   H791      1.0  0.00936  0.61907  0.82102  1.0000
  H   H792      1.0  0.03575  0.47809  0.87715  1.0000
  H   H793      1.0  0.21440  0.47042  0.72408  1.0000
  H   H794      1.0  0.00878  0.64547  0.83216  1.0000
  C   C478      1.0  0.06113  0.34427  0.97105  1.0000
  H   H795      1.0  0.23164  0.36148  0.89454  1.0000
  H   H796      1.0  0.06936  0.46468  0.84992  1.0000
  H   H797      1.0  0.02780  0.61560  0.77217  1.0000
  H   H798      1.0  0.09825  0.35495  0.70584  1.0000
  H   H799      1.0  0.05411  0.38433  0.95390  1.0000
  H   H800      1.0  0.22370  0.46145  0.96564  1.0000
  C   C479      1.0  0.04585  0.34157  0.96735  1.0000
  H   H801      1.0  0.01912  0.64627  0.76571  1.0000
  H   H802      1.0  0.12472  0.35209  0.77996  1.0000
  H   H803      1.0  0.23999  0.35823  0.83252  1.0000
  C   C480      1.0  0.20027  0.41715  0.97741  1.0000
  C   C481      1.0  0.09669  0.39692  0.97621  1.0000
  C   C482      1.0  0.10193  0.34982  0.71909  1.0000
  H   H804      1.0  0.12264  0.37906  0.97719  1.0000
  H   H805      1.0  0.13669  0.33284  0.82772  1.0000
  H   H806      1.0  0.23496  0.41870  0.94617  1.0000
  C   C483      1.0  0.17896  0.33639  0.73608  1.0000
  H   H807      1.0  0.00662  0.49409  0.84072  1.0000
  H   H808      1.0  0.00231  0.63442  0.90077  1.0000
  H   H809      1.0  0.04209  0.65986  0.76858  1.0000
  H   H810      1.0  0.12386  0.33414  0.73137  1.0000
  H   H811      1.0  0.24253  0.44331  0.99269  1.0000
  H   H812      1.0  0.20697  0.46546  0.99284  1.0000
  H   H813      1.0  0.11020  0.33981  0.81067  1.0000
  C   C484      1.0  0.07416  0.66123  0.99335  1.0000
  H   H814      1.0  0.24230  0.33712  0.77856  1.0000
  C   C485      1.0  0.19041  0.33638  0.81102  1.0000
  C   C486      1.0  0.16174  0.63194  0.99259  1.0000
  H   H815      1.0  0.22796  0.64179  0.99523  1.0000
  H   H816      1.0  0.14029  0.34151  0.79402  1.0000
  H   H817      1.0  0.01263  0.66208  0.89193  1.0000
  H   H818      1.0  0.01810  0.66238  0.85970  1.0000
  S   S132      1.0  0.15767  0.33177  0.73941  1.0000
  H   H819      1.0  0.08693  0.66233  0.99498  1.0000
  H   H820      1.0  0.12642  0.33326  0.68497  1.0000
  H   H821      1.0  0.10497  0.37064  0.99368  1.0000
  H   H822      1.0  0.21788  0.41663  0.99396  1.0000
  H   H823      1.0  0.10430  0.33098  0.69395  1.0000
  S   S133      1.0  0.11296  0.94077  0.33243  1.0000
  Fe  Fe68      1.0  0.21985  0.91637  0.23018  1.0000
  S   S134      1.0  0.21953  0.93410  0.24824  1.0000
  Fe  Fe69      1.0  0.17975  0.92664  0.23253  1.0000
  S   S135      1.0  0.17563  0.94530  0.25041  1.0000
  S   S136      1.0  0.15535  0.92397  0.22503  1.0000
  Fe  Fe70      1.0  0.20017  0.95409  0.23270  1.0000
  H   H824      1.0  0.19357  0.84506  0.47802  1.0000
  Fe  Fe71      1.0  0.19489  0.92439  0.26456  1.0000
  S   S137      1.0  0.18843  0.91611  0.29416  1.0000
  S   S138      1.0  0.20262  0.93726  0.21302  1.0000
  S   S139      1.0  0.19698  0.90470  0.24836  1.0000
  Fe  Fe72      1.0  0.10056  0.88015  0.41872  1.0000
  S   S140      1.0  0.13004  0.87335  0.40821  1.0000
  S   S141      1.0  0.08464  0.90815  0.41325  1.0000
  Fe  Fe73      1.0  0.09894  0.84310  0.43927  1.0000
  S   S142      1.0  0.12845  0.83261  0.43098  1.0000
  S   S143      1.0  0.07845  0.82715  0.45603  1.0000
  Fe  Fe74      1.0  0.13138  0.85819  0.43598  1.0000
  S   S144      1.0  0.15486  0.85988  0.44603  1.0000
  Fe  Fe75      1.0  0.12544  0.84838  0.40348  1.0000
  S   S145      1.0  0.14465  0.84025  0.37870  1.0000
  S   S146      1.0  0.10216  0.86709  0.44707  1.0000
  S   S147      1.0  0.09548  0.85686  0.41129  1.0000
  Fe  Fe76      1.0  0.15226  0.80059  0.29736  1.0000
  S   S148      1.0  0.17843  0.78186  0.28906  1.0000
  S   S149      1.0  0.13417  0.79863  0.32492  1.0000
  Fe  Fe77      1.0  0.15426  0.82427  0.26056  1.0000
  S   S150      1.0  0.18065  0.80820  0.24937  1.0000
  S   S151      1.0  0.13968  0.84659  0.24224  1.0000
  Fe  Fe78      1.0  0.16883  0.78423  0.26383  1.0000
  S   S152      1.0  0.17585  0.76219  0.24787  1.0000
  Fe  Fe79      1.0  0.18803  0.80721  0.27506  1.0000
  S   S153      1.0  0.21476  0.81275  0.27453  1.0000
  S   S154      1.0  0.14176  0.80051  0.27351  1.0000
  S   S155      1.0  0.16257  0.82575  0.28487  1.0000
  H   H825      1.0  0.00223  0.89378  0.49253  1.0000
  S   S156      1.0  0.22837  0.86672  0.35778  1.0000
  H   H826      1.0  0.22809  0.71673  0.13835  1.0000
  S   S157      1.0  0.22492  0.86588  0.40686  1.0000
  H   H827      1.0  0.08125  0.68732  0.12314  1.0000
  S   S158      1.0  0.21638  0.82463  0.34982  1.0000
  H   H828      1.0  0.00836  0.85448  0.46648  1.0000
  Fe  Fe80      1.0  0.20242  0.95376  0.43645  1.0000
  S   S159      1.0  0.19944  0.94324  0.46604  1.0000
  H   H829      1.0  0.08671  0.97068  0.41351  1.0000
  H   H830      1.0  0.12856  0.79347  0.18910  1.0000
  H   H831      1.0  0.20736  0.83095  0.23140  1.0000
  Fe  Fe81      1.0  0.18995  0.97226  0.46824  1.0000
  H   H832      1.0  0.13461  0.93960  0.26358  1.0000
  Fe  Fe82      1.0  0.17104  0.94386  0.46554  1.0000
  S   S160      1.0  0.15522  0.92267  0.48094  1.0000
  H   H833      1.0  0.17249  0.66595  0.06615  1.0000
  S   S161      1.0  0.17472  0.95231  0.43589  1.0000
  N   N35       1.0  0.21932  0.86777  0.46981  1.0000
  H   H834      1.0  0.23803  0.83508  0.31421  1.0000
  H   H835      1.0  0.21798  0.86276  0.44473  1.0000
  C   C487      1.0  0.23068  0.88600  0.31453  1.0000
  H   H836      1.0  0.24493  0.82127  0.21335  1.0000
  S   S162      1.0  0.09804  0.69741  0.02807  1.0000
  C   C488      1.0  0.15802  0.69347  0.06007  1.0000
  H   H837      1.0  0.17654  0.70569  0.02661  1.0000
  Fe  Fe83      1.0  0.10318  0.68601  0.05601  1.0000
  S   S163      1.0  0.09993  0.70441  0.07486  1.0000
  C   C489      1.0  0.02268  0.89332  0.46753  1.0000
  H   H838      1.0  0.18307  0.66824  0.21731  1.0000
  Fe  Fe84      1.0  0.14300  0.71057  0.15098  1.0000
  S   S164      1.0  0.13608  0.74070  0.14630  1.0000
  S   S165      1.0  0.13068  0.69040  0.14497  1.0000
  Fe  Fe85      1.0  0.17817  0.70888  0.16128  1.0000
  S   S166      1.0  0.17454  0.73854  0.15670  1.0000
  S   S167      1.0  0.20346  0.69139  0.16898  1.0000
  Fe  Fe86      1.0  0.14632  0.73772  0.17134  1.0000
  S   S168      1.0  0.13329  0.75284  0.19392  1.0000
  Fe  Fe87      1.0  0.16499  0.73891  0.13234  1.0000
  S   S169      1.0  0.17359  0.75735  0.10616  1.0000
  S   S170      1.0  0.15041  0.70778  0.17736  1.0000
  S   S171      1.0  0.17122  0.70914  0.13581  1.0000
  H   H839      1.0  0.15516  0.98399  0.28194  1.0000
  C   C490      1.0  0.18689  0.74686  0.08871  1.0000
  C   C491      1.0  0.19113  0.75709  0.07145  1.0000
  C   C492      1.0  0.20196  0.74882  0.05751  1.0000
  C   C493      1.0  0.20862  0.73032  0.06087  1.0000
  C   C494      1.0  0.20408  0.72012  0.07798  1.0000
  C   C495      1.0  0.19352  0.72840  0.09186  1.0000
  H   H840      1.0  0.18606  0.77141  0.06886  1.0000
  H   H841      1.0  0.20535  0.75676  0.04422  1.0000
  H   H842      1.0  0.20865  0.70577  0.08057  1.0000
  H   H843      1.0  0.19092  0.72043  0.10500  1.0000
  C   C496      1.0  0.10989  0.70024  0.09353  1.0000
  C   C497      1.0  0.11976  0.68341  0.10016  1.0000
  C   C498      1.0  0.12670  0.68068  0.11557  1.0000
  C   C499      1.0  0.12403  0.69476  0.12432  1.0000
  C   C500      1.0  0.11473  0.71168  0.11728  1.0000
  C   C501      1.0  0.10757  0.71434  0.10208  1.0000
  H   H844      1.0  0.12182  0.67248  0.09359  1.0000
  C   C502      1.0  0.23236  0.67119  0.00477  1.0000
  H   H845      1.0  0.11247  0.72261  0.12394  1.0000
  H   H846      1.0  0.10000  0.72741  0.09705  1.0000
  H   H847      1.0  0.23746  0.82986  0.28475  1.0000
  Fe  Fe88      1.0  0.11467  0.96888  0.33108  1.0000
  C   C503      1.0  0.24587  0.74529  0.12712  1.0000
  C   C504      1.0  0.03919  0.86825  0.45341  1.0000
  H   H848      1.0  0.12883  0.95545  0.29662  1.0000
  S   S172      1.0  0.24267  0.89564  0.21925  1.0000
  H   H849      1.0  0.23497  0.66430  0.15227  1.0000
  H   H850      1.0  0.12855  0.96801  0.45167  1.0000
  H   H851      1.0  0.19681  0.87511  0.22868  1.0000
  C   C505      1.0  0.02187  0.86178  0.48382  1.0000
  H   H852      1.0  0.24282  0.85264  0.23070  1.0000
  C   C506      1.0  0.20300  0.88243  0.47320  1.0000
  C   C507      1.0  0.22535  0.88736  0.40875  1.0000
  C   C508      1.0  0.21157  0.89580  0.42083  1.0000
  C   C509      1.0  0.21174  0.91263  0.42326  1.0000
  H   H853      1.0  0.20085  0.88918  0.42852  1.0000
  H   H854      1.0  0.20125  0.91889  0.43284  1.0000
  C   C510      1.0  0.16379  0.76059  0.23259  1.0000
  C   C511      1.0  0.17322  0.75362  0.21738  1.0000
  C   C512      1.0  0.16410  0.75144  0.20531  1.0000
  C   C513      1.0  0.14537  0.75574  0.20855  1.0000
  C   C514      1.0  0.13593  0.76261  0.22382  1.0000
  C   C515      1.0  0.14508  0.76507  0.23575  1.0000
  H   H855      1.0  0.18769  0.74995  0.21490  1.0000
  H   H856      1.0  0.17156  0.74628  0.19357  1.0000
  H   H857      1.0  0.12145  0.76590  0.22653  1.0000
  H   H858      1.0  0.13764  0.77006  0.24761  1.0000
  C   C516      1.0  0.21586  0.81572  0.29538  1.0000
  C   C517      1.0  0.22831  0.82483  0.29666  1.0000
  C   C518      1.0  0.22864  0.82780  0.31329  1.0000
  C   C519      1.0  0.21667  0.82142  0.32866  1.0000
  C   C520      1.0  0.20463  0.81193  0.32736  1.0000
  C   C521      1.0  0.20410  0.80923  0.31078  1.0000
  S   S173      1.0  0.08742  0.66475  0.06110  1.0000
  H   H859      1.0  0.18355  0.89541  0.40126  1.0000
  H   H860      1.0  0.19555  0.80670  0.33923  1.0000
  H   H861      1.0  0.19461  0.80203  0.30992  1.0000
  H   H862      1.0  0.23017  0.88737  0.44758  1.0000
  H   H863      1.0  0.15236  0.73167  0.09698  1.0000
  C   C522      1.0  0.13596  0.72102  0.03796  1.0000
  H   H864      1.0  0.17973  0.83904  0.38270  1.0000
  H   H865      1.0  0.20984  0.71687  0.12928  1.0000
  H   H866      1.0  0.10796  0.80811  0.18542  1.0000
  H   H867      1.0  0.15980  0.80164  0.43494  1.0000
  C   C523      1.0  0.15236  0.87909  0.45436  1.0000
  C   C524      1.0  0.14209  0.88055  0.47138  1.0000
  C   C525      1.0  0.14274  0.89425  0.47923  1.0000
  C   C526      1.0  0.15360  0.90660  0.47010  1.0000
  C   C527      1.0  0.16338  0.90549  0.45283  1.0000
  C   C528      1.0  0.16280  0.89172  0.44504  1.0000
  H   H868      1.0  0.13423  0.87067  0.47882  1.0000
  H   H869      1.0  0.13515  0.89502  0.49261  1.0000
  H   H870      1.0  0.17173  0.91493  0.44567  1.0000
  H   H871      1.0  0.17078  0.89053  0.43195  1.0000
  C   C529      1.0  0.14144  0.82787  0.36464  1.0000
  C   C530      1.0  0.12524  0.82282  0.36679  1.0000
  C   C531      1.0  0.12318  0.81371  0.35464  1.0000
  C   C532      1.0  0.13715  0.80989  0.34012  1.0000
  C   C533      1.0  0.15333  0.81491  0.33806  1.0000
  C   C534      1.0  0.15552  0.82364  0.35039  1.0000
  H   H872      1.0  0.11430  0.82599  0.37771  1.0000
  H   H873      1.0  0.11064  0.80979  0.35637  1.0000
  H   H874      1.0  0.16420  0.81189  0.32706  1.0000
  H   H875      1.0  0.16808  0.82751  0.34867  1.0000
  C   C535      1.0  0.20894  0.90927  0.30065  1.0000
  C   C536      1.0  0.05854  0.66638  0.00569  1.0000
  C   C537      1.0  0.22033  0.92124  0.29665  1.0000
  H   H876      1.0  0.23328  0.75766  0.07499  1.0000
  H   H877      1.0  0.21637  0.93483  0.28956  1.0000
  C   C538      1.0  0.15103  0.90237  0.23064  1.0000
  C   C539      1.0  0.13978  0.89865  0.22180  1.0000
  C   C540      1.0  0.13632  0.88149  0.22563  1.0000
  C   C541      1.0  0.14398  0.86797  0.23842  1.0000
  C   C542      1.0  0.15497  0.87168  0.24761  1.0000
  C   C543      1.0  0.15847  0.88893  0.24372  1.0000
  H   H878      1.0  0.13387  0.90904  0.21181  1.0000
  H   H879      1.0  0.12770  0.87870  0.21861  1.0000
  H   H880      1.0  0.16068  0.86131  0.25768  1.0000
  H   H881      1.0  0.16665  0.89188  0.25100  1.0000
  C   C544      1.0  0.10361  0.93166  0.35449  1.0000
  C   C545      1.0  0.10779  0.91321  0.36093  1.0000
  C   C546      1.0  0.10168  0.90593  0.37895  1.0000
  C   C547      1.0  0.09120  0.91711  0.39051  1.0000
  C   C548      1.0  0.08644  0.93552  0.38395  1.0000
  C   C549      1.0  0.09263  0.94279  0.36592  1.0000
  H   H882      1.0  0.11598  0.90458  0.35209  1.0000
  H   H883      1.0  0.10506  0.89166  0.38385  1.0000
  H   H884      1.0  0.07808  0.94416  0.39280  1.0000
  H   H885      1.0  0.08869  0.95697  0.36082  1.0000
  H   H886      1.0  0.24815  0.89798  0.27292  1.0000
  H   H887      1.0  0.18297  0.97155  0.26267  1.0000
  H   H888      1.0  0.21082  0.92979  0.38364  1.0000
  H   H889      1.0  0.17400  0.73250  0.04929  1.0000
  C   C550      1.0  0.17375  0.67937  0.06677  1.0000
  N   N36       1.0  0.13901  0.81934  0.20284  1.0000
  C   C551      1.0  0.13076  0.81397  0.22237  1.0000
  C   C552      1.0  0.15517  0.80504  0.19797  1.0000
  C   C553      1.0  0.12596  0.82129  0.19129  1.0000
  C   C554      1.0  0.14420  0.83705  0.19980  1.0000
  C   C555      1.0  0.13723  0.94953  0.28521  1.0000
  C   C556      1.0  0.17085  0.80249  0.20716  1.0000
  C   C557      1.0  0.18015  0.90737  0.39077  1.0000
  C   C558      1.0  0.15467  0.84388  0.18092  1.0000
  H   H890      1.0  0.12928  0.79988  0.22583  1.0000
  H   H891      1.0  0.13970  0.81442  0.23089  1.0000
  H   H892      1.0  0.16045  0.80739  0.18329  1.0000
  H   H893      1.0  0.15145  0.79181  0.20148  1.0000
  C   C559      1.0  0.23922  0.89599  0.39880  1.0000
  H   H894      1.0  0.13241  0.82434  0.17690  1.0000
  H   H895      1.0  0.13216  0.84777  0.20248  1.0000
  H   H896      1.0  0.15245  0.83651  0.20936  1.0000
  H   H897      1.0  0.19343  0.95231  0.35422  1.0000
  H   H898      1.0  0.24920  0.85883  0.44005  1.0000
  H   H899      1.0  0.16917  0.70727  0.08353  1.0000
  H   H900      1.0  0.18167  0.79137  0.20284  1.0000
  H   H901      1.0  0.17675  0.81448  0.20354  1.0000
  H   H902      1.0  0.16683  0.79857  0.22188  1.0000
  H   H903      1.0  0.01263  0.89466  0.45948  1.0000
  C   C560      1.0  0.19618  0.90749  0.37477  1.0000
  C   C561      1.0  0.19911  0.67030  0.17998  1.0000
  H   H904      1.0  0.16780  0.83483  0.17751  1.0000
  H   H905      1.0  0.15748  0.85701  0.18051  1.0000
  H   H906      1.0  0.14692  0.84608  0.17050  1.0000
  N   N37       1.0  0.16595  0.68947  0.23014  1.0000
  Fe  Fe89      1.0  0.12358  0.67816  0.01986  1.0000
  C   C562      1.0  0.17366  0.70248  0.21420  1.0000
  C   C563      1.0  0.14879  0.68681  0.22732  1.0000
  C   C564      1.0  0.16307  0.69505  0.24763  1.0000
  H   H907      1.0  0.21479  0.90301  0.47728  1.0000
  C   C565      1.0  0.19198  0.70571  0.21435  1.0000
  C   C566      1.0  0.13326  0.70328  0.22605  1.0000
  C   C567      1.0  0.15592  0.71520  0.24776  1.0000
  H   H908      1.0  0.22543  0.80337  0.41748  1.0000
  H   H909      1.0  0.13398  0.66757  0.12088  1.0000
  H   H910      1.0  0.16453  0.71568  0.21221  1.0000
  H   H911      1.0  0.17536  0.69778  0.20170  1.0000
  H   H912      1.0  0.23893  0.88368  0.46686  1.0000
  H   H913      1.0  0.11138  0.80002  0.20770  1.0000
  H   H914      1.0  0.15379  0.68757  0.25823  1.0000
  H   H915      1.0  0.14315  0.67668  0.23848  1.0000
  H   H916      1.0  0.05633  0.87223  0.42696  1.0000
  C   C568      1.0  0.22488  0.85664  0.48682  1.0000
  Fe  Fe90      1.0  0.08475  0.67427  0.03228  1.0000
  H   H917      1.0  0.19212  0.70911  0.22697  1.0000
  H   H918      1.0  0.20290  0.69403  0.21171  1.0000
  H   H919      1.0  0.14632  0.70612  0.08846  1.0000
  H   H920      1.0  0.12786  0.70749  0.23903  1.0000
  H   H921      1.0  0.16794  0.90614  0.38725  1.0000
  H   H922      1.0  0.12209  0.69963  0.22274  1.0000
  H   H923      1.0  0.14599  0.71671  0.26038  1.0000
  H   H924      1.0  0.14915  0.72313  0.23683  1.0000
  H   H925      1.0  0.16684  0.72149  0.24794  1.0000
  N   N38       1.0  0.15147  0.87870  0.31347  1.0000
  C   C569      1.0  0.17158  0.87223  0.31048  1.0000
  C   C570      1.0  0.14728  0.89688  0.31801  1.0000
  C   C571      1.0  0.14612  0.88044  0.29610  1.0000
  C   C572      1.0  0.14295  0.86518  0.32817  1.0000
  C   C573      1.0  0.17923  0.85433  0.30433  1.0000
  C   C574      1.0  0.15358  0.89753  0.33460  1.0000
  C   C575      1.0  0.12628  0.88819  0.29536  1.0000
  C   C576      1.0  0.12351  0.87147  0.33804  1.0000
  H   H926      1.0  0.17841  0.88237  0.30040  1.0000
  H   H927      1.0  0.17642  0.87029  0.32295  1.0000
  H   H928      1.0  0.13281  0.90298  0.32010  1.0000
  H   H929      1.0  0.15349  0.90642  0.30657  1.0000
  H   H930      1.0  0.15410  0.88890  0.28500  1.0000
  H   H931      1.0  0.14907  0.86717  0.29249  1.0000
  H   H932      1.0  0.14319  0.85335  0.32299  1.0000
  H   H933      1.0  0.15102  0.86001  0.33874  1.0000
  H   H934      1.0  0.19381  0.85057  0.30412  1.0000
  H   H935      1.0  0.17323  0.84330  0.31358  1.0000
  H   H936      1.0  0.17786  0.85534  0.29055  1.0000
  H   H937      1.0  0.14950  0.88716  0.34637  1.0000
  H   H938      1.0  0.16829  0.89627  0.33175  1.0000
  H   H939      1.0  0.14745  0.91077  0.33818  1.0000
  H   H940      1.0  0.11768  0.87895  0.30409  1.0000
  H   H941      1.0  0.12468  0.88955  0.28152  1.0000
  H   H942      1.0  0.12144  0.90173  0.29838  1.0000
  H   H943      1.0  0.11582  0.86101  0.33989  1.0000
  H   H944      1.0  0.11589  0.88408  0.33133  1.0000
  H   H945      1.0  0.12337  0.87252  0.35177  1.0000
  H   H946      1.0  0.19911  0.97595  0.28404  1.0000
  H   H947      1.0  0.12470  0.73192  0.03401  1.0000
  S   S174      1.0  0.22261  0.71987  0.04382  1.0000
  H   H948      1.0  0.21331  0.81048  0.38737  1.0000
  H   H949      1.0  0.09324  0.95810  0.26468  1.0000
  N   N39       1.0  0.03315  0.87430  0.47098  1.0000
  H   H950      1.0  0.14283  0.97548  0.25358  1.0000
  H   H951      1.0  0.15949  0.74166  0.07406  1.0000
  H   H952      1.0  0.19136  0.94503  0.39219  1.0000
  Fe  Fe91      1.0  0.23576  0.83843  0.35421  1.0000
  H   H953      1.0  0.20499  0.79586  0.40673  1.0000
  C   C577      1.0  0.18905  0.84012  0.39046  1.0000
  H   H954      1.0  0.13080  0.70852  0.04200  1.0000
  H   H955      1.0  0.14537  0.68966  0.06843  1.0000
  C   C578      1.0  0.16802  0.98871  0.39705  1.0000
  H   H956      1.0  0.19923  0.88084  0.19632  1.0000
  N   N40       1.0  0.15768  0.71258  0.06005  1.0000
  C   C579      1.0  0.09480  0.99547  0.26836  1.0000
  H   H957      1.0  0.13680  0.71470  0.21534  1.0000
  H   H958      1.0  0.12930  0.72443  0.06468  1.0000
  N   N41       1.0  0.23539  0.75006  0.11253  1.0000
  H   H959      1.0  0.16649  0.92544  0.36151  1.0000
  H   H960      1.0  0.16388  0.82276  0.40882  1.0000
  H   H961      1.0  0.07334  0.96245  0.43445  1.0000
  H   H962      1.0  0.24994  0.76137  0.38467  1.0000
  H   H963      1.0  0.21740  0.83330  0.20883  1.0000
  C   C580      1.0  0.18927  0.80254  0.38695  1.0000
  H   H964      1.0  0.19741  0.79106  0.38090  1.0000
  H   H965      1.0  0.17728  0.79815  0.39612  1.0000
  H   H966      1.0  0.18506  0.81327  0.37580  1.0000
  H   H967      1.0  0.18285  0.79321  0.42904  1.0000
  H   H968      1.0  0.19265  0.98857  0.31934  1.0000
  H   H969      1.0  0.15145  0.68148  0.21497  1.0000
  H   H970      1.0  0.00532  0.91510  0.47952  1.0000
  C   C581      1.0  0.17301  0.80528  0.43225  1.0000
  H   H971      1.0  0.19910  0.69668  0.99653  1.0000
  C   C582      1.0  0.23872  0.77386  0.36037  1.0000
  H   H972      1.0  0.12092  0.95479  0.22918  1.0000
  C   C583      1.0  0.17364  0.82199  0.41699  1.0000
  C   C584      1.0  0.14139  0.72487  0.05367  1.0000
  C   C585      1.0  0.23983  0.77300  0.37973  1.0000
  C   C586      1.0  0.20350  0.82718  0.41594  1.0000
  H   H973      1.0  0.23247  0.76257  0.36120  1.0000
  H   H974      1.0  0.22881  0.78625  0.35634  1.0000
  H   H975      1.0  0.19454  0.71553  0.02472  1.0000
  H   H976      1.0  0.13050  0.94459  0.45481  1.0000
  H   H977      1.0  0.11459  0.83286  0.19326  1.0000
  H   H978      1.0  0.21821  0.88881  0.18186  1.0000
  S   S175      1.0  0.05899  0.67431  0.02451  1.0000
  N   N42       1.0  0.21948  0.85424  0.22043  1.0000
  S   S176      1.0  0.09741  0.99348  0.31800  1.0000
  H   H979      1.0  0.18057  0.66869  0.02690  1.0000
  N   N43       1.0  0.11976  0.94736  0.42165  1.0000
  C   C587      1.0  0.12149  0.95343  0.40169  1.0000
  C   C588      1.0  0.10048  0.94666  0.43009  1.0000
  C   C589      1.0  0.13117  0.92902  0.42653  1.0000
  C   C590      1.0  0.12593  0.96045  0.42823  1.0000
  C   C591      1.0  0.14076  0.95093  0.39051  1.0000
  H   H980      1.0  0.02172  0.90209  0.49197  1.0000
  C   C592      1.0  0.12730  0.91405  0.41995  1.0000
  C   C593      1.0  0.12316  0.95778  0.44869  1.0000
  H   H981      1.0  0.11385  0.94659  0.39659  1.0000
  H   H982      1.0  0.11540  0.96792  0.39808  1.0000
  H   H983      1.0  0.09889  0.94057  0.44462  1.0000
  H   H984      1.0  0.09583  0.93773  0.42435  1.0000
  H   H985      1.0  0.14567  0.92922  0.42178  1.0000
  H   H986      1.0  0.12931  0.92444  0.44127  1.0000
  H   H987      1.0  0.14046  0.96000  0.42286  1.0000
  H   H988      1.0  0.11927  0.97446  0.42318  1.0000
  H   H989      1.0  0.14693  0.93663  0.39083  1.0000
  H   H990      1.0  0.14048  0.95740  0.37633  1.0000
  H   H991      1.0  0.14937  0.95721  0.39484  1.0000
  C   C594      1.0  0.20932  0.84131  0.21891  1.0000
  H   H992      1.0  0.07097  0.68316  0.09509  1.0000
  C   C595      1.0  0.00499  0.86078  0.47819  1.0000
  H   H993      1.0  0.12669  0.91755  0.40564  1.0000
  H   H994      1.0  0.11466  0.91013  0.42802  1.0000
  H   H995      1.0  0.13814  0.90199  0.42185  1.0000
  H   H996      1.0  0.10882  0.95966  0.45533  1.0000
  H   H997      1.0  0.18332  0.86105  0.21888  1.0000
  H   H998      1.0  0.17342  0.72983  0.02096  1.0000
  H   H999      1.0  0.09903  0.83246  0.47902  1.0000
  H   H1000     1.0  0.23638  0.84549  0.48385  1.0000
  C   C596      1.0  0.13296  0.97300  0.24740  1.0000
  H   H1001     1.0  0.18727  0.86319  0.46007  1.0000
  H   H1002     1.0  0.03009  0.84793  0.48614  1.0000
  C   C597      1.0  0.21184  0.77828  0.10149  1.0000
  H   H1003     1.0  0.24526  0.92506  0.29979  1.0000
  H   H1004     1.0  0.17319  0.67589  0.17354  1.0000
  C   C598      1.0  0.20068  0.80802  0.39690  1.0000
  H   H1005     1.0  0.21112  0.89313  0.20379  1.0000
  N   N44       1.0  0.19170  0.82393  0.40542  1.0000
  H   H1006     1.0  0.20193  0.84116  0.38072  1.0000
  H   H1007     1.0  0.16764  0.83353  0.42361  1.0000
  H   H1008     1.0  0.18038  0.86899  0.38384  1.0000
  H   H1009     1.0  0.19060  0.86155  0.40279  1.0000
  H   H1010     1.0  0.17472  0.80801  0.44466  1.0000
  C   C599      1.0  0.18163  0.85836  0.39603  1.0000
  C   C600      1.0  0.15627  0.71367  0.07915  1.0000
  H   H1011     1.0  0.19971  0.96254  0.30583  1.0000
  H   H1012     1.0  0.04582  0.85380  0.45550  1.0000
  C   C601      1.0  0.11230  0.82539  0.22909  1.0000
  C   C602      1.0  0.08713  0.82800  0.48723  1.0000
  C   C603      1.0  0.21416  0.89164  0.30944  1.0000
  H   H1013     1.0  0.20561  0.88224  0.31210  1.0000
  H   H1014     1.0  0.21083  0.93382  0.33421  1.0000
  H   H1015     1.0  0.21062  0.77273  0.09059  1.0000
  H   H1016     1.0  0.18529  0.98040  0.37350  1.0000
  H   H1017     1.0  0.24251  0.78553  0.38117  1.0000
  H   H1018     1.0  0.11255  0.83972  0.22677  1.0000
  C   C604      1.0  0.12586  0.94870  0.27245  1.0000
  H   H1019     1.0  0.14789  0.95708  0.27852  1.0000
  N   N45       1.0  0.11792  0.96644  0.26163  1.0000
  H   H1020     1.0  0.17728  0.91920  0.39680  1.0000
  H   H1021     1.0  0.17364  0.67885  0.08090  1.0000
  H   H1022     1.0  0.21691  0.87497  0.23424  1.0000
  H   H1023     1.0  0.16810  0.85914  0.40466  1.0000
  H   H1024     1.0  0.05045  0.81554  0.48388  1.0000
  H   H1025     1.0  0.23812  0.68494  0.13669  1.0000
  C   C605      1.0  0.11084  0.95010  0.24097  1.0000
  H   H1026     1.0  0.17592  0.69134  0.25232  1.0000
  C   C606      1.0  0.07981  0.67964  0.13713  1.0000
  C   C607      1.0  0.04973  0.87311  0.47775  1.0000
  H   H1027     1.0  0.10834  0.82072  0.24378  1.0000
  H   H1028     1.0  0.08698  0.68543  0.14379  1.0000
  H   H1029     1.0  0.19980  0.89079  0.46031  1.0000
  C   C608      1.0  0.19115  0.84934  0.21324  1.0000
  H   H1030     1.0  0.21067  0.74506  0.10986  1.0000
  H   H1031     1.0  0.21359  0.83472  0.40690  1.0000
  H   H1032     1.0  0.19548  0.83589  0.42548  1.0000
  H   H1033     1.0  0.20622  0.80153  0.43585  1.0000
  C   C609      1.0  0.05974  0.81845  0.49001  1.0000
  H   H1034     1.0  0.16384  0.93769  0.33146  1.0000
  H   H1035     1.0  0.23037  0.86434  0.49322  1.0000
  H   H1036     1.0  0.23805  0.86993  0.20197  1.0000
  H   H1037     1.0  0.17519  0.95169  0.33666  1.0000
  C   C610      1.0  0.23873  0.74376  0.08129  1.0000
  H   H1038     1.0  0.18127  0.91045  0.34825  1.0000
  H   H1039     1.0  0.14385  0.93578  0.29088  1.0000
  C   C611      1.0  0.21450  0.81072  0.42657  1.0000
  H   H1040     1.0  0.22108  0.81537  0.43474  1.0000
  H   H1041     1.0  0.06561  0.68186  0.14421  1.0000
  C   C612      1.0  0.17651  0.93803  0.33480  1.0000
  H   H1042     1.0  0.23162  0.71443  0.11532  1.0000
  C   C613      1.0  0.12811  0.99041  0.23379  1.0000
  H   H1043     1.0  0.18726  0.93535  0.32308  1.0000
  C   C614      1.0  0.19360  0.97574  0.29843  1.0000
  C   C615      1.0  0.21258  0.88294  0.19592  1.0000
  C   C616      1.0  0.15091  0.73263  0.08318  1.0000
  H   H1044     1.0  0.22673  0.77142  0.38869  1.0000
  C   C617      1.0  0.05213  0.87856  0.43874  1.0000
  N   N46       1.0  0.19472  0.92379  0.35980  1.0000
  H   H1045     1.0  0.20027  0.77635  0.11278  1.0000
  H   H1046     1.0  0.21303  0.85026  0.25976  1.0000
  H   H1047     1.0  0.05592  0.66865  0.10033  1.0000
  C   C618      1.0  0.21523  0.66562  0.01712  1.0000
  C   C619      1.0  0.22571  0.92117  0.41358  1.0000
  H   H1048     1.0  0.19790  0.84162  0.45584  1.0000
  H   H1049     1.0  0.17631  0.94514  0.37167  1.0000
  H   H1050     1.0  0.21328  0.91015  0.33989  1.0000
  H   H1051     1.0  0.11646  0.93639  0.24775  1.0000
  H   H1052     1.0  0.05742  0.67976  0.11682  1.0000
  S   S177      1.0  0.19515  0.98277  0.43847  1.0000
  H   H1053     1.0  0.22969  0.88282  0.26389  1.0000
  C   C620      1.0  0.19081  0.94120  0.36588  1.0000
  C   C621      1.0  0.04205  0.66506  0.00315  1.0000
  C   C622      1.0  0.22930  0.92059  0.35106  1.0000
  H   H1054     1.0  0.22829  0.73575  0.08559  1.0000
  H   H1055     1.0  0.19509  0.71713  0.20331  1.0000
  S   S178      1.0  0.14036  0.97715  0.31657  1.0000
  H   H1056     1.0  0.19074  0.87719  0.48011  1.0000
  C   C623      1.0  0.06522  0.67286  0.10595  1.0000
  C   C624      1.0  0.11816  0.80468  0.19376  1.0000
  H   H1057     1.0  0.06085  0.86229  0.47308  1.0000
  H   H1058     1.0  0.15833  0.69160  0.04664  1.0000
  H   H1059     1.0  0.04565  0.89266  0.43406  1.0000
  C   C625      1.0  0.21914  0.74179  0.11983  1.0000
  S   S179      1.0  0.16271  0.98535  0.34905  1.0000
  S   S180      1.0  0.22589  0.94237  0.41641  1.0000
  C   C626      1.0  0.17923  0.67179  0.23062  1.0000
  H   H1060     1.0  0.22783  0.76460  0.33387  1.0000
  H   H1061     1.0  0.23714  0.74947  0.13949  1.0000
  H   H1062     1.0  0.19264  0.86635  0.26006  1.0000
  H   H1063     1.0  0.17772  0.69014  0.00203  1.0000
  C   C627      1.0  0.01255  0.90122  0.48402  1.0000
  S   S181      1.0  0.11322  0.97910  0.35527  1.0000
  H   H1064     1.0  0.14103  0.96255  0.23979  1.0000
  Fe  Fe92      1.0  0.23765  0.69298  0.05581  1.0000
  H   H1065     1.0  0.21043  0.74749  0.13139  1.0000
  H   H1066     1.0  0.23906  0.67623  0.01253  1.0000
  H   H1067     1.0  0.02764  0.86951  0.44736  1.0000
  C   C628      1.0  0.22567  0.86554  0.20231  1.0000
  H   H1068     1.0  0.20693  0.67749  0.02252  1.0000
  C   C629      1.0  0.22275  0.72128  0.12595  1.0000
  H   H1069     1.0  0.19297  0.85296  0.19846  1.0000
  H   H1070     1.0  0.23925  0.86931  0.28223  1.0000
  H   H1071     1.0  0.22638  0.84334  0.45968  1.0000
  H   H1072     1.0  0.22265  0.99168  0.27303  1.0000
  H   H1073     1.0  0.22946  0.93251  0.35569  1.0000
  C   C630      1.0  0.23454  0.87672  0.45880  1.0000
  S   S182      1.0  0.19740  0.98140  0.48988  1.0000
  H   H1074     1.0  0.22951  0.85757  0.19174  1.0000
  H   H1075     1.0  0.10169  0.82392  0.22318  1.0000
  S   S183      1.0  0.12974  0.66863  0.04717  1.0000
  C   C631      1.0  0.21621  0.85612  0.45908  1.0000
  H   H1076     1.0  0.24799  0.86461  0.26006  1.0000
  C   C632      1.0  0.21160  0.92209  0.34554  1.0000
  H   H1077     1.0  0.21056  0.79293  0.09648  1.0000
  C   C633      1.0  0.17946  0.92363  0.35175  1.0000
  C   C634      1.0  0.20870  0.86601  0.23333  1.0000
  H   H1078     1.0  0.14679  0.72047  0.02595  1.0000
  C   C635      1.0  0.23589  0.84358  0.22766  1.0000
  C   C636      1.0  0.07505  0.82434  0.47928  1.0000
  H   H1079     1.0  0.24302  0.78944  0.32546  1.0000
  C   C637      1.0  0.17975  0.71732  0.02925  1.0000
  H   H1080     1.0  0.13667  0.73881  0.08278  1.0000
  C   C638      1.0  0.24205  0.76229  0.32672  1.0000
  H   H1081     1.0  0.09946  0.94909  0.23583  1.0000
  H   H1082     1.0  0.19190  0.67263  0.23361  1.0000
  C   C639      1.0  0.10394  0.96324  0.25377  1.0000
  H   H1083     1.0  0.20822  0.90515  0.38028  1.0000
  H   H1084     1.0  0.11510  0.94161  0.28091  1.0000
  C   C640      1.0  0.17464  0.71838  0.04911  1.0000
  H   H1085     1.0  0.14293  0.73902  0.04992  1.0000
  H   H1086     1.0  0.17899  0.97649  0.30140  1.0000
  C   C641      1.0  0.19809  0.99056  0.30469  1.0000
  H   H1087     1.0  0.18636  0.71095  0.05518  1.0000
  H   H1088     1.0  0.24034  0.91994  0.33911  1.0000
  C   C642      1.0  0.20094  0.94197  0.37981  1.0000
  H   H1089     1.0  0.05503  0.88558  0.47209  1.0000
  H   H1090     1.0  0.11975  0.98444  0.27712  1.0000
  H   H1091     1.0  0.23492  0.87218  0.32075  1.0000
  S   S184      1.0  0.16114  0.97172  0.47050  1.0000
  H   H1092     1.0  0.23215  0.83418  0.24051  1.0000
  H   H1093     1.0  0.02988  0.66901  0.01258  1.0000
  H   H1094     1.0  0.21287  0.98780  0.30330  1.0000
  C   C643      1.0  0.08700  0.96472  0.42778  1.0000
  H   H1095     1.0  0.03163  0.90252  0.45932  1.0000
  Fe  Fe93      1.0  0.16701  0.98013  0.44070  1.0000
  H   H1096     1.0  0.19806  0.89519  0.36966  1.0000
  C   C644      1.0  0.17177  0.98597  0.37961  1.0000
  H   H1097     1.0  0.25072  0.73058  0.13089  1.0000
  H   H1098     1.0  0.23284  0.90818  0.36097  1.0000
  S   S185      1.0  0.22746  0.66806  0.06020  1.0000
  H   H1099     1.0  0.06449  0.87814  0.44299  1.0000
  H   H1100     1.0  0.22824  0.77626  0.11945  1.0000
  H   H1101     1.0  0.24899  0.73786  0.07069  1.0000
  H   H1102     1.0  0.20838  0.95298  0.37454  1.0000
  H   H1103     1.0  0.18248  0.83939  0.21852  1.0000
  H   H1104     1.0  0.18685  0.68158  0.05823  1.0000
  C   C645      1.0  0.23667  0.91571  0.30229  1.0000
  C   C646      1.0  0.22977  0.77028  0.10775  1.0000
  H   H1105     1.0  0.22891  0.66967  0.13111  1.0000
  C   C647      1.0  0.20439  0.89512  0.48428  1.0000
  H   H1106     1.0  0.13848  0.99026  0.22125  1.0000
  H   H1107     1.0  0.24885  0.74831  0.33137  1.0000
  Fe  Fe94      1.0  0.24083  0.85659  0.38168  1.0000
  S   S186      1.0  0.19885  0.98370  0.22593  1.0000
  C   C648      1.0  0.10935  0.97920  0.27416  1.0000
  H   H1108     1.0  0.24032  0.77615  0.09727  1.0000
  C   C649      1.0  0.19766  0.85129  0.46383  1.0000
  H   H1109     1.0  0.10264  0.97205  0.28729  1.0000
  S   S187      1.0  0.24364  0.68710  0.08313  1.0000
  H   H1110     1.0  0.19146  0.90489  0.48633  1.0000
  H   H1111     1.0  0.19432  0.84629  0.25310  1.0000
  C   C650      1.0  0.20191  0.85638  0.25256  1.0000
  C   C651      1.0  0.23943  0.91286  0.40128  1.0000
  H   H1112     1.0  0.08964  0.97443  0.43406  1.0000
  C   C652      1.0  0.15061  0.99630  0.40489  1.0000
  H   H1113     1.0  0.09688  0.97579  0.24624  1.0000
  H   H1114     1.0  0.24189  0.76409  0.31238  1.0000
  C   C653      1.0  0.24163  0.89815  0.31155  1.0000
  H   H1115     1.0  0.17865  0.98514  0.40437  1.0000
  C   C654      1.0  0.18251  0.66660  0.18108  1.0000
  C   C655      1.0  0.24750  0.74290  0.09670  1.0000
  H   H1116     1.0  0.11539  0.99195  0.22974  1.0000
  S   S188      1.0  0.24558  0.82788  0.37979  1.0000
  C   C656      1.0  0.17504  0.98441  0.25779  1.0000
  C   C657      1.0  0.23903  0.67058  0.13800  1.0000
  C   C658      1.0  0.15804  0.99033  0.37019  1.0000
  Fe  Fe95      1.0  0.13741  0.98972  0.33944  1.0000
  C   C659      1.0  0.24255  0.87529  0.26775  1.0000
  H   H1117     1.0  0.08236  0.99134  0.26867  1.0000
  C   C660      1.0  0.15944  0.99166  0.26894  1.0000
  C   C661      1.0  0.18043  0.99379  0.24044  1.0000
  H   H1118     1.0  0.24994  0.88958  0.38944  1.0000
  C   C662      1.0  0.25010  0.83207  0.21546  1.0000
  H   H1119     1.0  0.25025  0.91947  0.39368  1.0000
  S   S189      1.0  0.14540  0.68397  0.99601  1.0000
  C   C663      1.0  0.02570  0.76518  0.57087  1.0000
  C   C664      1.0  0.03175  0.69960  0.89576  1.0000
  N   N47       1.0  0.00474  0.91824  0.56544  1.0000
  H   H1120     1.0  0.04707  0.88916  0.55848  1.0000
  H   H1121     1.0  0.02739  0.93815  0.71955  1.0000
  S   S190      1.0  0.02564  0.85119  0.56297  1.0000
  H   H1122     1.0  0.03837  0.90015  0.57622  1.0000
  H   H1123     1.0  0.15421  0.97537  0.51265  1.0000
  S   S191      1.0  0.01778  0.81035  0.57335  1.0000
  H   H1124     1.0  0.06036  0.77357  0.50616  1.0000
  H   H1125     1.0  0.21304  0.67041  0.98111  1.0000
  C   C665      1.0  0.08393  0.82556  0.50593  1.0000
  Fe  Fe96      1.0  0.03497  0.82658  0.55128  1.0000
  S   S192      1.0  0.06414  0.81716  0.53997  1.0000
  H   H1126     1.0  0.02006  0.91911  0.66007  1.0000
  S   S193      1.0  0.01558  0.83537  0.53306  1.0000
  H   H1127     1.0  0.05583  0.71633  0.90510  1.0000
  C   C666      1.0  0.02112  0.90663  0.55618  1.0000
  C   C667      1.0  0.04719  0.71499  0.91876  1.0000
  S   S194      1.0  0.01846  0.90036  0.62956  1.0000
  H   H1128     1.0  0.02755  0.91093  0.69803  1.0000
  H   H1129     1.0  0.08179  0.69139  0.92010  1.0000
  C   C668      1.0  0.02000  0.85786  0.60985  1.0000
  C   C669      1.0  0.02508  0.87162  0.61414  1.0000
  C   C670      1.0  0.03412  0.91613  0.66160  1.0000
  C   C671      1.0  0.03429  0.89374  0.56756  1.0000
  H   H1130     1.0  0.04406  0.75354  0.51246  1.0000
  H   H1131     1.0  0.02892  0.85069  0.59998  1.0000
  H   H1132     1.0  0.03783  0.87516  0.60743  1.0000
  C   C672      1.0  0.03600  0.69174  0.94479  1.0000
  C   C673      1.0  0.05635  0.81647  0.50859  1.0000
  C   C674      1.0  0.15004  0.98969  0.51355  1.0000
  C   C675      1.0  0.00762  0.67246  0.86536  1.0000
  H   H1133     1.0  0.01083  0.94229  0.54651  1.0000
  H   H1134     1.0  0.00298  0.92961  0.68682  1.0000
  H   H1135     1.0  0.02256  0.75701  0.58457  1.0000
  C   C676      1.0  0.01893  0.70420  0.95280  1.0000
  H   H1136     1.0  0.06662  0.72813  0.92222  1.0000
  H   H1137     1.0  0.01964  0.71849  0.94819  1.0000
  C   C677      1.0  0.02741  0.69695  0.91632  1.0000
  C   C678      1.0  0.19092  0.68949  0.99272  1.0000
  H   H1138     1.0  0.07423  0.78023  0.51636  1.0000
  H   H1139     1.0  0.06204  0.75824  0.54563  1.0000
  C   C679      1.0  0.06676  0.76972  0.51778  1.0000
  C   C680      1.0  0.03335  0.95466  0.68346  1.0000
  C   C681      1.0  0.01332  0.88136  0.62648  1.0000
  S   S195      1.0  0.06288  0.99151  0.64284  1.0000
  C   C682      1.0  0.03823  0.97744  0.63514  1.0000
  C   C683      1.0  0.02089  0.97484  0.63668  1.0000
  H   H1140     1.0  0.03686  0.77144  0.57028  1.0000
  H   H1141     1.0  0.02615  0.74505  0.52772  1.0000
  C   C684      1.0  0.03204  0.92293  0.69847  1.0000
  H   H1142     1.0  0.04976  0.96883  0.62868  1.0000
  H   H1143     1.0  0.01914  0.96434  0.63135  1.0000
  H   H1144     1.0  0.01173  0.78042  0.64137  1.0000
  C   C685      1.0  0.05389  0.76790  0.53629  1.0000
  H   H1145     1.0  0.03677  0.90352  0.67156  1.0000
  C   C686      1.0  0.00494  0.80104  0.66629  1.0000
  H   H1146     1.0  0.05413  0.66931  0.92265  1.0000
  C   C687      1.0  0.03930  0.74824  0.52686  1.0000
  C   C688      1.0  0.15508  0.66432  0.98776  1.0000
  S   S196      1.0  0.00191  0.68576  0.83133  1.0000
  H   H1147     1.0  0.04463  0.81181  0.51680  1.0000
  C   C689      1.0  0.05235  0.73034  0.53191  1.0000
  Fe  Fe97      1.0  0.00491  0.85858  0.54645  1.0000
  H   H1148     1.0  0.01718  0.86532  0.49716  1.0000
  H   H1149     1.0  0.00865  0.92871  0.71989  1.0000
  H   H1150     1.0  0.00690  0.94695  0.66781  1.0000
  H   H1151     1.0  0.03313  0.67810  0.94855  1.0000
  H   H1152     1.0  0.02916  0.88188  0.57576  1.0000
  H   H1153     1.0  0.19690  0.85587  0.50199  1.0000
  H   H1154     1.0  0.01523  0.94969  0.57170  1.0000
  H   H1155     1.0  0.20739  0.99340  0.51600  1.0000
  H   H1156     1.0  0.00317  0.92268  0.52928  1.0000
  C   C690      1.0  0.02128  0.78586  0.66967  1.0000
  H   H1157     1.0  0.02934  0.91469  0.54494  1.0000
  H   H1158     1.0  0.05085  0.78093  0.54049  1.0000
  C   C691      1.0  0.02205  0.77753  0.53318  1.0000
  C   C692      1.0  0.02155  0.93553  0.57652  1.0000
  H   H1159     1.0  0.03864  0.71080  0.88902  1.0000
  C   C693      1.0  0.00784  0.92348  0.58112  1.0000
  H   H1160     1.0  0.02243  0.68430  0.92179  1.0000
  N   N48       1.0  0.02809  0.93791  0.68287  1.0000
  C   C694      1.0  0.02340  0.92672  0.71722  1.0000
  H   H1161     1.0  0.15507  0.98278  0.53995  1.0000
  H   H1162     1.0  0.01714  0.70087  0.96759  1.0000
  H   H1163     1.0  0.00862  0.80369  0.63243  1.0000
  H   H1164     1.0  0.05877  0.94255  0.69282  1.0000
  C   C695      1.0  0.05659  0.72031  0.93082  1.0000
  H   H1165     1.0  0.06495  0.73224  0.53401  1.0000
  N   N49       1.0  0.04246  0.69679  0.92483  1.0000
  H   H1166     1.0  0.02615  0.93493  0.58879  1.0000
  C   C696      1.0  0.04819  0.86895  0.49819  1.0000
  H   H1167     1.0  0.03349  0.93134  0.56635  1.0000
  H   H1168     1.0  0.02598  0.95975  0.69569  1.0000
  H   H1169     1.0  0.08493  0.66798  0.92177  1.0000
  H   H1170     1.0  0.06152  0.95174  0.66887  1.0000
  H   H1171     1.0  0.21352  0.84625  0.51460  1.0000
  H   H1172     1.0  0.02172  0.77657  0.50563  1.0000
  H   H1173     1.0  0.00104  0.88102  0.58142  1.0000
  H   H1174     1.0  0.04673  0.91859  0.69772  1.0000
  H   H1175     1.0  0.01218  0.91163  0.59132  1.0000
  C   C697      1.0  0.06843  0.81994  0.51661  1.0000
  H   H1176     1.0  0.04688  0.72947  0.93904  1.0000
  C   C698      1.0  0.15895  0.99254  0.52745  1.0000
  Fe  Fe98      1.0  0.00642  0.83592  0.58324  1.0000
  H   H1177     1.0  0.03971  0.68711  0.89141  1.0000
  H   H1178     1.0  0.01706  0.89820  0.54938  1.0000
  H   H1179     1.0  0.06387  0.70911  0.93958  1.0000
  H   H1180     1.0  0.04597  0.72170  0.54407  1.0000
  H   H1181     1.0  0.04117  0.74160  0.56193  1.0000
  H   H1182     1.0  0.03483  0.72559  0.91759  1.0000
  N   N50       1.0  0.03684  0.76180  0.53798  1.0000
  H   H1183     1.0  0.05590  0.72293  0.52095  1.0000
  H   H1184     1.0  0.06261  0.68524  0.90414  1.0000
  H   H1185     1.0  0.16582  0.67804  0.96139  1.0000
  C   C699      1.0  0.03065  0.75304  0.55726  1.0000
  C   C700      1.0  0.05814  0.68248  0.91891  1.0000
  H   H1186     1.0  0.01873  0.74732  0.55883  1.0000
  H   H1187     1.0  0.05356  0.92747  0.66652  1.0000
  C   C701      1.0  0.02282  0.78599  0.51323  1.0000
  H   H1188     1.0  0.04633  0.69068  0.95228  1.0000
  C   C702      1.0  0.00851  0.94197  0.68194  1.0000
  C   C703      1.0  0.00337  0.85353  0.61829  1.0000
  C   C704      1.0  0.03910  0.93181  0.66603  1.0000
  H   H1189     1.0  0.02130  0.78859  0.53973  1.0000
  H   H1190     1.0  0.01564  0.70778  0.91957  1.0000
  H   H1191     1.0  0.09335  0.82822  0.51209  1.0000
  H   H1192     1.0  0.05511  0.96614  0.68417  1.0000
  H   H1193     1.0  0.06079  0.87017  0.50102  1.0000
  H   H1194     1.0  0.01349  0.77559  0.56904  1.0000
  H   H1195     1.0  0.02805  0.91484  0.72729  1.0000
  H   H1196     1.0  0.22952  0.68214  0.99325  1.0000
  H   H1197     1.0  0.03822  0.94305  0.65426  1.0000
  H   H1198     1.0  0.00882  0.77360  0.53827  1.0000
  H   H1199     1.0  0.01732  0.77343  0.67820  1.0000
  C   C705      1.0  0.00593  0.98542  0.64564  1.0000
  C   C706      1.0  0.04081  0.99073  0.64237  1.0000
  C   C707      1.0  0.05339  0.95333  0.68230  1.0000
  H   H1200     1.0  0.02940  0.96561  0.67230  1.0000
  H   H1201     1.0  0.00683  0.70209  0.94975  1.0000
  H   H1202     1.0  0.04259  0.91360  0.64854  1.0000
  H   H1203     1.0  0.01904  0.70280  0.89099  1.0000
  H   H1204     1.0  0.07726  0.75735  0.51690  1.0000
  H   H1205     1.0  0.02924  0.79014  0.67680  1.0000
  C   C708      1.0  0.16469  0.66519  0.97012  1.0000
  H   H1206     1.0  0.18829  0.69683  0.97934  1.0000
  H   H1207     1.0  0.17096  0.98451  0.55863  1.0000
  H   H1208     1.0  0.03032  0.78301  0.65700  1.0000
  H   H1209     1.0  0.04674  0.85497  0.50417  1.0000
  H   H1210     1.0  0.07283  0.67697  0.94073  1.0000
  C   C709      1.0  0.07521  0.67984  0.92598  1.0000
  C   C710      1.0  0.00127  0.79296  0.64023  1.0000
  H   H1211     1.0  0.13524  0.99279  0.51735  1.0000
  H   H1212     1.0  0.01110  0.79732  0.51206  1.0000
  H   H1213     1.0  0.15456  0.99737  0.49993  1.0000
  C   C711      1.0  0.00450  0.67225  0.88368  1.0000
  H   H1214     1.0  0.01015  0.81280  0.65731  1.0000
  H   H1215     1.0  0.03478  0.79174  0.50696  1.0000
  H   H1216     1.0  0.17368  0.98806  0.52291  1.0000
  H   H1217     1.0  0.03703  0.87798  0.50519  1.0000
  H   H1218     1.0  0.19201  0.66462  0.98623  1.0000
  C   C712      1.0  0.20058  0.67006  0.99163  1.0000
  H   H1219     1.0  0.21106  0.83435  0.49923  1.0000
  C   C713      1.0  0.21068  0.84780  0.50122  1.0000
  H   H1220     1.0  0.21362  0.99673  0.63727  1.0000
  H   H1221     1.0  0.20674  0.88792  0.49774  1.0000
  C   C714      1.0  0.50052  0.16194  0.00178  1.0000
  C   C715      1.0  0.45347  0.14531  0.02356  1.0000
  H   H1222     1.0  0.47969  0.11113  0.01976  1.0000
  H   H1223     1.0  0.41800  0.09869  0.01214  1.0000
  H   H1224     1.0  0.43826  0.00135  0.18740  1.0000
  C   C716      1.0  0.48993  0.00935  0.13283  1.0000
  H   H1225     1.0  0.46668  0.14619  0.01467  1.0000
  N   N51       1.0  0.44888  0.12627  0.00357  1.0000
  H   H1226     1.0  0.47768  0.09434  0.00899  1.0000
  S   S197      1.0  0.49987  0.17106  0.02010  1.0000
  H   H1227     1.0  0.43358  0.00904  0.00691  1.0000
  H   H1228     1.0  0.49421  0.01447  0.11825  1.0000
  H   H1229     1.0  0.29572  0.08473  0.44789  1.0000
  H   H1230     1.0  0.29322  0.08833  0.47827  1.0000
  H   H1231     1.0  0.27452  0.10094  0.46927  1.0000
  H   H1232     1.0  0.36430  0.00059  0.00186  1.0000
  H   H1233     1.0  0.46793  0.00880  0.16580  1.0000
  H   H1234     1.0  0.45604  0.14248  0.03724  1.0000
  H   H1235     1.0  0.43060  0.13452  0.02688  1.0000
  Fe  Fe99      1.0  0.37975  0.03212  0.00310  1.0000
  C   C717      1.0  0.28101  0.08700  0.47478  1.0000
  H   H1236     1.0  0.49475  0.10685  0.99956  1.0000
  H   H1237     1.0  0.48184  0.02097  0.13863  1.0000
  H   H1238     1.0  0.44418  0.15853  0.02131  1.0000
  C   C718      1.0  0.42160  0.11116  0.01263  1.0000
  C   C719      1.0  0.48057  0.10776  0.00681  1.0000
  H   H1239     1.0  0.41751  0.11252  0.02677  1.0000
  H   H1240     1.0  0.29671  0.06370  0.46318  1.0000
  H   H1241     1.0  0.44929  0.11818  0.03192  1.0000
  C   C720      1.0  0.25265  0.07597  0.48613  1.0000
  H   H1242     1.0  0.41356  0.12227  0.00442  1.0000
  C   C721      1.0  0.44526  0.13038  0.02184  1.0000
  H   H1243     1.0  0.25633  0.06487  0.47882  1.0000
  S   S198      1.0  0.38106  0.00885  0.02651  1.0000
  C   C722      1.0  0.44431  0.00176  0.99749  1.0000
  H   H1244     1.0  0.46729  0.00185  0.12937  1.0000
  C   C723      1.0  0.28772  0.07678  0.45938  1.0000
  S   S199      1.0  0.38034  0.09524  0.00290  1.0000
  H   H1245     1.0  0.42539  0.14693  0.99851  1.0000
  H   H1246     1.0  0.27666  0.07478  0.45451  1.0000
  S   S200      1.0  0.35830  0.05715  0.00287  1.0000
  N   N52       1.0  0.26874  0.07869  0.49105  1.0000
  C   C724      1.0  0.46861  0.12230  0.99532  1.0000
  H   H1247     1.0  0.28257  0.05135  0.49008  1.0000
  H   H1248     1.0  0.44844  0.09815  0.01470  1.0000
  C   C725      1.0  0.46068  0.99899  0.16477  1.0000
  H   H1249     1.0  0.45021  0.00746  0.15732  1.0000
  H   H1250     1.0  0.37009  0.13274  0.00038  1.0000
  C   C726      1.0  0.44195  0.10970  0.00547  1.0000
  S   S201      1.0  0.42443  0.04159  0.94455  1.0000
  Fe  Fe100     1.0  0.30789  0.15377  0.91499  1.0000
  S   S202      1.0  0.30576  0.14577  0.94449  1.0000
  Fe  Fe101     1.0  0.33428  0.16636  0.88238  1.0000
  S   S203      1.0  0.31636  0.16950  0.86364  1.0000
  S   S204      1.0  0.36190  0.17152  0.87471  1.0000
  S   S205      1.0  0.31334  0.18086  0.90149  1.0000
  S   S206      1.0  0.33039  0.13905  0.89708  1.0000
  Fe  Fe102     1.0  0.40714  0.05715  0.85439  1.0000
  S   S207      1.0  0.40059  0.08639  0.84251  1.0000
  S   S208      1.0  0.39021  0.04534  0.87992  1.0000
  Fe  Fe103     1.0  0.44168  0.05000  0.82768  1.0000
  S   S209      1.0  0.43839  0.07863  0.81351  1.0000
  Fe  Fe104     1.0  0.42953  0.08491  0.84068  1.0000
  S   S210      1.0  0.43656  0.10826  0.84588  1.0000
  Fe  Fe105     1.0  0.40967  0.07794  0.81619  1.0000
  S   S211      1.0  0.39830  0.09617  0.79294  1.0000
  S   S212      1.0  0.43551  0.05636  0.85465  1.0000
  S   S213      1.0  0.41355  0.04839  0.82822  1.0000
  Fe  Fe106     1.0  0.31049  0.11734  0.76565  1.0000
  S   S214      1.0  0.31201  0.13209  0.73698  1.0000
  S   S215      1.0  0.32713  0.09023  0.77488  1.0000
  Fe  Fe107     1.0  0.28303  0.14725  0.78030  1.0000
  S   S216      1.0  0.28231  0.16435  0.75305  1.0000
  S   S217      1.0  0.26778  0.15891  0.80428  1.0000
  Fe  Fe108     1.0  0.28179  0.13928  0.74505  1.0000
  H   H1251     1.0  0.47081  0.11830  0.98235  1.0000
  Fe  Fe109     1.0  0.31227  0.15569  0.74765  1.0000
  S   S218      1.0  0.32861  0.17722  0.73559  1.0000
  S   S219      1.0  0.28032  0.12276  0.77301  1.0000
  S   S220      1.0  0.31291  0.14034  0.77554  1.0000
  Fe  Fe110     1.0  0.39310  0.21965  0.78894  1.0000
  S   S221      1.0  0.40152  0.18970  0.79392  1.0000
  S   S222      1.0  0.36699  0.23171  0.80514  1.0000
  Fe  Fe111     1.0  0.42566  0.22499  0.76018  1.0000
  S   S223      1.0  0.43681  0.19558  0.76271  1.0000
  S   S224      1.0  0.44017  0.24550  0.74079  1.0000
  Fe  Fe112     1.0  0.40861  0.19369  0.76420  1.0000
  S   S225      1.0  0.40391  0.17411  0.75067  1.0000
  Fe  Fe113     1.0  0.42880  0.19417  0.79238  1.0000
  S   S226      1.0  0.44662  0.17446  0.81030  1.0000
  S   S227      1.0  0.39806  0.22332  0.75915  1.0000
  S   S228      1.0  0.41979  0.22388  0.78973  1.0000
  C   C727      1.0  0.46705  0.15193  0.76856  1.0000
  S   S229      1.0  0.46162  0.17015  0.93073  1.0000
  H   H1252     1.0  0.40729  0.31946  0.68759  1.0000
  H   H1253     1.0  0.31905  0.17945  0.79864  1.0000
  S   S230      1.0  0.44637  0.14684  0.91143  1.0000
  H   H1254     1.0  0.46260  0.02179  0.92959  1.0000
  Fe  Fe114     1.0  0.46636  0.16429  0.90337  1.0000
  C   C728      1.0  0.39578  0.31770  0.66623  1.0000
  Fe  Fe115     1.0  0.44312  0.15104  0.93878  1.0000
  S   S231      1.0  0.41519  0.15912  0.95396  1.0000
  H   H1255     1.0  0.30333  0.11757  0.92944  1.0000
  H   H1256     1.0  0.28602  0.15570  0.69312  1.0000
  Fe  Fe116     1.0  0.27115  0.16958  0.59905  1.0000
  C   C729      1.0  0.34313  0.05318  0.91260  1.0000
  S   S232      1.0  0.27152  0.15052  0.62563  1.0000
  Fe  Fe117     1.0  0.28694  0.19817  0.57051  1.0000
  H   H1257     1.0  0.45796  0.31622  0.64794  1.0000
  S   S233      1.0  0.30828  0.21508  0.56090  1.0000
  H   H1258     1.0  0.36434  0.14559  0.85377  1.0000
  Fe  Fe118     1.0  0.26880  0.17283  0.56062  1.0000
  C   C730      1.0  0.49767  0.00866  0.87621  1.0000
  S   S234      1.0  0.26759  0.19905  0.59667  1.0000
  S   S235      1.0  0.29221  0.16807  0.57382  1.0000
  H   H1259     1.0  0.47316  0.15963  0.75555  1.0000
  C   C731      1.0  0.36702  0.30809  0.65419  1.0000
  Fe  Fe119     1.0  0.36361  0.28396  0.60329  1.0000
  S   S236      1.0  0.33536  0.28883  0.61857  1.0000
  S   S237      1.0  0.38309  0.26033  0.61488  1.0000
  Fe  Fe120     1.0  0.32798  0.29497  0.59177  1.0000
  S   S238      1.0  0.30492  0.28252  0.59200  1.0000
  H   H1260     1.0  0.27217  0.24107  0.56283  1.0000
  S   S239      1.0  0.26627  0.27688  0.89836  1.0000
  S   S240      1.0  0.35642  0.28843  0.57676  1.0000
  S   S241      1.0  0.36657  0.31192  0.59985  1.0000
  H   H1261     1.0  0.34701  0.03911  0.85889  1.0000
  Fe  Fe121     1.0  0.46060  0.26436  0.63903  1.0000
  H   H1262     1.0  0.25704  0.04698  0.51494  1.0000
  S   S242      1.0  0.44216  0.24867  0.66016  1.0000
  Fe  Fe122     1.0  0.47190  0.27004  0.59872  1.0000
  C   C732      1.0  0.26860  0.05101  0.51701  1.0000
  S   S243      1.0  0.46197  0.26716  0.57594  1.0000
  H   H1263     1.0  0.30295  0.06265  0.87996  1.0000
  Fe  Fe123     1.0  0.46888  0.30000  0.61680  1.0000
  H   H1264     1.0  0.47819  0.14291  0.77460  1.0000
  S   S244      1.0  0.48201  0.24882  0.62085  1.0000
  S   S245      1.0  0.44943  0.28427  0.61690  1.0000
  C   C733      1.0  0.36568  0.20116  0.58241  1.0000
  H   H1265     1.0  0.47484  0.03865  0.91823  1.0000
  Fe  Fe124     1.0  0.31027  0.14336  0.88026  1.0000
  C   C734      1.0  0.41204  0.31551  0.67443  1.0000
  C   C735      1.0  0.46841  0.31945  0.56349  1.0000
  H   H1266     1.0  0.33160  0.05986  0.86069  1.0000
  N   N53       1.0  0.34805  0.14207  0.81799  1.0000
  C   C736      1.0  0.27274  0.10228  0.68517  1.0000
  C   C737      1.0  0.48999  0.17166  0.98920  1.0000
  H   H1267     1.0  0.40948  0.11917  0.88137  1.0000
  H   H1268     1.0  0.31065  0.05152  0.90772  1.0000
  C   C738      1.0  0.34399  0.05120  0.86462  1.0000
  H   H1269     1.0  0.25667  0.10489  0.49724  1.0000
  N   N54       1.0  0.26476  0.19831  0.94432  1.0000
  C   C739      1.0  0.40508  0.26082  0.60306  1.0000
  C   C740      1.0  0.41933  0.25123  0.61133  1.0000
  C   C741      1.0  0.43690  0.25277  0.60273  1.0000
  C   C742      1.0  0.44035  0.26327  0.58552  1.0000
  C   C743      1.0  0.42620  0.27199  0.57681  1.0000
  C   C744      1.0  0.40849  0.27111  0.58572  1.0000
  H   H1270     1.0  0.41678  0.24319  0.62468  1.0000
  H   H1271     1.0  0.44780  0.24597  0.60953  1.0000
  H   H1272     1.0  0.42892  0.27989  0.56343  1.0000
  H   H1273     1.0  0.39753  0.27848  0.57921  1.0000
  H   H1274     1.0  0.34554  0.03171  0.93589  1.0000
  C   C745      1.0  0.30786  0.23320  0.57028  1.0000
  C   C746      1.0  0.29709  0.23557  0.58692  1.0000
  C   C747      1.0  0.29673  0.25046  0.59365  1.0000
  C   C748      1.0  0.30720  0.26306  0.58391  1.0000
  C   C749      1.0  0.31816  0.26054  0.56740  1.0000
  C   C750      1.0  0.31852  0.24566  0.56066  1.0000
  H   H1275     1.0  0.28894  0.22603  0.59454  1.0000
  H   H1276     1.0  0.28814  0.25235  0.60639  1.0000
  H   H1277     1.0  0.32599  0.27034  0.55960  1.0000
  H   H1278     1.0  0.32686  0.24398  0.54777  1.0000
  H   H1279     1.0  0.43591  0.30618  0.58168  1.0000
  C   C751      1.0  0.38297  0.31615  0.64205  1.0000
  H   H1280     1.0  0.43829  0.16801  0.97465  1.0000
  C   C752      1.0  0.47094  0.10728  0.78893  1.0000
  C   C753      1.0  0.46250  0.16656  0.85691  1.0000
  H   H1281     1.0  0.26943  0.12751  0.56694  1.0000
  H   H1282     1.0  0.25350  0.24029  0.58994  1.0000
  H   H1283     1.0  0.45926  0.02291  0.98461  1.0000
  H   H1284     1.0  0.43663  0.13625  0.98042  1.0000
  C   C754      1.0  0.37062  0.16006  0.79558  1.0000
  H   H1285     1.0  0.31571  0.08496  0.93578  1.0000
  H   H1286     1.0  0.32369  0.15927  0.82889  1.0000
  C   C755      1.0  0.36263  0.15017  0.83972  1.0000
  H   H1287     1.0  0.35757  0.31788  0.66184  1.0000
  H   H1288     1.0  0.37097  0.29565  0.66383  1.0000
  C   C756      1.0  0.25469  0.23675  0.88408  1.0000
  C   C757      1.0  0.33861  0.12802  0.81749  1.0000
  H   H1289     1.0  0.37837  0.20434  0.57384  1.0000
  C   C758      1.0  0.49091  0.16522  0.97398  1.0000
  C   C759      1.0  0.32915  0.08587  0.95573  1.0000
  C   C760      1.0  0.44013  0.24674  0.71845  1.0000
  C   C761      1.0  0.43541  0.23318  0.71361  1.0000
  C   C762      1.0  0.43610  0.23398  0.69560  1.0000
  C   C763      1.0  0.44137  0.24834  0.68245  1.0000
  C   C764      1.0  0.44597  0.26199  0.68725  1.0000
  C   C765      1.0  0.44542  0.26114  0.70527  1.0000
  H   H1290     1.0  0.43150  0.22196  0.72373  1.0000
  H   H1291     1.0  0.43293  0.22327  0.69176  1.0000
  H   H1292     1.0  0.44994  0.27317  0.67712  1.0000
  H   H1293     1.0  0.44904  0.27165  0.70905  1.0000
  C   C766      1.0  0.45084  0.17852  0.82953  1.0000
  C   C767      1.0  0.44681  0.19569  0.83303  1.0000
  C   C768      1.0  0.45105  0.19830  0.84821  1.0000
  C   C769      1.0  0.45866  0.18371  0.86035  1.0000
  C   C770      1.0  0.27675  0.09278  0.51314  1.0000
  C   C771      1.0  0.46564  0.00928  0.88491  1.0000
  H   H1294     1.0  0.38030  0.24679  0.58441  1.0000
  C   C772      1.0  0.35318  0.21686  0.59048  1.0000
  H   H1295     1.0  0.39931  0.28445  0.66644  1.0000
  H   H1296     1.0  0.33970  0.08143  0.87220  1.0000
  H   H1297     1.0  0.48403  0.11983  0.84735  1.0000
  H   H1298     1.0  0.45804  0.01033  0.96933  1.0000
  H   H1299     1.0  0.33498  0.16267  0.78800  1.0000
  C   C773      1.0  0.48825  0.23208  0.71454  1.0000
  H   H1300     1.0  0.43887  0.02644  0.97742  1.0000
  S   S246      1.0  0.26382  0.16044  0.53998  1.0000
  N   N55       1.0  0.48002  0.01791  0.88609  1.0000
  C   C774      1.0  0.29497  0.20867  0.93570  1.0000
  C   C775      1.0  0.48673  0.21635  0.68508  1.0000
  C   C776      1.0  0.34819  0.17495  0.74339  1.0000
  C   C777      1.0  0.36161  0.15940  0.74316  1.0000
  C   C778      1.0  0.37847  0.15906  0.74609  1.0000
  C   C779      1.0  0.38189  0.17407  0.74974  1.0000
  C   C780      1.0  0.36811  0.18921  0.75114  1.0000
  C   C781      1.0  0.35142  0.18974  0.74765  1.0000
  H   H1301     1.0  0.35929  0.14795  0.73982  1.0000
  H   H1302     1.0  0.38902  0.14724  0.74509  1.0000
  H   H1303     1.0  0.37049  0.20075  0.75425  1.0000
  H   H1304     1.0  0.34106  0.20178  0.74793  1.0000
  C   C782      1.0  0.44546  0.10485  0.86476  1.0000
  C   C783      1.0  0.44969  0.08789  0.87555  1.0000
  C   C784      1.0  0.45787  0.08573  0.88993  1.0000
  C   C785      1.0  0.46182  0.10053  0.89339  1.0000
  C   C786      1.0  0.45735  0.11740  0.88268  1.0000
  C   C787      1.0  0.44891  0.11960  0.86864  1.0000
  H   H1305     1.0  0.44685  0.07648  0.87275  1.0000
  H   H1306     1.0  0.35899  0.19779  0.57341  1.0000
  S   S247      1.0  0.47287  0.09798  0.91063  1.0000
  H   H1307     1.0  0.44534  0.13274  0.86051  1.0000
  C   C788      1.0  0.37913  0.09357  0.78750  1.0000
  C   C789      1.0  0.37064  0.10754  0.77556  1.0000
  C   C790      1.0  0.35466  0.10658  0.77172  1.0000
  C   C791      1.0  0.34727  0.09146  0.77951  1.0000
  C   C792      1.0  0.35600  0.07726  0.79113  1.0000
  C   C793      1.0  0.37182  0.07839  0.79530  1.0000
  H   H1308     1.0  0.37633  0.11924  0.76938  1.0000
  H   H1309     1.0  0.34821  0.11744  0.76250  1.0000
  H   H1310     1.0  0.35034  0.06551  0.79712  1.0000
  H   H1311     1.0  0.37833  0.06756  0.80451  1.0000
  C   C794      1.0  0.28357  0.24314  0.89374  1.0000
  C   C795      1.0  0.38955  0.14437  0.97912  1.0000
  H   H1312     1.0  0.37656  0.23859  0.66040  1.0000
  H   H1313     1.0  0.29484  0.24573  0.89722  1.0000
  C   C796      1.0  0.36525  0.21656  0.82565  1.0000
  C   C797      1.0  0.34848  0.21430  0.83619  1.0000
  C   C798      1.0  0.34737  0.20072  0.85164  1.0000
  C   C799      1.0  0.36302  0.18932  0.85630  1.0000
  C   C800      1.0  0.37971  0.19185  0.84593  1.0000
  C   C801      1.0  0.38082  0.20567  0.83083  1.0000
  H   H1314     1.0  0.33644  0.22259  0.83208  1.0000
  H   H1315     1.0  0.33442  0.19890  0.85974  1.0000
  H   H1316     1.0  0.39182  0.18283  0.84917  1.0000
  H   H1317     1.0  0.39381  0.20762  0.82295  1.0000
  C   C802      1.0  0.29501  0.13162  0.85138  1.0000
  C   C803      1.0  0.28673  0.14974  0.84911  1.0000
  C   C804      1.0  0.27813  0.15797  0.83479  1.0000
  C   C805      1.0  0.27778  0.14814  0.82266  1.0000
  C   C806      1.0  0.28575  0.12991  0.82511  1.0000
  C   C807      1.0  0.29406  0.12157  0.83968  1.0000
  H   H1318     1.0  0.28715  0.15753  0.85821  1.0000
  H   H1319     1.0  0.30860  0.20396  0.93870  1.0000
  Fe  Fe125     1.0  0.35679  0.31735  0.57447  1.0000
  H   H1320     1.0  0.45966  0.15347  0.97100  1.0000
  C   C808      1.0  0.41514  0.04254  0.92651  1.0000
  C   C809      1.0  0.40352  0.03134  0.92826  1.0000
  C   C810      1.0  0.39575  0.03235  0.91397  1.0000
  C   C811      1.0  0.39942  0.04470  0.89797  1.0000
  C   C812      1.0  0.41048  0.05640  0.89650  1.0000
  C   C813      1.0  0.41864  0.05508  0.91062  1.0000
  H   H1321     1.0  0.40074  0.02167  0.94053  1.0000
  H   H1322     1.0  0.38705  0.02342  0.91526  1.0000
  H   H1323     1.0  0.41252  0.06669  0.88463  1.0000
  H   H1324     1.0  0.42731  0.06402  0.90940  1.0000
  C   C814      1.0  0.33242  0.09679  0.96526  1.0000
  C   C815      1.0  0.32481  0.11517  0.96219  1.0000
  C   C816      1.0  0.31440  0.12269  0.94920  1.0000
  H   H1325     1.0  0.25363  0.19871  0.78869  1.0000
  H   H1326     1.0  0.32726  0.12356  0.96967  1.0000
  C   C817      1.0  0.40511  0.14112  0.96613  1.0000
  C   C818      1.0  0.41267  0.12364  0.96360  1.0000
  H   H1327     1.0  0.42475  0.12105  0.95360  1.0000
  H   H1328     1.0  0.39129  0.28007  0.64033  1.0000
  C   C819      1.0  0.26357  0.24887  0.55316  1.0000
  C   C820      1.0  0.28135  0.25014  0.83960  1.0000
  H   H1329     1.0  0.27559  0.25722  0.82769  1.0000
  H   H1330     1.0  0.27271  0.25518  0.85140  1.0000
  H   H1331     1.0  0.48636  0.06180  0.86896  1.0000
  C   C821      1.0  0.38184  0.13019  0.98998  1.0000
  Fe  Fe126     1.0  0.40115  0.04652  0.96709  1.0000
  H   H1332     1.0  0.29075  0.08926  0.50594  1.0000
  H   H1333     1.0  0.34207  0.10397  0.88545  1.0000
  H   H1334     1.0  0.31161  0.09788  0.71538  1.0000
  H   H1335     1.0  0.36256  0.10614  0.81753  1.0000
  H   H1336     1.0  0.37630  0.14985  0.83140  1.0000
  H   H1337     1.0  0.29212  0.08093  0.89127  1.0000
  H   H1338     1.0  0.35464  0.16403  0.83846  1.0000
  H   H1339     1.0  0.49874  0.24573  0.65865  1.0000
  H   H1340     1.0  0.36861  0.18917  0.59305  1.0000
  H   H1341     1.0  0.44627  0.30823  0.55135  1.0000
  C   C822      1.0  0.33863  0.03546  0.92450  1.0000
  H   H1342     1.0  0.34127  0.09004  0.90720  1.0000
  H   H1343     1.0  0.42074  0.28733  0.65446  1.0000
  S   S248      1.0  0.32752  0.32453  0.58725  1.0000
  H   H1344     1.0  0.46667  0.09619  0.78623  1.0000
  C   C823      1.0  0.31561  0.06401  0.90101  1.0000
  H   H1345     1.0  0.38370  0.15784  0.98115  1.0000
  H   H1346     1.0  0.33357  0.03541  0.88994  1.0000
  H   H1347     1.0  0.31178  0.08257  0.87508  1.0000
  C   C824      1.0  0.30527  0.07287  0.88584  1.0000
  H   H1348     1.0  0.48022  0.11285  0.77693  1.0000
  C   C825      1.0  0.28518  0.22714  0.88847  1.0000
  H   H1349     1.0  0.35540  0.05800  0.85833  1.0000
  S   S249      1.0  0.26556  0.20278  0.55490  1.0000
  H   H1350     1.0  0.29612  0.20773  0.92180  1.0000
  H   H1351     1.0  0.49304  0.20491  0.66103  1.0000
  H   H1352     1.0  0.45979  0.16168  0.77707  1.0000
  H   H1353     1.0  0.49337  0.11592  0.87359  1.0000
  Fe  Fe127     1.0  0.48301  0.14560  0.93632  1.0000
  N   N56       1.0  0.29400  0.12413  0.67821  1.0000
  C   C826      1.0  0.27894  0.14042  0.67726  1.0000
  C   C827      1.0  0.28889  0.10968  0.67269  1.0000
  C   C828      1.0  0.31112  0.12822  0.66584  1.0000
  C   C829      1.0  0.29699  0.11821  0.69708  1.0000
  C   C830      1.0  0.28278  0.15753  0.67991  1.0000
  H   H1354     1.0  0.47995  0.32362  0.56552  1.0000
  C   C831      1.0  0.31000  0.13649  0.64613  1.0000
  C   C832      1.0  0.31055  0.10047  0.70118  1.0000
  H   H1355     1.0  0.27452  0.14375  0.66435  1.0000
  H   H1356     1.0  0.29047  0.22293  0.93678  1.0000
  H   H1357     1.0  0.30041  0.09816  0.67117  1.0000
  H   H1358     1.0  0.28541  0.11464  0.65929  1.0000
  H   H1359     1.0  0.31647  0.13727  0.67073  1.0000
  H   H1360     1.0  0.32175  0.11585  0.66560  1.0000
  H   H1361     1.0  0.30173  0.12848  0.70076  1.0000
  H   H1362     1.0  0.28422  0.11681  0.70673  1.0000
  C   C833      1.0  0.25613  0.10961  0.56137  1.0000
  H   H1363     1.0  0.29170  0.06179  0.50167  1.0000
  H   H1364     1.0  0.45196  0.16318  0.99062  1.0000
  H   H1365     1.0  0.27997  0.20111  0.96226  1.0000
  H   H1366     1.0  0.46572  0.01008  0.87062  1.0000
  H   H1367     1.0  0.25791  0.26011  0.59377  1.0000
  H   H1368     1.0  0.30663  0.12729  0.63975  1.0000
  H   H1369     1.0  0.32329  0.13913  0.63850  1.0000
  H   H1370     1.0  0.30031  0.14945  0.64449  1.0000
  H   H1371     1.0  0.30615  0.08893  0.69963  1.0000
  H   H1372     1.0  0.27819  0.26594  0.56724  1.0000
  H   H1373     1.0  0.32415  0.10099  0.69296  1.0000
  N   N57       1.0  0.44356  0.13196  0.78173  1.0000
  C   C834      1.0  0.43591  0.11925  0.77622  1.0000
  C   C835      1.0  0.42886  0.14563  0.78999  1.0000
  C   C836      1.0  0.42165  0.12793  0.76475  1.0000
  C   C837      1.0  0.43752  0.32173  0.54836  1.0000
  C   C838      1.0  0.41652  0.13840  0.80755  1.0000
  H   H1374     1.0  0.44573  0.15151  0.75681  1.0000
  H   H1375     1.0  0.42991  0.11000  0.78798  1.0000
  H   H1376     1.0  0.44667  0.11038  0.76842  1.0000
  H   H1377     1.0  0.43458  0.15533  0.79331  1.0000
  H   H1378     1.0  0.42052  0.15429  0.78042  1.0000
  H   H1379     1.0  0.41825  0.11733  0.76027  1.0000
  H   H1380     1.0  0.40901  0.13455  0.77261  1.0000
  H   H1381     1.0  0.42646  0.13749  0.75259  1.0000
  C   C839      1.0  0.44631  0.01673  0.89385  1.0000
  C   C840      1.0  0.33463  0.15965  0.81672  1.0000
  H   H1382     1.0  0.42225  0.13749  0.81920  1.0000
  H   H1383     1.0  0.41391  0.12523  0.80808  1.0000
  H   H1384     1.0  0.40330  0.14768  0.80895  1.0000
  S   S250      1.0  0.46343  0.18733  0.87953  1.0000
  H   H1385     1.0  0.44837  0.21167  0.85057  1.0000
  H   H1386     1.0  0.40622  0.12930  0.92215  1.0000
  H   H1387     1.0  0.42729  0.31460  0.63989  1.0000
  H   H1388     1.0  0.31068  0.07218  0.91147  1.0000
  H   H1389     1.0  0.35800  0.05119  0.90933  1.0000
  C   C841      1.0  0.25324  0.18928  0.96079  1.0000
  N   N58       1.0  0.40190  0.19646  0.89515  1.0000
  C   C842      1.0  0.40234  0.20047  0.91261  1.0000
  C   C843      1.0  0.38261  0.19738  0.89525  1.0000
  C   C844      1.0  0.40906  0.21072  0.88021  1.0000
  C   C845      1.0  0.41360  0.17822  0.89401  1.0000
  C   C846      1.0  0.42066  0.20239  0.91443  1.0000
  C   C847      1.0  0.37348  0.18370  0.91007  1.0000
  C   C848      1.0  0.40443  0.21332  0.86187  1.0000
  C   C849      1.0  0.41272  0.16923  0.87936  1.0000
  H   H1390     1.0  0.39254  0.21302  0.91501  1.0000
  H   H1391     1.0  0.39834  0.18973  0.92413  1.0000
  H   H1392     1.0  0.38098  0.19557  0.88245  1.0000
  H   H1393     1.0  0.37445  0.21097  0.89648  1.0000
  H   H1394     1.0  0.40406  0.22405  0.88391  1.0000
  H   H1395     1.0  0.42392  0.20821  0.87797  1.0000
  H   H1396     1.0  0.42789  0.17883  0.89169  1.0000
  H   H1397     1.0  0.41133  0.16854  0.90700  1.0000
  H   H1398     1.0  0.41938  0.20462  0.92800  1.0000
  H   H1399     1.0  0.43106  0.19008  0.91312  1.0000
  H   H1400     1.0  0.42531  0.21397  0.90471  1.0000
  H   H1401     1.0  0.37159  0.18638  0.92354  1.0000
  H   H1402     1.0  0.35992  0.18468  0.90790  1.0000
  H   H1403     1.0  0.38097  0.16984  0.90970  1.0000
  H   H1404     1.0  0.41193  0.22296  0.85194  1.0000
  H   H1405     1.0  0.39000  0.21917  0.86213  1.0000
  H   H1406     1.0  0.40836  0.20089  0.85678  1.0000
  H   H1407     1.0  0.42208  0.17327  0.86666  1.0000
  H   H1408     1.0  0.39913  0.17137  0.87704  1.0000
  H   H1409     1.0  0.41680  0.15451  0.88379  1.0000
  C   C850      1.0  0.37440  0.08242  0.91866  1.0000
  H   H1410     1.0  0.49640  0.26679  0.68552  1.0000
  H   H1411     1.0  0.48309  0.17304  0.96415  1.0000
  C   C851      1.0  0.42072  0.31846  0.54457  1.0000
  H   H1412     1.0  0.26460  0.10458  0.74276  1.0000
  H   H1413     1.0  0.27958  0.17731  0.93019  1.0000
  H   H1414     1.0  0.27523  0.08471  0.52699  1.0000
  C   C852      1.0  0.44793  0.15730  0.98155  1.0000
  H   H1415     1.0  0.25423  0.12664  0.65552  1.0000
  H   H1416     1.0  0.49491  0.01685  0.90577  1.0000
  H   H1417     1.0  0.26078  0.09846  0.57149  1.0000
  H   H1418     1.0  0.27871  0.27851  0.54535  1.0000
  C   C853      1.0  0.26102  0.12608  0.55886  1.0000
  C   C854      1.0  0.48356  0.05390  0.82605  1.0000
  H   H1419     1.0  0.38548  0.31323  0.62853  1.0000
  H   H1420     1.0  0.42103  0.32449  0.66601  1.0000
  C   C855      1.0  0.26765  0.25611  0.89375  1.0000
  S   S251      1.0  0.48980  0.14149  0.90795  1.0000
  H   H1421     1.0  0.32412  0.03686  0.93041  1.0000
  H   H1422     1.0  0.34063  0.09105  0.97516  1.0000
  H   H1423     1.0  0.38603  0.31074  0.67674  1.0000
  H   H1424     1.0  0.36295  0.16906  0.78564  1.0000
  H   H1425     1.0  0.35586  0.03762  0.88693  1.0000
  S   S252      1.0  0.47793  0.28173  0.64107  1.0000
  C   C856      1.0  0.48537  0.03650  0.82394  1.0000
  H   H1426     1.0  0.27049  0.16824  0.67948  1.0000
  H   H1427     1.0  0.37031  0.16722  0.80588  1.0000
  H   H1428     1.0  0.44458  0.32893  0.53547  1.0000
  H   H1429     1.0  0.39187  0.19889  0.59896  1.0000
  N   N59       1.0  0.38481  0.21308  0.69713  1.0000
  C   C857      1.0  0.38873  0.19287  0.70088  1.0000
  C   C858      1.0  0.36471  0.21935  0.70083  1.0000
  C   C859      1.0  0.39221  0.21851  0.71011  1.0000
  C   C860      1.0  0.39373  0.21980  0.67805  1.0000
  C   C861      1.0  0.40857  0.18335  0.69991  1.0000
  C   C862      1.0  0.35474  0.21278  0.69034  1.0000
  C   C863      1.0  0.38936  0.23870  0.70903  1.0000
  C   C864      1.0  0.38565  0.23894  0.66879  1.0000
  H   H1430     1.0  0.38112  0.18747  0.71427  1.0000
  H   H1431     1.0  0.38410  0.18802  0.69129  1.0000
  H   H1432     1.0  0.36053  0.23409  0.69830  1.0000
  H   H1433     1.0  0.35896  0.21492  0.71528  1.0000
  H   H1434     1.0  0.38652  0.21237  0.72410  1.0000
  H   H1435     1.0  0.40689  0.21343  0.70838  1.0000
  H   H1436     1.0  0.40820  0.21910  0.67707  1.0000
  H   H1437     1.0  0.39335  0.21094  0.66941  1.0000
  H   H1438     1.0  0.40981  0.16888  0.70070  1.0000
  H   H1439     1.0  0.41735  0.18855  0.68725  1.0000
  H   H1440     1.0  0.41353  0.18413  0.71145  1.0000
  H   H1441     1.0  0.35375  0.19861  0.69618  1.0000
  H   H1442     1.0  0.34077  0.22069  0.69148  1.0000
  H   H1443     1.0  0.36112  0.21429  0.67597  1.0000
  H   H1444     1.0  0.39470  0.24064  0.71985  1.0000
  H   H1445     1.0  0.37505  0.24548  0.71115  1.0000
  H   H1446     1.0  0.39710  0.24529  0.69633  1.0000
  H   H1447     1.0  0.39667  0.24480  0.65923  1.0000
  H   H1448     1.0  0.37883  0.24837  0.67771  1.0000
  H   H1449     1.0  0.42483  0.31144  0.53328  1.0000
  C   C865      1.0  0.30103  0.25145  0.83695  1.0000
  H   H1450     1.0  0.30608  0.24193  0.84850  1.0000
  C   C866      1.0  0.45460  0.14159  0.76529  1.0000
  H   H1451     1.0  0.30874  0.24571  0.82510  1.0000
  C   C867      1.0  0.45470  0.12156  0.79534  1.0000
  C   C868      1.0  0.49088  0.04765  0.87546  1.0000
  H   H1452     1.0  0.27364  0.19831  0.91611  1.0000
  H   H1453     1.0  0.29772  0.21749  0.88773  1.0000
  H   H1454     1.0  0.36109  0.13947  0.79093  1.0000
  S   S253      1.0  0.38197  0.07289  0.96377  1.0000
  C   C869      1.0  0.33552  0.25888  0.84309  1.0000
  H   H1455     1.0  0.30302  0.26490  0.86373  1.0000
  H   H1456     1.0  0.32965  0.26323  0.81710  1.0000
  H   H1457     1.0  0.26690  0.13776  0.68764  1.0000
  S   S254      1.0  0.49072  0.28739  0.59685  1.0000
  H   H1458     1.0  0.41052  0.28763  0.62538  1.0000
  H   H1459     1.0  0.36556  0.10656  0.90027  1.0000
  H   H1460     1.0  0.28074  0.23585  0.84190  1.0000
  H   H1461     1.0  0.48949  0.20255  0.69331  1.0000
  H   H1462     1.0  0.44643  0.11432  0.80721  1.0000
  Fe  Fe128     1.0  0.29469  0.18142  0.88436  1.0000
  H   H1463     1.0  0.35973  0.30462  0.64580  1.0000
  C   C870      1.0  0.31140  0.11181  0.93946  1.0000
  N   N60       1.0  0.30419  0.26986  0.83519  1.0000
  C   C871      1.0  0.29709  0.27512  0.85309  1.0000
  C   C872      1.0  0.32402  0.26930  0.82910  1.0000
  H   H1464     1.0  0.28250  0.27564  0.85745  1.0000
  H   H1465     1.0  0.31361  0.28012  0.79626  1.0000
  H   H1466     1.0  0.41331  0.26733  0.64164  1.0000
  H   H1467     1.0  0.27767  0.03850  0.52223  1.0000
  H   H1468     1.0  0.49301  0.32666  0.64180  1.0000
  H   H1469     1.0  0.41058  0.09586  0.97248  1.0000
  H   H1470     1.0  0.44446  0.01394  0.90859  1.0000
  H   H1471     1.0  0.48552  0.09601  0.85099  1.0000
  H   H1472     1.0  0.35794  0.07315  0.88290  1.0000
  C   C873      1.0  0.29465  0.28350  0.82167  1.0000
  C   C874      1.0  0.29947  0.27956  0.80274  1.0000
  H   H1473     1.0  0.27985  0.28552  0.82641  1.0000
  C   C875      1.0  0.35351  0.13720  0.83580  1.0000
  H   H1474     1.0  0.32649  0.28314  0.82487  1.0000
  H   H1475     1.0  0.29099  0.29008  0.79434  1.0000
  H   H1476     1.0  0.35367  0.25382  0.60476  1.0000
  C   C876      1.0  0.49645  0.24491  0.67329  1.0000
  S   S255      1.0  0.28722  0.15540  0.89974  1.0000
  S   S256      1.0  0.30833  0.12209  0.86744  1.0000
  H   H1477     1.0  0.49254  0.23272  0.72657  1.0000
  H   H1478     1.0  0.28556  0.12226  0.81574  1.0000
  S   S257      1.0  0.46691  0.02944  0.82190  1.0000
  S   S258      1.0  0.38019  0.03015  0.97533  1.0000
  C   C877      1.0  0.31847  0.09337  0.94298  1.0000
  C   C878      1.0  0.29961  0.29345  0.85404  1.0000
  H   H1479     1.0  0.29765  0.29687  0.81987  1.0000
  H   H1480     1.0  0.29693  0.26654  0.80260  1.0000
  H   H1481     1.0  0.29511  0.29502  0.86814  1.0000
  H   H1482     1.0  0.27529  0.29754  0.56585  1.0000
  H   H1483     1.0  0.32178  0.09703  0.89734  1.0000
  Fe  Fe129     1.0  0.33746  0.31750  0.61285  1.0000
  C   C879      1.0  0.40646  0.29088  0.65322  1.0000
  C   C880      1.0  0.27072  0.22394  0.88367  1.0000
  H   H1484     1.0  0.38559  0.07551  0.92554  1.0000
  H   H1485     1.0  0.32518  0.12969  0.82630  1.0000
  C   C881      1.0  0.27549  0.24833  0.53442  1.0000
  C   C882      1.0  0.40464  0.10941  0.97422  1.0000
  H   H1486     1.0  0.34390  0.21063  0.60218  1.0000
  H   H1487     1.0  0.34417  0.22470  0.58118  1.0000
  C   C883      1.0  0.36908  0.24535  0.56283  1.0000
  H   H1488     1.0  0.29113  0.30463  0.84626  1.0000
  H   H1489     1.0  0.29023  0.18318  0.95105  1.0000
  S   S259      1.0  0.26224  0.14291  0.72700  1.0000
  H   H1490     1.0  0.47303  0.31426  0.55100  1.0000
  H   H1491     1.0  0.36320  0.12414  0.83730  1.0000
  H   H1492     1.0  0.26029  0.11275  0.68606  1.0000
  S   S260      1.0  0.27232  0.20419  0.87689  1.0000
  H   H1493     1.0  0.38382  0.12390  0.94561  1.0000
  H   H1494     1.0  0.36036  0.13237  0.94968  1.0000
  H   H1495     1.0  0.42243  0.10951  0.92755  1.0000
  H   H1496     1.0  0.47814  0.22356  0.71934  1.0000
  H   H1497     1.0  0.37568  0.13142  0.80627  1.0000
  C   C884      1.0  0.48133  0.01571  0.90523  1.0000
  H   H1498     1.0  0.33020  0.24763  0.85267  1.0000
  H   H1499     1.0  0.31376  0.29477  0.84969  1.0000
  H   H1500     1.0  0.33616  0.12957  0.80391  1.0000
  C   C885      1.0  0.37235  0.12984  0.93888  1.0000
  C   C886      1.0  0.41354  0.11665  0.91799  1.0000
  H   H1501     1.0  0.37375  0.14297  0.93009  1.0000
  H   H1502     1.0  0.42277  0.11948  0.90489  1.0000
  C   C887      1.0  0.45895  0.16406  0.84137  1.0000
  C   C888      1.0  0.26110  0.16943  0.96802  1.0000
  C   C889      1.0  0.34801  0.10840  0.82319  1.0000
  C   C890      1.0  0.28233  0.19720  0.94920  1.0000
  H   H1503     1.0  0.41377  0.30962  0.55598  1.0000
  Fe  Fe130     1.0  0.46921  0.12446  0.91793  1.0000
  C   C891      1.0  0.49138  0.10746  0.84254  1.0000
  H   H1504     1.0  0.46314  0.13216  0.75671  1.0000
  H   H1505     1.0  0.38008  0.25088  0.55283  1.0000
  H   H1506     1.0  0.35749  0.25666  0.56412  1.0000
  H   H1507     1.0  0.38841  0.13982  0.90288  1.0000
  H   H1508     1.0  0.33804  0.23220  0.63000  1.0000
  H   H1509     1.0  0.36579  0.23551  0.55720  1.0000
  H   H1510     1.0  0.27022  0.09190  0.67965  1.0000
  H   H1511     1.0  0.46117  0.07265  0.89831  1.0000
  H   H1512     1.0  0.43712  0.00993  0.89096  1.0000
  H   H1513     1.0  0.46247  0.15084  0.83847  1.0000
  H   H1514     1.0  0.34343  0.02426  0.91736  1.0000
  C   C892      1.0  0.25317  0.25283  0.88908  1.0000
  H   H1515     1.0  0.38828  0.09569  0.89403  1.0000
  H   H1516     1.0  0.34906  0.25306  0.83601  1.0000
  C   C893      1.0  0.25586  0.14035  0.54524  1.0000
  N   N61       1.0  0.33576  0.05996  0.89574  1.0000
  H   H1517     1.0  0.33774  0.26808  0.85030  1.0000
  S   S261      1.0  0.46395  0.12683  0.94645  1.0000
  H   H1518     1.0  0.25545  0.29099  0.57952  1.0000
  H   H1519     1.0  0.26467  0.22492  0.92773  1.0000
  H   H1520     1.0  0.34218  0.09964  0.81847  1.0000
  H   H1521     1.0  0.46856  0.15530  0.86601  1.0000
  C   C894      1.0  0.33655  0.09259  0.89467  1.0000
  H   H1522     1.0  0.39338  0.19996  0.62069  1.0000
  H   H1523     1.0  0.34573  0.10423  0.83798  1.0000
  C   C895      1.0  0.34302  0.07640  0.88560  1.0000
  C   C896      1.0  0.34229  0.04539  0.88505  1.0000
  C   C897      1.0  0.38984  0.20814  0.60791  1.0000
  H   H1524     1.0  0.37291  0.07317  0.91111  1.0000
  H   H1525     1.0  0.47395  0.22336  0.69245  1.0000
  H   H1526     1.0  0.47085  0.06321  0.82615  1.0000
  C   C898      1.0  0.38405  0.12968  0.89874  1.0000
  C   C899      1.0  0.36956  0.11674  0.92915  1.0000
  C   C900      1.0  0.40176  0.10404  0.91763  1.0000
  H   H1527     1.0  0.40025  0.09457  0.93080  1.0000
  H   H1528     1.0  0.38967  0.12137  0.87303  1.0000
  Fe  Fe131     1.0  0.36087  0.05661  0.97416  1.0000
  C   C901      1.0  0.33273  0.23938  0.61785  1.0000
  H   H1529     1.0  0.36218  0.20935  0.62097  1.0000
  H   H1530     1.0  0.32439  0.23163  0.61504  1.0000
  H   H1531     1.0  0.38778  0.22655  0.57700  1.0000
  C   C902      1.0  0.36417  0.14226  0.80272  1.0000
  H   H1532     1.0  0.46097  0.12870  0.88478  1.0000
  H   H1533     1.0  0.30053  0.10756  0.84131  1.0000
  H   H1534     1.0  0.46362  0.04498  0.88208  1.0000
  H   H1535     1.0  0.34161  0.13551  0.84685  1.0000
  H   H1536     1.0  0.31464  0.15762  0.80320  1.0000
  H   H1537     1.0  0.47857  0.10129  0.79976  1.0000
  H   H1538     1.0  0.27509  0.09579  0.69878  1.0000
  N   N62       1.0  0.38369  0.11274  0.91290  1.0000
  H   H1539     1.0  0.37027  0.13616  0.89656  1.0000
  H   H1540     1.0  0.35611  0.12197  0.92562  1.0000
  H   H1541     1.0  0.36836  0.10442  0.93958  1.0000
  H   H1542     1.0  0.39759  0.14069  0.87187  1.0000
  S   S262      1.0  0.33882  0.06296  0.95911  1.0000
  H   H1543     1.0  0.27228  0.17210  0.83282  1.0000
  N   N63       1.0  0.36197  0.22874  0.59586  1.0000
  H   H1544     1.0  0.34077  0.25198  0.59059  1.0000
  H   H1545     1.0  0.32355  0.25198  0.62092  1.0000
  H   H1546     1.0  0.39936  0.21730  0.60227  1.0000
  H   H1547     1.0  0.28209  0.23422  0.53374  1.0000
  H   H1548     1.0  0.45618  0.03687  0.91040  1.0000
  H   H1549     1.0  0.45942  0.13069  0.80075  1.0000
  H   H1550     1.0  0.48183  0.24996  0.67760  1.0000
  C   C903      1.0  0.40524  0.28114  0.63925  1.0000
  H   H1551     1.0  0.47577  0.03807  0.86238  1.0000
  C   C904      1.0  0.37550  0.23662  0.58053  1.0000
  H   H1552     1.0  0.44082  0.20698  0.82385  1.0000
  H   H1553     1.0  0.36171  0.08471  0.92862  1.0000
  H   H1554     1.0  0.37067  0.22820  0.61986  1.0000
  H   H1555     1.0  0.38465  0.15731  0.78803  1.0000
  H   H1556     1.0  0.34056  0.17093  0.81638  1.0000
  C   C905      1.0  0.32548  0.16501  0.80060  1.0000
  H   H1557     1.0  0.41003  0.09586  0.90771  1.0000
  C   C906      1.0  0.39597  0.12737  0.88031  1.0000
  C   C907      1.0  0.37794  0.09991  0.90554  1.0000
  C   C908      1.0  0.34764  0.24419  0.60155  1.0000
  C   C909      1.0  0.37039  0.21880  0.61174  1.0000
  C   C910      1.0  0.47669  0.03719  0.87635  1.0000
  H   H1558     1.0  0.33828  0.06303  0.92138  1.0000
  H   H1559     1.0  0.48052  0.22788  0.65827  1.0000
  H   H1560     1.0  0.27264  0.16791  0.97416  1.0000
  Fe  Fe132     1.0  0.49864  0.26778  0.62098  1.0000
  H   H1561     1.0  0.29357  0.16253  0.66923  1.0000
  N   N64       1.0  0.39984  0.31092  0.64927  1.0000
  H   H1562     1.0  0.28638  0.25567  0.53154  1.0000
  H   H1563     1.0  0.26531  0.16138  0.95758  1.0000
  H   H1564     1.0  0.46982  0.21005  0.67099  1.0000
  C   C911      1.0  0.41431  0.31895  0.63546  1.0000
  H   H1565     1.0  0.46503  0.30855  0.57494  1.0000
  H   H1566     1.0  0.25456  0.22456  0.95065  1.0000
  H   H1567     1.0  0.48180  0.24583  0.70875  1.0000
  S   S263      1.0  0.26371  0.32711  0.82043  1.0000
  C   C912      1.0  0.26858  0.18936  0.92874  1.0000
  C   C913      1.0  0.26326  0.29296  0.56559  1.0000
  C   C914      1.0  0.46793  0.02915  0.91605  1.0000
  H   H1568     1.0  0.40678  0.30723  0.59515  1.0000
  H   H1569     1.0  0.25556  0.30389  0.55688  1.0000
  C   C915      1.0  0.28913  0.32577  0.67066  1.0000
  C   C916      1.0  0.25298  0.18281  0.92581  1.0000
  H   H1570     1.0  0.44184  0.03112  0.88853  1.0000
  C   C917      1.0  0.45051  0.01602  0.98116  1.0000
  C   C918      1.0  0.26951  0.27550  0.55851  1.0000
  C   C919      1.0  0.25459  0.10900  0.73462  1.0000
  C   C920      1.0  0.48253  0.21481  0.66770  1.0000
  H   H1571     1.0  0.26754  0.25342  0.52384  1.0000
  H   H1572     1.0  0.41968  0.30150  0.67671  1.0000
  H   H1573     1.0  0.29574  0.32948  0.69343  1.0000
  H   H1574     1.0  0.49270  0.04746  0.88887  1.0000
  H   H1575     1.0  0.40229  0.32987  0.59699  1.0000
  H   H1576     1.0  0.26406  0.05897  0.52755  1.0000
  C   C921      1.0  0.25610  0.21784  0.93948  1.0000
  H   H1577     1.0  0.41705  0.31397  0.62300  1.0000
  H   H1578     1.0  0.29805  0.31229  0.67135  1.0000
  H   H1579     1.0  0.44523  0.10562  0.99234  1.0000
  H   H1580     1.0  0.40079  0.32437  0.57695  1.0000
  H   H1581     1.0  0.41190  0.00513  0.99153  1.0000
  H   H1582     1.0  0.49666  0.07273  0.82992  1.0000
  H   H1583     1.0  0.49777  0.08551  0.87497  1.0000
  H   H1584     1.0  0.27442  0.10684  0.51456  1.0000
  C   C922      1.0  0.40857  0.32078  0.58752  1.0000
  C   C923      1.0  0.43896  0.14132  0.99126  1.0000
  C   C924      1.0  0.38935  0.11269  0.98763  1.0000
  H   H1585     1.0  0.25122  0.08686  0.51476  1.0000
  H   H1586     1.0  0.48000  0.00202  0.91288  1.0000
  H   H1587     1.0  0.49813  0.01190  0.86158  1.0000
  H   H1588     1.0  0.25497  0.16803  0.93010  1.0000
  H   H1589     1.0  0.48896  0.10924  0.82895  1.0000
  C   C925      1.0  0.49820  0.05929  0.82822  1.0000
  H   H1590     1.0  0.42756  0.00556  0.97080  1.0000
  H   H1591     1.0  0.47442  0.13428  0.99186  1.0000
  N   N65       1.0  0.25502  0.26725  0.55695  1.0000
  C   C926      1.0  0.26240  0.09114  0.50397  1.0000
  H   H1592     1.0  0.48136  0.18441  0.99106  1.0000
  H   H1593     1.0  0.25337  0.24079  0.55533  1.0000
  H   H1594     1.0  0.25612  0.28221  0.52948  1.0000
  Fe  Fe133     1.0  0.38128  0.07128  0.99242  1.0000
  C   C927      1.0  0.42886  0.32043  0.58110  1.0000
  H   H1595     1.0  0.25325  0.18574  0.91126  1.0000
  H   H1596     1.0  0.27561  0.32371  0.67809  1.0000
  H   H1597     1.0  0.43281  0.32475  0.59151  1.0000
  S   S264      1.0  0.46131  0.32972  0.60974  1.0000
  C   C928      1.0  0.27881  0.06074  0.49933  1.0000
  H   H1598     1.0  0.25159  0.22099  0.79213  1.0000
  S   S265      1.0  0.40264  0.04631  0.99492  1.0000
  C   C929      1.0  0.45601  0.33059  0.64512  1.0000
  H   H1599     1.0  0.37804  0.33086  0.63975  1.0000
  C   C930      1.0  0.33130  0.62912  0.40357  1.0000
  H   H1600     1.0  0.32748  0.58546  0.47114  1.0000
  H   H1601     1.0  0.29530  0.66139  0.28336  1.0000
  Fe  Fe134     1.0  0.33948  0.62280  0.29056  1.0000
  S   S266      1.0  0.33911  0.60549  0.31790  1.0000
  S   S267      1.0  0.34828  0.64889  0.28452  1.0000
  Fe  Fe135     1.0  0.32216  0.59911  0.27837  1.0000
  S   S268      1.0  0.32051  0.57973  0.30477  1.0000
  S   S269      1.0  0.31037  0.60025  0.25472  1.0000
  Fe  Fe136     1.0  0.31160  0.60394  0.31704  1.0000
  S   S270      1.0  0.28683  0.60736  0.33872  1.0000
  Fe  Fe137     1.0  0.34838  0.58289  0.30341  1.0000
  S   S271      1.0  0.36843  0.55904  0.31399  1.0000
  S   S272      1.0  0.31108  0.62313  0.29082  1.0000
  S   S273      1.0  0.35095  0.60038  0.27582  1.0000
  Fe  Fe138     1.0  0.45843  0.55241  0.33527  1.0000
  S   S274      1.0  0.45834  0.52513  0.35300  1.0000
  S   S275      1.0  0.44816  0.56390  0.30982  1.0000
  Fe  Fe139     1.0  0.47337  0.56533  0.36014  1.0000
  S   S276      1.0  0.47477  0.53926  0.37991  1.0000
  S   S277      1.0  0.47807  0.59075  0.36406  1.0000
  Fe  Fe140     1.0  0.48534  0.52668  0.35592  1.0000
  Fe  Fe141     1.0  0.44789  0.53994  0.37533  1.0000
  S   S278      1.0  0.42613  0.53376  0.39910  1.0000
  S   S279      1.0  0.48648  0.55282  0.33631  1.0000
  S   S280      1.0  0.44552  0.56703  0.35736  1.0000
  H   H1602     1.0  0.43670  0.66138  0.24124  1.0000
  H   H1603     1.0  0.43371  0.56103  0.46616  1.0000
  S   S281      1.0  0.41059  0.59613  0.43966  1.0000
  H   H1604     1.0  0.29743  0.65056  0.32247  1.0000
  H   H1605     1.0  0.39984  0.64489  0.33557  1.0000
  H   H1606     1.0  0.29728  0.54054  0.19504  1.0000
  S   S282      1.0  0.42336  0.63805  0.30316  1.0000
  H   H1607     1.0  0.41704  0.64635  0.35466  1.0000
  H   H1608     1.0  0.41891  0.65181  0.48873  1.0000
  H   H1609     1.0  0.39439  0.60896  0.33554  1.0000
  H   H1610     1.0  0.42586  0.61345  0.38433  1.0000
  H   H1611     1.0  0.31670  0.53317  0.20431  1.0000
  S   S283      1.0  0.25202  0.55969  0.25213  1.0000
  H   H1612     1.0  0.38770  0.65815  0.46811  1.0000
  C   C931      1.0  0.29687  0.64696  0.45294  1.0000
  H   H1613     1.0  0.45302  0.55454  0.43499  1.0000
  N   N66       1.0  0.40017  0.62689  0.36129  1.0000
  Fe  Fe142     1.0  0.48216  0.64280  0.46114  1.0000
  C   C932      1.0  0.43452  0.63136  0.41982  1.0000
  H   H1614     1.0  0.27761  0.54275  0.22505  1.0000
  C   C933      1.0  0.44490  0.63546  0.49154  1.0000
  S   S284      1.0  0.45650  0.66198  0.31100  1.0000
  H   H1615     1.0  0.46715  0.58965  0.32452  1.0000
  S   S285      1.0  0.39076  0.61442  0.47962  1.0000
  H   H1616     1.0  0.28304  0.62432  0.13894  1.0000
  H   H1617     1.0  0.28493  0.64100  0.45845  1.0000
  C   C934      1.0  0.36058  0.63727  0.44656  1.0000
  H   H1618     1.0  0.30660  0.59990  0.42965  1.0000
  H   H1619     1.0  0.36855  0.62482  0.45218  1.0000
  C   C935      1.0  0.42167  0.55071  0.41096  1.0000
  C   C936      1.0  0.40820  0.55113  0.42646  1.0000
  C   C937      1.0  0.40480  0.56496  0.43567  1.0000
  C   C938      1.0  0.41467  0.57842  0.42909  1.0000
  C   C939      1.0  0.42815  0.57789  0.41375  1.0000
  C   C940      1.0  0.43183  0.56391  0.40491  1.0000
  H   H1620     1.0  0.40033  0.54091  0.43124  1.0000
  H   H1621     1.0  0.39436  0.56538  0.44759  1.0000
  H   H1622     1.0  0.43598  0.58815  0.40879  1.0000
  H   H1623     1.0  0.44260  0.56345  0.39340  1.0000
  C   C941      1.0  0.29349  0.58915  0.25542  1.0000
  C   C942      1.0  0.28120  0.59740  0.24428  1.0000
  C   C943      1.0  0.41192  0.63626  0.36631  1.0000
  H   H1624     1.0  0.25659  0.64659  0.13229  1.0000
  C   C944      1.0  0.27983  0.56314  0.26482  1.0000
  C   C945      1.0  0.29276  0.57197  0.26575  1.0000
  H   H1625     1.0  0.28173  0.61064  0.23618  1.0000
  H   H1626     1.0  0.42994  0.62450  0.43371  1.0000
  H   H1627     1.0  0.27951  0.54975  0.27262  1.0000
  H   H1628     1.0  0.30243  0.56533  0.27410  1.0000
  C   C946      1.0  0.28638  0.61921  0.35476  1.0000
  H   H1629     1.0  0.47212  0.56774  0.48291  1.0000
  H   H1630     1.0  0.47631  0.59151  0.25999  1.0000
  H   H1631     1.0  0.42090  0.61742  0.34002  1.0000
  C   C947      1.0  0.30041  0.63498  0.36790  1.0000
  C   C948      1.0  0.30159  0.62449  0.35567  1.0000
  C   C949      1.0  0.28948  0.63230  0.12641  1.0000
  H   H1632     1.0  0.31214  0.63915  0.36846  1.0000
  H   H1633     1.0  0.31422  0.62050  0.34696  1.0000
  C   C950      1.0  0.38994  0.56186  0.31354  1.0000
  C   C951      1.0  0.39816  0.57427  0.30001  1.0000
  C   C952      1.0  0.41602  0.57491  0.29899  1.0000
  C   C953      1.0  0.42551  0.56357  0.31182  1.0000
  C   C954      1.0  0.41703  0.55170  0.32575  1.0000
  C   C955      1.0  0.39942  0.55065  0.32642  1.0000
  H   H1634     1.0  0.39100  0.58288  0.28996  1.0000
  H   H1635     1.0  0.42253  0.58409  0.28817  1.0000
  H   H1636     1.0  0.42422  0.54290  0.33569  1.0000
  H   H1637     1.0  0.39314  0.54100  0.33689  1.0000
  C   C956      1.0  0.44523  0.58839  0.46884  1.0000
  S   S286      1.0  0.36425  0.59138  0.47341  1.0000
  C   C957      1.0  0.39718  0.51674  0.48286  1.0000
  Fe  Fe143     1.0  0.36182  0.61309  0.48765  1.0000
  S   S287      1.0  0.41155  0.48099  0.48603  1.0000
  C   C958      1.0  0.48758  0.60409  0.40596  1.0000
  C   C959      1.0  0.48037  0.60406  0.39160  1.0000
  C   C960      1.0  0.48565  0.58930  0.38348  1.0000
  H   H1638     1.0  0.49766  0.64546  0.32637  1.0000
  H   H1639     1.0  0.25882  0.59528  0.23492  1.0000
  H   H1640     1.0  0.49849  0.58978  0.31474  1.0000
  H   H1641     1.0  0.47075  0.61558  0.38666  1.0000
  H   H1642     1.0  0.30756  0.61372  0.46568  1.0000
  N   N67       1.0  0.27324  0.66269  0.13596  1.0000
  H   H1643     1.0  0.44301  0.58633  0.48356  1.0000
  C   C961      1.0  0.36805  0.64538  0.29213  1.0000
  C   C962      1.0  0.37975  0.62868  0.29322  1.0000
  C   C963      1.0  0.39652  0.62641  0.29721  1.0000
  C   C964      1.0  0.26536  0.61937  0.28791  1.0000
  H   H1644     1.0  0.48668  0.62745  0.33976  1.0000
  C   C965      1.0  0.40158  0.64078  0.30024  1.0000
  S   S288      1.0  0.48205  0.63739  0.43503  1.0000
  C   C966      1.0  0.47812  0.64022  0.26935  1.0000
  H   H1645     1.0  0.48035  0.57952  0.29873  1.0000
  H   H1646     1.0  0.32759  0.53788  0.22625  1.0000
  C   C967      1.0  0.25765  0.66070  0.12960  1.0000
  H   H1647     1.0  0.33115  0.55564  0.23381  1.0000
  C   C968      1.0  0.47713  0.65785  0.39044  1.0000
  C   C969      1.0  0.38953  0.65728  0.30006  1.0000
  H   H1648     1.0  0.32842  0.64371  0.40290  1.0000
  C   C970      1.0  0.38211  0.65001  0.24156  1.0000
  C   C971      1.0  0.48807  0.62062  0.27487  1.0000
  H   H1649     1.0  0.40676  0.51854  0.47036  1.0000
  H   H1650     1.0  0.29459  0.59750  0.18177  1.0000
  H   H1651     1.0  0.31332  0.57845  0.21466  1.0000
  H   H1652     1.0  0.31212  0.55145  0.16793  1.0000
  S   S289      1.0  0.34193  0.63851  0.48079  1.0000
  H   H1653     1.0  0.29119  0.52108  0.22410  1.0000
  H   H1654     1.0  0.32443  0.56844  0.15649  1.0000
  H   H1655     1.0  0.41123  0.58989  0.34089  1.0000
  H   H1656     1.0  0.37902  0.63175  0.38415  1.0000
  H   H1657     1.0  0.40574  0.61358  0.29758  1.0000
  C   C972      1.0  0.48806  0.55102  0.46423  1.0000
  C   C973      1.0  0.38654  0.62053  0.37737  1.0000
  S   S290      1.0  0.26196  0.63866  0.02883  1.0000
  H   H1658     1.0  0.48728  0.47611  0.34320  1.0000
  C   C974      1.0  0.26648  0.64038  0.16612  1.0000
  H   H1659     1.0  0.30081  0.64728  0.42497  1.0000
  H   H1660     1.0  0.32957  0.61695  0.45717  1.0000
  C   C975      1.0  0.37273  0.65957  0.29602  1.0000
  H   H1661     1.0  0.27917  0.63039  0.16718  1.0000
  H   H1662     1.0  0.46344  0.64205  0.27143  1.0000
  C   C976      1.0  0.39022  0.64032  0.34789  1.0000
  C   C977      1.0  0.28406  0.63997  0.37939  1.0000
  H   H1663     1.0  0.26389  0.61437  0.00683  1.0000
  C   C978      1.0  0.37820  0.65727  0.35410  1.0000
  S   S291      1.0  0.28172  0.65377  0.39426  1.0000
  H   H1664     1.0  0.36618  0.65413  0.36418  1.0000
  N   N68       1.0  0.31477  0.62100  0.43656  1.0000
  S   S292      1.0  0.26406  0.64693  0.07598  1.0000
  H   H1665     1.0  0.48585  0.47238  0.36698  1.0000
  H   H1666     1.0  0.39189  0.59480  0.35782  1.0000
  C   C979      1.0  0.40137  0.60100  0.34641  1.0000
  H   H1667     1.0  0.49489  0.44152  0.39110  1.0000
  C   C980      1.0  0.38552  0.53174  0.48865  1.0000
  C   C981      1.0  0.44705  0.55701  0.46994  1.0000
  H   H1668     1.0  0.46836  0.46912  0.35866  1.0000
  H   H1669     1.0  0.26564  0.63348  0.28714  1.0000
  C   C982      1.0  0.49777  0.57424  0.39021  1.0000
  H   H1670     1.0  0.45390  0.54501  0.46429  1.0000
  C   C983      1.0  0.25527  0.61171  0.30676  1.0000
  H   H1671     1.0  0.49676  0.54624  0.47420  1.0000
  C   C984      1.0  0.46469  0.56076  0.43245  1.0000
  H   H1672     1.0  0.30085  0.64878  0.13610  1.0000
  C   C985      1.0  0.25489  0.60896  0.13119  1.0000
  N   N69       1.0  0.25449  0.59219  0.31058  1.0000
  H   H1673     1.0  0.28378  0.61118  0.45924  1.0000
  H   H1674     1.0  0.47083  0.58398  0.43641  1.0000
  H   H1675     1.0  0.49516  0.58530  0.27829  1.0000
  H   H1676     1.0  0.29700  0.53497  0.23512  1.0000
  H   H1677     1.0  0.27732  0.57154  0.21406  1.0000
  C   C986      1.0  0.31915  0.61144  0.45454  1.0000
  H   H1678     1.0  0.32869  0.64302  0.32659  1.0000
  H   H1679     1.0  0.39770  0.61092  0.40165  1.0000
  H   H1680     1.0  0.25774  0.58929  0.28346  1.0000
  Fe  Fe144     1.0  0.43005  0.66303  0.30515  1.0000
  C   C987      1.0  0.41153  0.61197  0.35216  1.0000
  H   H1681     1.0  0.25824  0.63547  0.16003  1.0000
  C   C988      1.0  0.27021  0.62379  0.36662  1.0000
  C   C989      1.0  0.26909  0.63401  0.37898  1.0000
  H   H1682     1.0  0.25845  0.64123  0.17976  1.0000
  H   H1683     1.0  0.45576  0.60917  0.44650  1.0000
  C   C990      1.0  0.46005  0.57640  0.44212  1.0000
  H   H1684     1.0  0.48296  0.64537  0.25488  1.0000
  H   H1685     1.0  0.44672  0.60174  0.31707  1.0000
  H   H1686     1.0  0.26084  0.58204  0.34627  1.0000
  H   H1687     1.0  0.48158  0.57915  0.46211  1.0000
  N   N70       1.0  0.47694  0.60811  0.28787  1.0000
  H   H1688     1.0  0.46051  0.62819  0.30243  1.0000
  H   H1689     1.0  0.43805  0.62116  0.41150  1.0000
  C   C991      1.0  0.30845  0.64087  0.43579  1.0000
  H   H1690     1.0  0.37589  0.61653  0.37346  1.0000
  H   H1691     1.0  0.26440  0.55620  0.32676  1.0000
  H   H1692     1.0  0.25647  0.63766  0.38796  1.0000
  H   H1693     1.0  0.45469  0.60937  0.33219  1.0000
  H   H1694     1.0  0.45699  0.64675  0.38630  1.0000
  H   H1695     1.0  0.45076  0.61937  0.28102  1.0000
  H   H1696     1.0  0.26189  0.61431  0.31628  1.0000
  H   H1697     1.0  0.30328  0.62459  0.12246  1.0000
  H   H1698     1.0  0.49514  0.61536  0.26260  1.0000
  H   H1699     1.0  0.30114  0.57481  0.16548  1.0000
  H   H1700     1.0  0.46408  0.60543  0.46655  1.0000
  C   C992      1.0  0.27013  0.65894  0.15604  1.0000
  H   H1701     1.0  0.28201  0.66007  0.16031  1.0000
  Fe  Fe145     1.0  0.25593  0.65582  0.04937  1.0000
  C   C993      1.0  0.42600  0.65355  0.24588  1.0000
  C   C994      1.0  0.34690  0.64702  0.45764  1.0000
  H   H1702     1.0  0.46310  0.48303  0.46145  1.0000
  H   H1703     1.0  0.38128  0.63429  0.34363  1.0000
  C   C995      1.0  0.46618  0.60400  0.26141  1.0000
  H   H1704     1.0  0.48074  0.64891  0.27690  1.0000
  H   H1705     1.0  0.49556  0.41078  0.36620  1.0000
  H   H1706     1.0  0.27257  0.60107  0.19495  1.0000
  H   H1707     1.0  0.36821  0.65539  0.24804  1.0000
  H   H1708     1.0  0.28736  0.55558  0.32343  1.0000
  H   H1709     1.0  0.48051  0.61745  0.30984  1.0000
  H   H1710     1.0  0.28081  0.56995  0.19166  1.0000
  H   H1711     1.0  0.44166  0.61712  0.46552  1.0000
  H   H1712     1.0  0.47651  0.55054  0.43580  1.0000
  H   H1713     1.0  0.48191  0.53969  0.46538  1.0000
  H   H1714     1.0  0.38606  0.54493  0.48050  1.0000
  C   C996      1.0  0.42880  0.62454  0.37298  1.0000
  H   H1715     1.0  0.29089  0.59867  0.20502  1.0000
  C   C997      1.0  0.33190  0.61809  0.42271  1.0000
  H   H1716     1.0  0.34026  0.55390  0.21113  1.0000
  C   C998      1.0  0.39642  0.49955  0.49322  1.0000
  C   C999      1.0  0.36409  0.64362  0.42804  1.0000
  C   C1000     1.0  0.46388  0.65768  0.38187  1.0000
  N   N71       1.0  0.44532  0.48854  0.43211  1.0000
  C   C1001     1.0  0.43116  0.48479  0.42487  1.0000
  C   C1002     1.0  0.46030  0.49303  0.41653  1.0000
  C   C1003     1.0  0.43688  0.50430  0.44111  1.0000
  C   C1004     1.0  0.45161  0.47205  0.44542  1.0000
  C   C1005     1.0  0.41376  0.48155  0.43855  1.0000
  C   C1006     1.0  0.46965  0.47856  0.40547  1.0000
  C   C1007     1.0  0.44880  0.51716  0.44033  1.0000
  C   C1008     1.0  0.46708  0.47256  0.45346  1.0000
  H   H1717     1.0  0.42720  0.49605  0.41385  1.0000
  H   H1718     1.0  0.43634  0.47271  0.41894  1.0000
  H   H1719     1.0  0.47107  0.49628  0.42086  1.0000
  H   H1720     1.0  0.45524  0.50532  0.40705  1.0000
  H   H1721     1.0  0.42544  0.51307  0.43522  1.0000
  H   H1722     1.0  0.43095  0.49969  0.45539  1.0000
  H   H1723     1.0  0.44051  0.46928  0.45702  1.0000
  H   H1724     1.0  0.45565  0.46000  0.43945  1.0000
  H   H1725     1.0  0.40719  0.49271  0.44559  1.0000
  H   H1726     1.0  0.40399  0.48034  0.43136  1.0000
  H   H1727     1.0  0.41609  0.46888  0.44854  1.0000
  H   H1728     1.0  0.27374  0.62743  0.44188  1.0000
  H   H1729     1.0  0.46065  0.47655  0.39789  1.0000
  H   H1730     1.0  0.46778  0.56609  0.41782  1.0000
  H   H1731     1.0  0.44111  0.52682  0.44894  1.0000
  H   H1732     1.0  0.45215  0.52512  0.42656  1.0000
  H   H1733     1.0  0.46128  0.51030  0.44514  1.0000
  H   H1734     1.0  0.42982  0.64203  0.25667  1.0000
  H   H1735     1.0  0.42548  0.64743  0.23510  1.0000
  C   C1009     1.0  0.32576  0.59098  0.45714  1.0000
  N   N72       1.0  0.30499  0.56146  0.20235  1.0000
  C   C1010     1.0  0.31863  0.56544  0.18536  1.0000
  C   C1011     1.0  0.31108  0.56462  0.21751  1.0000
  C   C1012     1.0  0.28691  0.57350  0.20103  1.0000
  C   C1013     1.0  0.30329  0.54233  0.20548  1.0000
  C   C1014     1.0  0.31354  0.56496  0.16801  1.0000
  C   C1015     1.0  0.32853  0.55213  0.22220  1.0000
  C   C1016     1.0  0.28655  0.59375  0.19536  1.0000
  C   C1017     1.0  0.29162  0.53511  0.22352  1.0000
  H   H1736     1.0  0.32188  0.57869  0.18364  1.0000
  H   H1737     1.0  0.33155  0.55563  0.18596  1.0000
  H   H1738     1.0  0.30052  0.56364  0.22986  1.0000
  C   C1018     1.0  0.48311  0.46745  0.35636  1.0000
  C   C1019     1.0  0.45900  0.60307  0.32039  1.0000
  H   H1739     1.0  0.28248  0.63348  0.11558  1.0000
  H   H1740     1.0  0.28191  0.58374  0.29724  1.0000
  C   C1020     1.0  0.49993  0.58921  0.41257  1.0000
  C   C1021     1.0  0.39366  0.60543  0.39215  1.0000
  H   H1741     1.0  0.37614  0.61761  0.29042  1.0000
  H   H1742     1.0  0.27948  0.61218  0.28500  1.0000
  H   H1743     1.0  0.40919  0.64079  0.41166  1.0000
  H   H1744     1.0  0.34302  0.62114  0.42676  1.0000
  H   H1745     1.0  0.25865  0.61943  0.27726  1.0000
  C   C1022     1.0  0.46966  0.61496  0.30490  1.0000
  H   H1746     1.0  0.42030  0.60210  0.36060  1.0000
  H   H1747     1.0  0.48332  0.61551  0.41211  1.0000
  C   C1023     1.0  0.45230  0.60586  0.46126  1.0000
  C   C1024     1.0  0.46150  0.60718  0.28059  1.0000
  C   C1025     1.0  0.29044  0.65091  0.12823  1.0000
  H   H1748     1.0  0.47939  0.47428  0.44317  1.0000
  H   H1749     1.0  0.44697  0.63594  0.41844  1.0000
  H   H1750     1.0  0.43517  0.63295  0.37752  1.0000
  H   H1751     1.0  0.48046  0.64693  0.40105  1.0000
  H   H1752     1.0  0.29206  0.66171  0.44975  1.0000
  C   C1026     1.0  0.35390  0.65975  0.42046  1.0000
  H   H1753     1.0  0.32006  0.64738  0.43230  1.0000
  C   C1027     1.0  0.49086  0.63971  0.33991  1.0000
  H   H1754     1.0  0.47046  0.45959  0.46281  1.0000
  H   H1755     1.0  0.43167  0.59111  0.46586  1.0000
  H   H1756     1.0  0.47072  0.61552  0.25148  1.0000
  H   H1757     1.0  0.34466  0.62584  0.39480  1.0000
  H   H1758     1.0  0.47523  0.46571  0.41374  1.0000
  Fe  Fe146     1.0  0.39338  0.59178  0.46688  1.0000
  H   H1759     1.0  0.48846  0.44362  0.34591  1.0000
  C   C1028     1.0  0.47439  0.56803  0.46838  1.0000
  H   H1760     1.0  0.44803  0.58546  0.43753  1.0000
  C   C1029     1.0  0.26824  0.58865  0.24345  1.0000
  H   H1761     1.0  0.29794  0.62140  0.41891  1.0000
  H   H1762     1.0  0.48109  0.48320  0.39536  1.0000
  C   C1030     1.0  0.27325  0.58132  0.31074  1.0000
  H   H1763     1.0  0.30491  0.64414  0.46332  1.0000
  N   N73       1.0  0.45700  0.57203  0.46227  1.0000
  H   H1764     1.0  0.43900  0.61917  0.36203  1.0000
  H   H1765     1.0  0.27674  0.60368  0.44382  1.0000
  S   S293      1.0  0.45612  0.65245  0.47892  1.0000
  C   C1031     1.0  0.28288  0.61425  0.44506  1.0000
  H   H1766     1.0  0.40407  0.64398  0.37674  1.0000
  H   H1767     1.0  0.33903  0.58719  0.44846  1.0000
  H   H1768     1.0  0.32154  0.62593  0.39777  1.0000
  H   H1769     1.0  0.27863  0.55451  0.30510  1.0000
  C   C1032     1.0  0.42625  0.63877  0.49414  1.0000
  H   H1770     1.0  0.44183  0.64861  0.44153  1.0000
  H   H1771     1.0  0.31596  0.58440  0.45509  1.0000
  H   H1772     1.0  0.37458  0.63587  0.41960  1.0000
  C   C1033     1.0  0.49201  0.44755  0.35682  1.0000
  H   H1773     1.0  0.40486  0.59514  0.38703  1.0000
  H   H1774     1.0  0.25845  0.61958  0.36615  1.0000
  H   H1775     1.0  0.33625  0.60384  0.42151  1.0000
  C   C1034     1.0  0.26762  0.57138  0.25353  1.0000
  H   H1776     1.0  0.27991  0.58588  0.31892  1.0000
  H   H1777     1.0  0.42617  0.65269  0.39914  1.0000
  C   C1035     1.0  0.30116  0.61373  0.43199  1.0000
  H   H1778     1.0  0.38295  0.59802  0.39968  1.0000
  C   C1036     1.0  0.27574  0.56083  0.31676  1.0000
  C   C1037     1.0  0.48857  0.58960  0.29113  1.0000
  H   H1779     1.0  0.45476  0.59633  0.28915  1.0000
  H   H1780     1.0  0.31303  0.65494  0.30251  1.0000
  H   H1781     1.0  0.26692  0.60000  0.12600  1.0000
  H   H1782     1.0  0.45391  0.60251  0.25814  1.0000
  H   H1783     1.0  0.38945  0.64083  0.25171  1.0000
  H   H1784     1.0  0.48501  0.43987  0.36925  1.0000
  C   C1038     1.0  0.41991  0.64682  0.41296  1.0000
  H   H1785     1.0  0.47834  0.64955  0.34344  1.0000
  H   H1786     1.0  0.49916  0.62145  0.28058  1.0000
  H   H1787     1.0  0.29620  0.65754  0.11446  1.0000
  H   H1788     1.0  0.49404  0.62952  0.36663  1.0000
  H   H1789     1.0  0.38104  0.64177  0.23270  1.0000
  S   S294      1.0  0.26145  0.59198  0.16433  1.0000
  S   S295      1.0  0.39946  0.57082  0.49082  1.0000
  H   H1790     1.0  0.31566  0.65957  0.33893  1.0000
  H   H1791     1.0  0.39461  0.64356  0.44123  1.0000
  C   C1039     1.0  0.44428  0.55024  0.49037  1.0000
  C   C1040     1.0  0.32124  0.65712  0.32527  1.0000
  H   H1792     1.0  0.40053  0.65621  0.26441  1.0000
  C   C1041     1.0  0.30638  0.65995  0.31489  1.0000
  H   H1793     1.0  0.41271  0.64336  0.45013  1.0000
  N   N74       1.0  0.41192  0.66101  0.42394  1.0000
  H   H1794     1.0  0.40376  0.65857  0.22152  1.0000
  C   C1042     1.0  0.40290  0.65243  0.44229  1.0000
  H   H1795     1.0  0.28106  0.66210  0.34564  1.0000
  C   C1043     1.0  0.25360  0.61181  0.01867  1.0000
  H   H1796     1.0  0.50030  0.36659  0.46171  1.0000
  C   C1044     1.0  0.33702  0.66343  0.45009  1.0000
  H   H1797     1.0  0.49668  0.55387  0.45071  1.0000
  C   C1045     1.0  0.43600  0.66307  0.43990  1.0000
  H   H1798     1.0  0.45721  0.54415  0.49462  1.0000
  H   H1799     1.0  0.43634  0.53967  0.49437  1.0000
  C   C1046     1.0  0.42113  0.54155  0.54063  1.0000
  Fe  Fe147     1.0  0.42768  0.44434  0.54377  1.0000
  S   S296      1.0  0.44268  0.45143  0.51578  1.0000
  S   S297      1.0  0.43078  0.45203  0.56807  1.0000
  Fe  Fe148     1.0  0.40550  0.42342  0.53389  1.0000
  H   H1800     1.0  0.45182  0.34231  0.57321  1.0000
  S   S298      1.0  0.38278  0.40946  0.54947  1.0000
  Fe  Fe149     1.0  0.44410  0.42322  0.51457  1.0000
  H   H1801     1.0  0.26781  0.38991  0.66480  1.0000
  H   H1802     1.0  0.49471  0.41338  0.67900  1.0000
  S   S299      1.0  0.36471  0.59460  0.51418  1.0000
  S   S300      1.0  0.43126  0.41538  0.54352  1.0000
  S   S301      1.0  0.40091  0.45211  0.53616  1.0000
  C   C1047     1.0  0.47788  0.42710  0.65893  1.0000
  H   H1803     1.0  0.41012  0.48932  0.55567  1.0000
  C   C1048     1.0  0.45943  0.42976  0.62778  1.0000
  H   H1804     1.0  0.37420  0.36638  0.59878  1.0000
  H   H1805     1.0  0.35714  0.37131  0.65362  1.0000
  H   H1806     1.0  0.25225  0.44239  0.93312  1.0000
  H   H1807     1.0  0.26221  0.37421  0.76713  1.0000
  Fe  Fe150     1.0  0.39451  0.42439  0.65414  1.0000
  S   S302      1.0  0.39744  0.40922  0.68174  1.0000
  S   S303      1.0  0.39756  0.45280  0.64227  1.0000
  Fe  Fe151     1.0  0.38738  0.39243  0.64433  1.0000
  S   S304      1.0  0.39014  0.37460  0.67086  1.0000
  S   S305      1.0  0.38365  0.38247  0.62187  1.0000
  Fe  Fe152     1.0  0.37370  0.39865  0.68169  1.0000
  S   S306      1.0  0.35107  0.39610  0.70569  1.0000
  H   H1808     1.0  0.40844  0.34789  0.55957  1.0000
  S   S307      1.0  0.36938  0.41588  0.65512  1.0000
  S   S308      1.0  0.41215  0.40278  0.64047  1.0000
  C   C1049     1.0  0.41708  0.62505  0.50325  1.0000
  C   C1050     1.0  0.34373  0.35525  0.64544  1.0000
  C   C1051     1.0  0.44155  0.53566  0.53939  1.0000
  H   H1809     1.0  0.28927  0.33145  0.65630  1.0000
  H   H1810     1.0  0.38897  0.33210  0.66423  1.0000
  S   S309      1.0  0.41522  0.59051  0.51981  1.0000
  H   H1811     1.0  0.48383  0.34262  0.66568  1.0000
  H   H1812     1.0  0.40267  0.62760  0.50499  1.0000
  C   C1052     1.0  0.35602  0.36620  0.64269  1.0000
  H   H1813     1.0  0.30355  0.36440  0.71179  1.0000
  H   H1814     1.0  0.41771  0.49850  0.58595  1.0000
  H   H1815     1.0  0.49744  0.55521  0.67636  1.0000
  H   H1816     1.0  0.41139  0.33104  0.54035  1.0000
  C   C1053     1.0  0.25704  0.34906  0.80921  1.0000
  H   H1817     1.0  0.39949  0.34457  0.62252  1.0000
  H   H1818     1.0  0.43335  0.50186  0.56571  1.0000
  H   H1819     1.0  0.28175  0.36052  0.65175  1.0000
  H   H1820     1.0  0.26268  0.42713  0.98888  1.0000
  C   C1054     1.0  0.35338  0.35258  0.61456  1.0000
  H   H1821     1.0  0.40753  0.34609  0.64139  1.0000
  H   H1822     1.0  0.27306  0.34397  0.78386  1.0000
  H   H1823     1.0  0.47941  0.48483  0.53996  1.0000
  H   H1824     1.0  0.31083  0.33592  0.67306  1.0000
  H   H1825     1.0  0.42239  0.34380  0.62059  1.0000
  H   H1826     1.0  0.27962  0.39143  0.64201  1.0000
  H   H1827     1.0  0.44743  0.38228  0.63506  1.0000
  C   C1055     1.0  0.41045  0.33950  0.62995  1.0000
  H   H1828     1.0  0.45661  0.34526  0.54952  1.0000
  N   N75       1.0  0.50038  0.41660  0.56005  1.0000
  H   H1829     1.0  0.48884  0.43500  0.52835  1.0000
  H   H1830     1.0  0.49451  0.37945  0.63792  1.0000
  H   H1831     1.0  0.47628  0.36137  0.55163  1.0000
  H   H1832     1.0  0.40763  0.37308  0.57020  1.0000
  H   H1833     1.0  0.31850  0.46534  0.67062  1.0000
  H   H1834     1.0  0.49515  0.41982  0.62748  1.0000
  C   C1056     1.0  0.42647  0.60814  0.51020  1.0000
  H   H1835     1.0  0.41939  0.54984  0.52723  1.0000
  H   H1836     1.0  0.38353  0.52572  0.54512  1.0000
  C   C1057     1.0  0.32978  0.39992  0.70078  1.0000
  C   C1058     1.0  0.32783  0.40305  0.68314  1.0000
  C   C1059     1.0  0.31071  0.40798  0.67921  1.0000
  C   C1060     1.0  0.29544  0.40924  0.69294  1.0000
  C   C1061     1.0  0.29734  0.40541  0.71067  1.0000
  C   C1062     1.0  0.31450  0.40087  0.71457  1.0000
  H   H1837     1.0  0.33946  0.40169  0.67250  1.0000
  H   H1838     1.0  0.30931  0.41068  0.66549  1.0000
  H   H1839     1.0  0.28560  0.40631  0.72135  1.0000
  H   H1840     1.0  0.31591  0.39830  0.72827  1.0000
  C   C1063     1.0  0.44462  0.46805  0.65384  1.0000
  C   C1064     1.0  0.43458  0.45683  0.66706  1.0000
  C   C1065     1.0  0.42057  0.45159  0.66335  1.0000
  C   C1066     1.0  0.41590  0.45829  0.64667  1.0000
  C   C1067     1.0  0.42554  0.46998  0.63360  1.0000
  C   C1068     1.0  0.44011  0.47458  0.63705  1.0000
  H   H1841     1.0  0.43782  0.45199  0.68016  1.0000
  H   H1842     1.0  0.41308  0.44276  0.67358  1.0000
  H   H1843     1.0  0.42188  0.47535  0.62073  1.0000
  H   H1844     1.0  0.44766  0.48341  0.62686  1.0000
  C   C1069     1.0  0.45715  0.34032  0.62751  1.0000
  C   C1070     1.0  0.45440  0.35892  0.62393  1.0000
  H   H1845     1.0  0.41606  0.55102  0.54989  1.0000
  S   S310      1.0  0.49116  0.49041  0.56905  1.0000
  C   C1071     1.0  0.49389  0.42488  0.66754  1.0000
  H   H1846     1.0  0.39463  0.53858  0.52555  1.0000
  H   H1847     1.0  0.44830  0.52875  0.52818  1.0000
  C   C1072     1.0  0.29862  0.35549  0.70632  1.0000
  C   C1073     1.0  0.46249  0.39733  0.68442  1.0000
  Fe  Fe153     1.0  0.25190  0.40744  0.71026  1.0000
  C   C1074     1.0  0.44718  0.46340  0.56774  1.0000
  C   C1075     1.0  0.45774  0.47082  0.55178  1.0000
  C   C1076     1.0  0.47107  0.47931  0.55227  1.0000
  H   H1848     1.0  0.43112  0.36830  0.56918  1.0000
  C   C1077     1.0  0.46297  0.47338  0.58454  1.0000
  C   C1078     1.0  0.44974  0.46484  0.58406  1.0000
  H   H1849     1.0  0.45579  0.46981  0.53913  1.0000
  H   H1850     1.0  0.42816  0.51740  0.58011  1.0000
  H   H1851     1.0  0.46462  0.47462  0.59719  1.0000
  H   H1852     1.0  0.44148  0.45929  0.59643  1.0000
  C   C1079     1.0  0.48239  0.39270  0.51318  1.0000
  C   C1080     1.0  0.47341  0.38305  0.52881  1.0000
  H   H1853     1.0  0.46873  0.61611  0.49695  1.0000
  H   H1854     1.0  0.45899  0.38642  0.53258  1.0000
  C   C1081     1.0  0.47673  0.39492  0.66722  1.0000
  C   C1082     1.0  0.37450  0.35441  0.54887  1.0000
  C   C1083     1.0  0.38637  0.36286  0.53465  1.0000
  C   C1084     1.0  0.38939  0.37959  0.53473  1.0000
  C   C1085     1.0  0.38004  0.38825  0.54874  1.0000
  C   C1086     1.0  0.36777  0.38006  0.56260  1.0000
  C   C1087     1.0  0.36515  0.36316  0.56275  1.0000
  H   H1855     1.0  0.39337  0.35638  0.52361  1.0000
  H   H1856     1.0  0.39864  0.38592  0.52382  1.0000
  H   H1857     1.0  0.36026  0.38680  0.57333  1.0000
  H   H1858     1.0  0.35559  0.35705  0.57342  1.0000
  H   H1859     1.0  0.44523  0.52729  0.55195  1.0000
  C   C1088     1.0  0.45433  0.61865  0.49879  1.0000
  H   H1860     1.0  0.47540  0.39901  0.55710  1.0000
  Fe  Fe154     1.0  0.48636  0.47753  0.63586  1.0000
  C   C1089     1.0  0.37293  0.52959  0.50470  1.0000
  H   H1861     1.0  0.46531  0.40632  0.69145  1.0000
  H   H1862     1.0  0.36676  0.44265  0.56021  1.0000
  H   H1863     1.0  0.28976  0.37856  0.68742  1.0000
  H   H1864     1.0  0.30274  0.36367  0.65200  1.0000
  Fe  Fe155     1.0  0.36982  0.57293  0.49901  1.0000
  C   C1090     1.0  0.38193  0.55255  0.54689  1.0000
  C   C1091     1.0  0.28108  0.38623  0.65610  1.0000
  H   H1865     1.0  0.47905  0.63695  0.53178  1.0000
  H   H1866     1.0  0.41875  0.48592  0.53342  1.0000
  H   H1867     1.0  0.50023  0.63908  0.54559  1.0000
  H   H1868     1.0  0.47514  0.64129  0.50998  1.0000
  C   C1092     1.0  0.45159  0.33961  0.65920  1.0000
  C   C1093     1.0  0.48489  0.64199  0.51751  1.0000
  H   H1869     1.0  0.44715  0.54781  0.53651  1.0000
  C   C1094     1.0  0.46008  0.41559  0.64533  1.0000
  C   C1095     1.0  0.41965  0.51218  0.53620  1.0000
  C   C1096     1.0  0.49341  0.40750  0.63788  1.0000
  H   H1870     1.0  0.44830  0.42060  0.65532  1.0000
  S   S311      1.0  0.46272  0.47354  0.65870  1.0000
  S   S312      1.0  0.41867  0.42891  0.50468  1.0000
  H   H1871     1.0  0.28567  0.35327  0.71521  1.0000
  H   H1872     1.0  0.43362  0.50663  0.53792  1.0000
  S   S313      1.0  0.35891  0.54829  0.51248  1.0000
  H   H1873     1.0  0.31041  0.36526  0.67881  1.0000
  H   H1874     1.0  0.35225  0.34759  0.60362  1.0000
  H   H1875     1.0  0.43670  0.56084  0.49780  1.0000
  C   C1097     1.0  0.42196  0.34949  0.55926  1.0000
  H   H1876     1.0  0.45523  0.36645  0.61031  1.0000
  C   C1098     1.0  0.37185  0.51242  0.51485  1.0000
  C   C1099     1.0  0.44992  0.36789  0.63796  1.0000
  H   H1877     1.0  0.49223  0.43709  0.67270  1.0000
  H   H1878     1.0  0.30869  0.34272  0.70689  1.0000
  H   H1879     1.0  0.39569  0.51289  0.57048  1.0000
  H   H1880     1.0  0.45629  0.41247  0.56827  1.0000
  C   C1100     1.0  0.41942  0.36201  0.57211  1.0000
  N   N76       1.0  0.47706  0.41127  0.65231  1.0000
  C   C1101     1.0  0.46917  0.41289  0.55845  1.0000
  N   N77       1.0  0.34520  0.45440  0.69353  1.0000
  C   C1102     1.0  0.35078  0.44235  0.71027  1.0000
  C   C1103     1.0  0.36214  0.45770  0.68021  1.0000
  C   C1104     1.0  0.33587  0.44430  0.68645  1.0000
  C   C1105     1.0  0.33277  0.47132  0.69823  1.0000
  C   C1106     1.0  0.33555  0.43653  0.72570  1.0000
  C   C1107     1.0  0.37404  0.46666  0.68616  1.0000
  C   C1108     1.0  0.32953  0.45355  0.66888  1.0000
  C   C1109     1.0  0.33130  0.48810  0.68291  1.0000
  H   H1881     1.0  0.36043  0.42993  0.70714  1.0000
  H   H1882     1.0  0.35799  0.44895  0.71608  1.0000
  H   H1883     1.0  0.35952  0.46594  0.66719  1.0000
  H   H1884     1.0  0.37059  0.44486  0.67690  1.0000
  H   H1885     1.0  0.34478  0.43128  0.68437  1.0000
  H   H1886     1.0  0.32366  0.44103  0.69624  1.0000
  H   H1887     1.0  0.31898  0.46896  0.70429  1.0000
  H   H1888     1.0  0.33710  0.47520  0.70869  1.0000
  H   H1889     1.0  0.34130  0.42912  0.73759  1.0000
  H   H1890     1.0  0.32513  0.44803  0.72965  1.0000
  H   H1891     1.0  0.32932  0.42709  0.72254  1.0000
  H   H1892     1.0  0.38216  0.45676  0.69530  1.0000
  H   H1893     1.0  0.38367  0.47206  0.67428  1.0000
  H   H1894     1.0  0.36628  0.47794  0.69261  1.0000
  C   C1110     1.0  0.47387  0.48042  0.56868  1.0000
  H   H1895     1.0  0.32387  0.44405  0.66500  1.0000
  H   H1896     1.0  0.34058  0.45706  0.65764  1.0000
  H   H1897     1.0  0.31726  0.49585  0.68486  1.0000
  H   H1898     1.0  0.33472  0.48548  0.66931  1.0000
  H   H1899     1.0  0.33951  0.49721  0.68359  1.0000
  S   S314      1.0  0.37193  0.33279  0.54921  1.0000
  H   H1900     1.0  0.36897  0.55670  0.54246  1.0000
  C   C1111     1.0  0.41066  0.49598  0.54144  1.0000
  H   H1901     1.0  0.44967  0.66088  0.51711  1.0000
  H   H1902     1.0  0.48994  0.44113  0.58351  1.0000
  C   C1112     1.0  0.40659  0.52053  0.56609  1.0000
  C   C1113     1.0  0.34258  0.34824  0.63137  1.0000
  Fe  Fe156     1.0  0.39420  0.59357  0.50434  1.0000
  H   H1903     1.0  0.46547  0.43112  0.66871  1.0000
  H   H1904     1.0  0.44875  0.40228  0.68181  1.0000
  C   C1114     1.0  0.42244  0.50908  0.57471  1.0000
  S   S315      1.0  0.43997  0.36978  0.67308  1.0000
  H   H1905     1.0  0.38889  0.56385  0.54094  1.0000
  H   H1906     1.0  0.42639  0.35699  0.54544  1.0000
  C   C1115     1.0  0.36708  0.37014  0.62584  1.0000
  C   C1116     1.0  0.49404  0.39253  0.62851  1.0000
  H   H1907     1.0  0.47410  0.38383  0.66279  1.0000
  H   H1908     1.0  0.37863  0.55060  0.56163  1.0000
  Fe  Fe157     1.0  0.41348  0.38685  0.66809  1.0000
  H   H1909     1.0  0.45236  0.59199  0.51377  1.0000
  C   C1117     1.0  0.44816  0.35830  0.65561  1.0000
  H   H1910     1.0  0.40109  0.53201  0.57291  1.0000
  H   H1911     1.0  0.39708  0.49956  0.53856  1.0000
  S   S316      1.0  0.49329  0.46037  0.61580  1.0000
  H   H1912     1.0  0.38259  0.48420  0.51689  1.0000
  H   H1913     1.0  0.46127  0.44270  0.62893  1.0000
  C   C1118     1.0  0.28845  0.36585  0.65918  1.0000
  H   H1914     1.0  0.47548  0.42138  0.57942  1.0000
  C   C1119     1.0  0.48312  0.36869  0.53939  1.0000
  H   H1915     1.0  0.45723  0.40337  0.64331  1.0000
  C   C1120     1.0  0.36563  0.36340  0.61180  1.0000
  C   C1121     1.0  0.25353  0.35731  0.67882  1.0000
  H   H1916     1.0  0.47631  0.43682  0.55860  1.0000
  C   C1122     1.0  0.48028  0.42246  0.56474  1.0000
  H   H1917     1.0  0.46547  0.42082  0.54567  1.0000
  H   H1918     1.0  0.36194  0.51074  0.52716  1.0000
  S   S317      1.0  0.27420  0.41523  0.68757  1.0000
  H   H1919     1.0  0.33560  0.35176  0.65855  1.0000
  H   H1920     1.0  0.49001  0.38967  0.67102  1.0000
  C   C1123     1.0  0.38364  0.49741  0.50915  1.0000
  C   C1124     1.0  0.49840  0.33999  0.65978  1.0000
  H   H1921     1.0  0.46263  0.38413  0.69376  1.0000
  H   H1922     1.0  0.44598  0.43228  0.62463  1.0000
  H   H1923     1.0  0.42086  0.51735  0.52152  1.0000
  C   C1125     1.0  0.44507  0.60505  0.50836  1.0000
  H   H1924     1.0  0.47847  0.43898  0.64789  1.0000
  Fe  Fe158     1.0  0.41629  0.45677  0.50794  1.0000
  H   H1925     1.0  0.26303  0.37051  0.69356  1.0000
  H   H1926     1.0  0.25205  0.44172  0.96139  1.0000
  S   S318      1.0  0.49070  0.50252  0.61541  1.0000
  H   H1927     1.0  0.25856  0.35026  0.66764  1.0000
  N   N78       1.0  0.28688  0.35617  0.67848  1.0000
  H   H1928     1.0  0.26685  0.34697  0.70113  1.0000
  H   H1929     1.0  0.29055  0.39318  0.65824  1.0000
  C   C1126     1.0  0.45262  0.33570  0.56218  1.0000
  H   H1930     1.0  0.46936  0.42537  0.61621  1.0000
  H   H1931     1.0  0.41692  0.35507  0.58633  1.0000
  C   C1127     1.0  0.29671  0.36454  0.68695  1.0000
  Fe  Fe159     1.0  0.49960  0.48459  0.59559  1.0000
  N   N79       1.0  0.37330  0.44179  0.59525  1.0000
  C   C1128     1.0  0.36414  0.42700  0.60675  1.0000
  C   C1129     1.0  0.39033  0.43349  0.58385  1.0000
  C   C1130     1.0  0.36156  0.45494  0.58335  1.0000
  C   C1131     1.0  0.37721  0.45157  0.60722  1.0000
  C   C1132     1.0  0.34491  0.43283  0.61715  1.0000
  C   C1133     1.0  0.40516  0.42194  0.59381  1.0000
  C   C1134     1.0  0.35540  0.44700  0.57080  1.0000
  C   C1135     1.0  0.38899  0.46558  0.59785  1.0000
  H   H1932     1.0  0.36385  0.41741  0.59884  1.0000
  H   H1933     1.0  0.37192  0.41887  0.61695  1.0000
  H   H1934     1.0  0.39625  0.44383  0.57337  1.0000
  H   H1935     1.0  0.38754  0.42473  0.57649  1.0000
  H   H1936     1.0  0.34944  0.46222  0.59137  1.0000
  H   H1937     1.0  0.36854  0.46555  0.57454  1.0000
  H   H1938     1.0  0.36457  0.45863  0.61473  1.0000
  H   H1939     1.0  0.38388  0.44186  0.61768  1.0000
  H   H1940     1.0  0.33539  0.43929  0.60813  1.0000
  H   H1941     1.0  0.34025  0.42070  0.62576  1.0000
  H   H1942     1.0  0.34423  0.44171  0.62609  1.0000
  H   H1943     1.0  0.41035  0.42985  0.60014  1.0000
  H   H1944     1.0  0.40069  0.41060  0.60390  1.0000
  H   H1945     1.0  0.41664  0.41616  0.58405  1.0000
  H   H1946     1.0  0.34875  0.43569  0.57787  1.0000
  H   H1947     1.0  0.34561  0.45752  0.56392  1.0000
  H   H1948     1.0  0.38260  0.47833  0.60239  1.0000
  H   H1949     1.0  0.39150  0.46870  0.58311  1.0000
  H   H1950     1.0  0.40216  0.46107  0.60190  1.0000
  N   N80       1.0  0.41040  0.52710  0.54609  1.0000
  C   C1136     1.0  0.39267  0.53528  0.54041  1.0000
  N   N81       1.0  0.48704  0.66097  0.51439  1.0000
  C   C1137     1.0  0.26346  0.35369  0.79082  1.0000
  H   H1951     1.0  0.49425  0.34058  0.60796  1.0000
  C   C1138     1.0  0.50030  0.38358  0.57619  1.0000
  H   H1952     1.0  0.48265  0.39535  0.62183  1.0000
  S   S319      1.0  0.32862  0.33312  0.63495  1.0000
  C   C1139     1.0  0.26774  0.35769  0.68881  1.0000
  C   C1140     1.0  0.25716  0.37076  0.78129  1.0000
  H   H1953     1.0  0.49867  0.59634  0.68908  1.0000
  H   H1954     1.0  0.49860  0.61503  0.51426  1.0000
  H   H1955     1.0  0.45007  0.33218  0.67289  1.0000
  S   S320      1.0  0.47064  0.41054  0.49965  1.0000
  S   S321      1.0  0.25666  0.38401  0.73274  1.0000
  H   H1956     1.0  0.48578  0.38529  0.58215  1.0000
  N   N82       1.0  0.43477  0.33173  0.56296  1.0000
  H   H1957     1.0  0.49513  0.34914  0.63297  1.0000
  C   C1141     1.0  0.50084  0.65339  0.54235  1.0000
  C   C1142     1.0  0.29634  0.33686  0.67934  1.0000
  H   H1958     1.0  0.48934  0.66083  0.55078  1.0000
  H   H1959     1.0  0.25429  0.41808  0.96613  1.0000
  N   N83       1.0  0.44760  0.81326  0.06115  1.0000
  H   H1960     1.0  0.38652  0.70989  0.25229  1.0000
  S   S322      1.0  0.29748  0.81115  0.36410  1.0000
  H   H1961     1.0  0.33266  0.80484  0.02240  1.0000
  H   H1962     1.0  0.28862  0.71092  0.28379  1.0000
  H   H1963     1.0  0.33060  0.77406  0.05572  1.0000
  H   H1964     1.0  0.42247  0.82384  0.07732  1.0000
  C   C1143     1.0  0.47704  0.86805  0.10193  1.0000
  S   S323      1.0  0.28185  0.73455  0.40236  1.0000
  C   C1144     1.0  0.44327  0.82720  0.04485  1.0000
  S   S324      1.0  0.29500  0.67689  0.07934  1.0000
  S   S325      1.0  0.46532  0.92637  0.15909  1.0000
  H   H1965     1.0  0.27088  0.69179  0.30198  1.0000
  Fe  Fe160     1.0  0.34190  0.89440  0.17901  1.0000
  S   S326      1.0  0.35238  0.90229  0.14956  1.0000
  S   S327      1.0  0.31962  0.91382  0.19274  1.0000
  Fe  Fe161     1.0  0.36914  0.85971  0.18225  1.0000
  S   S328      1.0  0.38195  0.86475  0.15306  1.0000
  S   S329      1.0  0.37822  0.83346  0.20014  1.0000
  Fe  Fe162     1.0  0.37970  0.89261  0.15616  1.0000
  S   S330      1.0  0.40041  0.90845  0.13911  1.0000
  Fe  Fe163     1.0  0.35374  0.87387  0.14897  1.0000
  S   S331      1.0  0.34692  0.86771  0.12565  1.0000
  S   S332      1.0  0.36920  0.88689  0.18580  1.0000
  S   S333      1.0  0.34103  0.86664  0.17794  1.0000
  Fe  Fe164     1.0  0.46401  0.77985  0.16200  1.0000
  S   S334      1.0  0.44208  0.76617  0.16354  1.0000
  S   S335      1.0  0.45974  0.80686  0.16795  1.0000
  C   C1145     1.0  0.32660  0.79835  0.03601  1.0000
  S   S336      1.0  0.47394  0.73487  0.14744  1.0000
  Fe  Fe165     1.0  0.45717  0.76109  0.13662  1.0000
  S   S337      1.0  0.44468  0.76704  0.11273  1.0000
  Fe  Fe166     1.0  0.46079  0.74128  0.17438  1.0000
  S   S338      1.0  0.44981  0.72016  0.19658  1.0000
  S   S339      1.0  0.47760  0.77693  0.13414  1.0000
  S   S340      1.0  0.48150  0.75550  0.17507  1.0000
  Fe  Fe167     1.0  0.32827  0.78377  0.11629  1.0000
  S   S341      1.0  0.35787  0.78069  0.10666  1.0000
  S   S342      1.0  0.31491  0.79926  0.13798  1.0000
  Fe  Fe168     1.0  0.32529  0.76030  0.09256  1.0000
  S   S343      1.0  0.35498  0.75517  0.08126  1.0000
  S   S344      1.0  0.30451  0.75337  0.08178  1.0000
  Fe  Fe169     1.0  0.35785  0.75193  0.10945  1.0000
  S   S345      1.0  0.37858  0.73200  0.12337  1.0000
  Fe  Fe170     1.0  0.35248  0.78448  0.07945  1.0000
  S   S346      1.0  0.36590  0.80139  0.05436  1.0000
  S   S347      1.0  0.32833  0.75456  0.12107  1.0000
  S   S348      1.0  0.32266  0.79003  0.08881  1.0000
  Fe  Fe171     1.0  0.43970  0.89249  0.02018  1.0000
  S   S349      1.0  0.43676  0.88452  0.05008  1.0000
  S   S350      1.0  0.46597  0.88148  0.00328  1.0000
  Fe  Fe172     1.0  0.40248  0.91525  0.02281  1.0000
  S   S351      1.0  0.39686  0.90877  0.05256  1.0000
  C   C1146     1.0  0.49182  0.68827  0.48859  1.0000
  Fe  Fe173     1.0  0.42421  0.91336  0.04951  1.0000
  S   S352      1.0  0.42682  0.93011  0.06712  1.0000
  Fe  Fe174     1.0  0.40984  0.88071  0.04996  1.0000
  S   S353      1.0  0.39837  0.85879  0.07044  1.0000
  S   S354      1.0  0.42918  0.92177  0.01973  1.0000
  S   S355      1.0  0.41338  0.88661  0.02018  1.0000
  Fe  Fe175     1.0  0.45685  0.68700  0.28967  1.0000
  H   H1966     1.0  0.31924  0.69067  0.30359  1.0000
  S   S356      1.0  0.48029  0.69236  0.26725  1.0000
  Fe  Fe176     1.0  0.41812  0.70308  0.30253  1.0000
  H   H1967     1.0  0.44509  0.82086  0.03333  1.0000
  S   S357      1.0  0.39758  0.72609  0.29197  1.0000
  Fe  Fe177     1.0  0.44052  0.68022  0.32953  1.0000
  H   H1968     1.0  0.34302  0.94833  0.14660  1.0000
  H   H1969     1.0  0.41099  0.68390  0.20119  1.0000
  S   S358      1.0  0.44336  0.70549  0.30872  1.0000
  S   S359      1.0  0.43172  0.68630  0.28232  1.0000
  H   H1970     1.0  0.44774  0.97895  0.18630  1.0000
  H   H1971     1.0  0.32318  0.87192  0.08124  1.0000
  H   H1972     1.0  0.43683  0.80813  0.08992  1.0000
  H   H1973     1.0  0.38538  0.66433  0.35936  1.0000
  C   C1147     1.0  0.45444  0.84173  0.03756  1.0000
  C   C1148     1.0  0.34774  0.75956  0.99856  1.0000
  H   H1974     1.0  0.35040  0.77919  0.04062  1.0000
  H   H1975     1.0  0.44801  0.85254  0.02768  1.0000
  H   H1976     1.0  0.48822  0.79370  0.07520  1.0000
  C   C1149     1.0  0.44158  0.83505  0.08239  1.0000
  Fe  Fe178     1.0  0.29929  0.71157  0.39002  1.0000
  H   H1977     1.0  0.45722  0.86048  0.14694  1.0000
  C   C1150     1.0  0.28168  0.79073  0.33352  1.0000
  H   H1978     1.0  0.31834  0.74731  0.01501  1.0000
  C   C1151     1.0  0.45969  0.67134  0.36746  1.0000
  S   S360      1.0  0.26563  0.68161  0.04269  1.0000
  H   H1979     1.0  0.48217  0.71780  0.11468  1.0000
  C   C1152     1.0  0.30516  0.77471  0.36995  1.0000
  C   C1153     1.0  0.49580  0.74961  0.09852  1.0000
  S   S361      1.0  0.41391  0.67954  0.32489  1.0000
  H   H1980     1.0  0.38630  0.94749  0.07864  1.0000
  C   C1154     1.0  0.37799  0.94184  0.09144  1.0000
  H   H1981     1.0  0.36049  0.96027  0.14106  1.0000
  C   C1155     1.0  0.36014  0.88526  0.03542  1.0000
  H   H1982     1.0  0.37329  0.66680  0.34250  1.0000
  C   C1156     1.0  0.48269  0.68519  0.36992  1.0000
  C   C1157     1.0  0.46940  0.68496  0.36114  1.0000
  H   H1983     1.0  0.39315  0.69471  0.39124  1.0000
  C   C1158     1.0  0.34143  0.71591  0.31638  1.0000
  C   C1159     1.0  0.44767  0.97702  0.14601  1.0000
  H   H1984     1.0  0.46627  0.69559  0.34996  1.0000
  C   C1160     1.0  0.37599  0.72223  0.30149  1.0000
  C   C1161     1.0  0.36239  0.72970  0.29181  1.0000
  H   H1985     1.0  0.39336  0.91562  0.08716  1.0000
  H   H1986     1.0  0.25478  0.89653  0.25019  1.0000
  C   C1162     1.0  0.35500  0.70848  0.32607  1.0000
  C   C1163     1.0  0.37228  0.71163  0.31861  1.0000
  H   H1987     1.0  0.36521  0.73798  0.27862  1.0000
  C   C1164     1.0  0.45313  0.85182  0.11844  1.0000
  H   H1988     1.0  0.35216  0.70044  0.33939  1.0000
  H   H1989     1.0  0.38254  0.70637  0.32637  1.0000
  C   C1165     1.0  0.30280  0.73189  0.08072  1.0000
  C   C1166     1.0  0.31385  0.71622  0.08800  1.0000
  C   C1167     1.0  0.31156  0.69944  0.08718  1.0000
  C   C1168     1.0  0.29805  0.69819  0.07936  1.0000
  C   C1169     1.0  0.28714  0.71386  0.07194  1.0000
  C   C1170     1.0  0.28967  0.73061  0.07244  1.0000
  H   H1990     1.0  0.32412  0.71702  0.09428  1.0000
  H   H1991     1.0  0.32023  0.68737  0.09274  1.0000
  H   H1992     1.0  0.27691  0.71305  0.06561  1.0000
  H   H1993     1.0  0.28146  0.74267  0.06625  1.0000
  C   C1171     1.0  0.37374  0.81859  0.05820  1.0000
  C   C1172     1.0  0.38422  0.82875  0.04415  1.0000
  C   C1173     1.0  0.39147  0.84168  0.04747  1.0000
  C   C1174     1.0  0.38826  0.84437  0.06486  1.0000
  C   C1175     1.0  0.37720  0.83477  0.07862  1.0000
  C   C1176     1.0  0.36995  0.82196  0.07534  1.0000
  H   H1994     1.0  0.31016  0.74620  0.37326  1.0000
  H   H1995     1.0  0.39983  0.84923  0.03669  1.0000
  H   H1996     1.0  0.37438  0.83716  0.09199  1.0000
  H   H1997     1.0  0.36147  0.81467  0.08613  1.0000
  C   C1177     1.0  0.40166  0.96600  0.09456  1.0000
  C   C1178     1.0  0.48049  0.87420  0.01814  1.0000
  H   H1998     1.0  0.36951  0.69245  0.24197  1.0000
  C   C1179     1.0  0.44755  0.88365  0.11784  1.0000
  N   N84       1.0  0.39644  0.67624  0.24038  1.0000
  C   C1180     1.0  0.46027  0.71147  0.21501  1.0000
  C   C1181     1.0  0.45490  0.69691  0.22777  1.0000
  C   C1182     1.0  0.46175  0.69047  0.24336  1.0000
  C   C1183     1.0  0.47379  0.69877  0.24652  1.0000
  C   C1184     1.0  0.47993  0.71276  0.23337  1.0000
  C   C1185     1.0  0.47315  0.71913  0.21762  1.0000
  H   H1999     1.0  0.44542  0.69057  0.22560  1.0000
  H   H2000     1.0  0.33789  0.78512  0.00535  1.0000
  H   H2001     1.0  0.38290  0.96681  0.11904  1.0000
  H   H2002     1.0  0.47761  0.73018  0.20778  1.0000
  C   C1186     1.0  0.42698  0.75638  0.11566  1.0000
  C   C1187     1.0  0.41663  0.76146  0.10261  1.0000
  C   C1188     1.0  0.40190  0.75386  0.10489  1.0000
  C   C1189     1.0  0.39763  0.74082  0.12010  1.0000
  C   C1190     1.0  0.40831  0.73529  0.13295  1.0000
  C   C1191     1.0  0.42286  0.74323  0.13086  1.0000
  H   H2003     1.0  0.41973  0.77158  0.09089  1.0000
  H   H2004     1.0  0.39389  0.75803  0.09480  1.0000
  H   H2005     1.0  0.40504  0.72518  0.14473  1.0000
  H   H2006     1.0  0.43082  0.73920  0.14099  1.0000
  C   C1192     1.0  0.33726  0.84913  0.12939  1.0000
  C   C1193     1.0  0.33778  0.84205  0.11481  1.0000
  C   C1194     1.0  0.33104  0.82668  0.11740  1.0000
  C   C1195     1.0  0.32314  0.81868  0.13455  1.0000
  C   C1196     1.0  0.32191  0.82618  0.14908  1.0000
  C   C1197     1.0  0.32917  0.84126  0.14654  1.0000
  H   H2007     1.0  0.34358  0.84837  0.10148  1.0000
  H   H2008     1.0  0.33171  0.82116  0.10610  1.0000
  H   H2009     1.0  0.31565  0.82013  0.16236  1.0000
  H   H2010     1.0  0.32836  0.84686  0.15781  1.0000
  C   C1198     1.0  0.40110  0.82604  0.19226  1.0000
  C   C1199     1.0  0.41166  0.83837  0.18236  1.0000
  C   C1200     1.0  0.42983  0.83241  0.17537  1.0000
  C   C1201     1.0  0.43738  0.81412  0.17796  1.0000
  C   C1202     1.0  0.42688  0.80175  0.18801  1.0000
  C   C1203     1.0  0.40874  0.80773  0.19526  1.0000
  H   H2011     1.0  0.40584  0.85254  0.18023  1.0000
  H   H2012     1.0  0.43793  0.84199  0.16774  1.0000
  H   H2013     1.0  0.43277  0.78764  0.19028  1.0000
  H   H2014     1.0  0.40052  0.79823  0.20286  1.0000
  C   C1204     1.0  0.44730  0.92118  0.15369  1.0000
  C   C1205     1.0  0.44461  0.92625  0.13620  1.0000
  C   C1206     1.0  0.42985  0.92259  0.13224  1.0000
  C   C1207     1.0  0.41799  0.91336  0.14551  1.0000
  C   C1208     1.0  0.42070  0.90813  0.16302  1.0000
  C   C1209     1.0  0.43522  0.91225  0.16713  1.0000
  H   H2015     1.0  0.45377  0.93320  0.12576  1.0000
  H   H2016     1.0  0.42774  0.92660  0.11874  1.0000
  H   H2017     1.0  0.41160  0.90102  0.17337  1.0000
  H   H2018     1.0  0.43720  0.90833  0.18072  1.0000
  C   C1210     1.0  0.48387  0.92941  0.06976  1.0000
  C   C1211     1.0  0.48078  0.92429  0.05541  1.0000
  C   C1212     1.0  0.46324  0.92456  0.05444  1.0000
  C   C1213     1.0  0.44881  0.93013  0.06768  1.0000
  C   C1214     1.0  0.45190  0.93578  0.08166  1.0000
  C   C1215     1.0  0.46939  0.93518  0.08287  1.0000
  C   C1216     1.0  0.47363  0.79489  0.07664  1.0000
  H   H2019     1.0  0.46082  0.92065  0.04342  1.0000
  H   H2020     1.0  0.44078  0.94049  0.09166  1.0000
  H   H2021     1.0  0.47167  0.93922  0.09390  1.0000
  H   H2022     1.0  0.27357  0.67348  0.28004  1.0000
  C   C1217     1.0  0.46455  0.97086  0.15410  1.0000
  C   C1218     1.0  0.38766  0.95632  0.02892  1.0000
  H   H2023     1.0  0.39462  0.94424  0.03625  1.0000
  C   C1219     1.0  0.36082  0.94517  0.12112  1.0000
  C   C1220     1.0  0.36459  0.74407  0.03762  1.0000
  C   C1221     1.0  0.29393  0.78985  0.37578  1.0000
  H   H2024     1.0  0.31633  0.77621  0.35876  1.0000
  H   H2025     1.0  0.48451  0.72893  0.07559  1.0000
  H   H2026     1.0  0.36357  0.97091  0.06845  1.0000
  S   S362      1.0  0.28867  0.70290  0.37091  1.0000
  H   H2027     1.0  0.36354  0.67243  0.29554  1.0000
  H   H2028     1.0  0.42002  0.80776  0.04624  1.0000
  C   C1222     1.0  0.26355  0.90165  0.21061  1.0000
  C   C1223     1.0  0.26645  0.91751  0.21277  1.0000
  C   C1224     1.0  0.28367  0.92128  0.20695  1.0000
  C   C1225     1.0  0.29800  0.90924  0.19897  1.0000
  C   C1226     1.0  0.29495  0.89356  0.19653  1.0000
  C   C1227     1.0  0.27777  0.88977  0.20235  1.0000
  H   H2029     1.0  0.27119  0.79938  0.39525  1.0000
  H   H2030     1.0  0.28595  0.93349  0.20877  1.0000
  H   H2031     1.0  0.30581  0.88430  0.19026  1.0000
  H   H2032     1.0  0.27557  0.87751  0.20059  1.0000
  C   C1228     1.0  0.39765  0.67440  0.41510  1.0000
  C   C1229     1.0  0.44228  0.79644  0.06078  1.0000
  H   H2033     1.0  0.45613  0.83408  0.08045  1.0000
  H   H2034     1.0  0.46914  0.89680  0.03043  1.0000
  H   H2035     1.0  0.47277  0.82066  0.05956  1.0000
  H   H2036     1.0  0.25423  0.80120  0.34492  1.0000
  H   H2037     1.0  0.30773  0.87814  0.06675  1.0000
  H   H2038     1.0  0.29480  0.85323  0.23543  1.0000
  C   C1230     1.0  0.43707  0.88864  0.10272  1.0000
  H   H2039     1.0  0.44155  0.85082  0.13000  1.0000
  H   H2040     1.0  0.43747  0.88274  0.13068  1.0000
  H   H2041     1.0  0.44579  0.88668  0.08964  1.0000
  H   H2042     1.0  0.43027  0.90295  0.10119  1.0000
  S   S363      1.0  0.32548  0.67164  0.36737  1.0000
  Fe  Fe179     1.0  0.31677  0.70055  0.35502  1.0000
  H   H2043     1.0  0.35045  0.94022  0.11771  1.0000
  H   H2044     1.0  0.25424  0.72871  0.10091  1.0000
  H   H2045     1.0  0.31019  0.71592  0.27996  1.0000
  H   H2046     1.0  0.45784  0.67896  0.25288  1.0000
  H   H2047     1.0  0.25913  0.66926  0.16172  1.0000
  C   C1231     1.0  0.47804  0.88384  0.03124  1.0000
  H   H2048     1.0  0.46798  0.83613  0.03040  1.0000
  H   H2049     1.0  0.48947  0.71907  0.23563  1.0000
  H   H2050     1.0  0.33064  0.86904  0.05835  1.0000
  H   H2051     1.0  0.26192  0.87254  0.44352  1.0000
  N   N85       1.0  0.38339  0.79806  0.14531  1.0000
  C   C1232     1.0  0.38013  0.78061  0.14389  1.0000
  C   C1233     1.0  0.38271  0.81070  0.12750  1.0000
  C   C1234     1.0  0.36818  0.80524  0.15930  1.0000
  C   C1235     1.0  0.40121  0.79467  0.15060  1.0000
  C   C1236     1.0  0.37927  0.76592  0.16110  1.0000
  C   C1237     1.0  0.39599  0.80382  0.11144  1.0000
  C   C1238     1.0  0.36783  0.82368  0.16227  1.0000
  C   C1239     1.0  0.41146  0.81011  0.14418  1.0000
  H   H2052     1.0  0.36738  0.78289  0.13933  1.0000
  H   H2053     1.0  0.39082  0.77455  0.13368  1.0000
  H   H2054     1.0  0.38521  0.82385  0.12739  1.0000
  H   H2055     1.0  0.36899  0.81385  0.12468  1.0000
  H   H2056     1.0  0.35508  0.80598  0.15610  1.0000
  H   H2057     1.0  0.36826  0.79618  0.17263  1.0000
  H   H2058     1.0  0.39961  0.79071  0.16540  1.0000
  H   H2059     1.0  0.41070  0.78309  0.14549  1.0000
  H   H2060     1.0  0.36678  0.76912  0.17108  1.0000
  H   H2061     1.0  0.37897  0.75327  0.15775  1.0000
  H   H2062     1.0  0.39114  0.76330  0.16706  1.0000
  H   H2063     1.0  0.40870  0.79540  0.11486  1.0000
  H   H2064     1.0  0.38984  0.79603  0.10586  1.0000
  H   H2065     1.0  0.39940  0.81533  0.10081  1.0000
  H   H2066     1.0  0.37921  0.82322  0.16808  1.0000
  H   H2067     1.0  0.35557  0.82755  0.17229  1.0000
  H   H2068     1.0  0.36723  0.83431  0.15005  1.0000
  H   H2069     1.0  0.41690  0.81245  0.12959  1.0000
  H   H2070     1.0  0.42318  0.80638  0.15061  1.0000
  H   H2071     1.0  0.40341  0.82286  0.14766  1.0000
  H   H2072     1.0  0.26158  0.82542  0.22211  1.0000
  N   N86       1.0  0.33546  0.76599  0.03051  1.0000
  H   H2073     1.0  0.26893  0.85454  0.28120  1.0000
  Fe  Fe180     1.0  0.29826  0.67487  0.38514  1.0000
  C   C1240     1.0  0.29984  0.70964  0.29023  1.0000
  C   C1241     1.0  0.49139  0.66820  0.49453  1.0000
  C   C1242     1.0  0.25169  0.77596  0.32871  1.0000
  H   H2074     1.0  0.33462  0.73221  0.29173  1.0000
  H   H2075     1.0  0.34213  0.73691  0.03366  1.0000
  H   H2076     1.0  0.41284  0.69595  0.23451  1.0000
  C   C1243     1.0  0.39058  0.66548  0.45399  1.0000
  C   C1244     1.0  0.29162  0.68665  0.13202  1.0000
  N   N87       1.0  0.25617  0.77306  0.34674  1.0000
  C   C1245     1.0  0.37935  0.95575  0.01563  1.0000
  N   N88       1.0  0.37210  0.95422  0.10440  1.0000
  H   H2077     1.0  0.31053  0.77911  0.02172  1.0000
  H   H2078     1.0  0.26583  0.87011  0.29440  1.0000
  H   H2079     1.0  0.40102  0.92378  0.10190  1.0000
  C   C1246     1.0  0.35102  0.95653  0.13532  1.0000
  H   H2080     1.0  0.47850  0.69688  0.49235  1.0000
  H   H2081     1.0  0.38311  0.67382  0.22088  1.0000
  C   C1247     1.0  0.42594  0.67058  0.42437  1.0000
  H   H2082     1.0  0.42909  0.67419  0.21313  1.0000
  C   C1248     1.0  0.32495  0.89713  0.06112  1.0000
  H   H2083     1.0  0.34650  0.97005  0.09882  1.0000
  Fe  Fe181     1.0  0.25642  0.86787  0.34252  1.0000
  H   H2084     1.0  0.38798  0.69220  0.27202  1.0000
  H   H2085     1.0  0.35847  0.77435  0.01120  1.0000
  H   H2086     1.0  0.35980  0.98225  0.10380  1.0000
  N   N89       1.0  0.42553  0.75788  0.24244  1.0000
  C   C1249     1.0  0.42169  0.75275  0.22705  1.0000
  C   C1250     1.0  0.43653  0.77210  0.23486  1.0000
  C   C1251     1.0  0.40851  0.76525  0.25447  1.0000
  C   C1252     1.0  0.43536  0.74142  0.25328  1.0000
  C   C1253     1.0  0.40912  0.73950  0.23203  1.0000
  C   C1254     1.0  0.45604  0.76575  0.22539  1.0000
  C   C1255     1.0  0.39581  0.78132  0.24530  1.0000
  C   C1256     1.0  0.44160  0.74421  0.26904  1.0000
  H   H2087     1.0  0.41605  0.76477  0.21765  1.0000
  H   H2088     1.0  0.42059  0.78548  0.05866  1.0000
  H   H2089     1.0  0.43680  0.77899  0.24527  1.0000
  H   H2090     1.0  0.43026  0.78297  0.22485  1.0000
  H   H2091     1.0  0.40073  0.75471  0.26154  1.0000
  H   H2092     1.0  0.41160  0.76961  0.26537  1.0000
  H   H2093     1.0  0.42674  0.73145  0.25941  1.0000
  H   H2094     1.0  0.44695  0.73413  0.24476  1.0000
  H   H2095     1.0  0.41502  0.72630  0.23956  1.0000
  H   H2096     1.0  0.39568  0.74475  0.23960  1.0000
  C   C1257     1.0  0.38879  0.92306  0.09809  1.0000
  H   H2097     1.0  0.45678  0.75990  0.21393  1.0000
  H   H2098     1.0  0.46249  0.77747  0.21991  1.0000
  Fe  Fe182     1.0  0.27101  0.67396  0.07047  1.0000
  H   H2099     1.0  0.39076  0.77785  0.23517  1.0000
  H   H2100     1.0  0.40214  0.79303  0.23918  1.0000
  H   H2101     1.0  0.38392  0.78559  0.25555  1.0000
  H   H2102     1.0  0.43093  0.74318  0.28136  1.0000
  H   H2103     1.0  0.44565  0.75710  0.26649  1.0000
  H   H2104     1.0  0.45371  0.73375  0.27150  1.0000
  H   H2105     1.0  0.25965  0.66508  0.11480  1.0000
  H   H2106     1.0  0.26055  0.74448  0.35725  1.0000
  H   H2107     1.0  0.46996  0.88947  0.13634  1.0000
  H   H2108     1.0  0.48987  0.69596  0.36535  1.0000
  H   H2109     1.0  0.48013  0.87175  0.15186  1.0000
  C   C1258     1.0  0.48632  0.67178  0.38491  1.0000
  H   H2110     1.0  0.40525  0.67362  0.38648  1.0000
  C   C1259     1.0  0.25161  0.86444  0.45043  1.0000
  C   C1260     1.0  0.28401  0.74858  0.33709  1.0000
  H   H2111     1.0  0.49866  0.79180  0.16580  1.0000
  H   H2112     1.0  0.42472  0.69740  0.20314  1.0000
  H   H2113     1.0  0.47406  0.71018  0.08465  1.0000
  H   H2114     1.0  0.29172  0.70090  0.12561  1.0000
  H   H2115     1.0  0.49578  0.69165  0.47378  1.0000
  C   C1261     1.0  0.48987  0.71282  0.10238  1.0000
  S   S364      1.0  0.35809  0.66695  0.39717  1.0000
  C   C1262     1.0  0.31590  0.76709  0.03130  1.0000
  C   C1263     1.0  0.36055  0.97159  0.09672  1.0000
  C   C1264     1.0  0.48210  0.88646  0.09400  1.0000
  H   H2116     1.0  0.29530  0.71756  0.30081  1.0000
  H   H2117     1.0  0.41150  0.67364  0.26043  1.0000
  C   C1265     1.0  0.47904  0.99494  0.13557  1.0000
  H   H2118     1.0  0.33775  0.74435  0.05365  1.0000
  C   C1266     1.0  0.34059  0.66985  0.43150  1.0000
  H   H2119     1.0  0.29641  0.75443  0.02738  1.0000
  H   H2120     1.0  0.28094  0.70053  0.32388  1.0000
  H   H2121     1.0  0.29637  0.74322  0.34262  1.0000
  H   H2122     1.0  0.28739  0.75869  0.32494  1.0000
  C   C1267     1.0  0.28062  0.67873  0.30261  1.0000
  C   C1268     1.0  0.38738  0.97267  0.03262  1.0000
  C   C1269     1.0  0.42968  0.97631  0.01087  1.0000
  N   N90       1.0  0.34282  0.89936  0.06260  1.0000
  C   C1270     1.0  0.34254  0.89730  0.08212  1.0000
  S   S365      1.0  0.49168  0.95251  0.11262  1.0000
  C   C1271     1.0  0.34579  0.91750  0.05193  1.0000
  H   H2123     1.0  0.48177  0.74935  0.09905  1.0000
  C   C1272     1.0  0.35898  0.90089  0.08644  1.0000
  H   H2124     1.0  0.27287  0.66865  0.31137  1.0000
  C   C1273     1.0  0.33287  0.93364  0.05891  1.0000
  H   H2125     1.0  0.37225  0.67518  0.26103  1.0000
  H   H2126     1.0  0.33044  0.90604  0.08860  1.0000
  H   H2127     1.0  0.34150  0.88348  0.08951  1.0000
  C   C1274     1.0  0.26839  0.75522  0.35187  1.0000
  H   H2128     1.0  0.31380  0.90546  0.06917  1.0000
  H   H2129     1.0  0.35968  0.91887  0.05075  1.0000
  H   H2130     1.0  0.34469  0.91924  0.03783  1.0000
  H   H2131     1.0  0.37092  0.88726  0.05650  1.0000
  H   H2132     1.0  0.35726  0.87172  0.06352  1.0000
  H   H2133     1.0  0.35632  0.90066  0.10095  1.0000
  H   H2134     1.0  0.37100  0.89021  0.08377  1.0000
  H   H2135     1.0  0.36186  0.91413  0.07933  1.0000
  C   C1275     1.0  0.40798  0.66506  0.25340  1.0000
  H   H2136     1.0  0.42352  0.96628  0.00858  1.0000
  C   C1276     1.0  0.34514  0.77185  0.01160  1.0000
  H   H2137     1.0  0.33621  0.94611  0.04971  1.0000
  H   H2138     1.0  0.33426  0.93406  0.07232  1.0000
  H   H2139     1.0  0.31875  0.93388  0.05913  1.0000
  H   H2140     1.0  0.48944  0.85827  0.10487  1.0000
  H   H2141     1.0  0.32805  0.80600  0.04526  1.0000
  H   H2142     1.0  0.45015  0.97356  0.02655  1.0000
  S   S366      1.0  0.26087  0.89148  0.32043  1.0000
  H   H2143     1.0  0.27914  0.84836  0.25533  1.0000
  H   H2144     1.0  0.25993  0.76802  0.11792  1.0000
  H   H2145     1.0  0.30301  0.85187  0.27532  1.0000
  S   S367      1.0  0.30607  0.68369  0.40603  1.0000
  H   H2146     1.0  0.38068  0.91496  0.10925  1.0000
  C   C1277     1.0  0.27956  0.78782  0.39031  1.0000
  C   C1278     1.0  0.27626  0.77073  0.39873  1.0000
  H   H2147     1.0  0.25554  0.84017  0.20242  1.0000
  H   H2148     1.0  0.47173  0.89596  0.08719  1.0000
  N   N91       1.0  0.47329  0.98540  0.15464  1.0000
  H   H2149     1.0  0.48345  0.88360  0.05646  1.0000
  H   H2150     1.0  0.44724  0.66996  0.43731  1.0000
  C   C1279     1.0  0.37935  0.98867  0.02263  1.0000
  H   H2151     1.0  0.37748  0.67094  0.44988  1.0000
  H   H2152     1.0  0.36915  0.93318  0.12821  1.0000
  H   H2153     1.0  0.45134  0.95376  0.01828  1.0000
  H   H2154     1.0  0.43722  0.98685  0.15280  1.0000
  N   N92       1.0  0.27415  0.88065  0.26621  1.0000
  C   C1280     1.0  0.28120  0.89506  0.26971  1.0000
  C   C1281     1.0  0.27459  0.86544  0.28233  1.0000
  H   H2155     1.0  0.36564  0.87140  0.03329  1.0000
  C   C1282     1.0  0.28590  0.87516  0.24940  1.0000
  C   C1283     1.0  0.28029  0.91273  0.25556  1.0000
  C   C1284     1.0  0.29318  0.85659  0.28679  1.0000
  C   C1285     1.0  0.27532  0.67650  0.34184  1.0000
  C   C1286     1.0  0.28235  0.85935  0.24398  1.0000
  H   H2156     1.0  0.27388  0.89856  0.28276  1.0000
  H   H2157     1.0  0.29552  0.89036  0.27070  1.0000
  H   H2158     1.0  0.30770  0.76888  0.04471  1.0000
  H   H2159     1.0  0.36682  0.70468  0.26776  1.0000
  C   C1287     1.0  0.34415  0.74749  0.03919  1.0000
  H   H2160     1.0  0.27159  0.86394  0.23621  1.0000
  H   H2161     1.0  0.28455  0.88647  0.23776  1.0000
  H   H2162     1.0  0.30039  0.87251  0.24959  1.0000
  H   H2163     1.0  0.28474  0.92249  0.26031  1.0000
  H   H2164     1.0  0.49033  0.69818  0.10598  1.0000
  H   H2165     1.0  0.26653  0.91896  0.25338  1.0000
  H   H2166     1.0  0.29840  0.86561  0.29177  1.0000
  H   H2167     1.0  0.29190  0.84469  0.29783  1.0000
  H   H2168     1.0  0.42636  0.88092  0.10612  1.0000
  H   H2169     1.0  0.32275  0.90222  0.04723  1.0000
  H   H2170     1.0  0.31563  0.68370  0.28586  1.0000
  H   H2171     1.0  0.28545  0.80276  0.33487  1.0000
  H   H2172     1.0  0.44757  0.85463  0.10629  1.0000
  H   H2173     1.0  0.45318  0.89535  0.11684  1.0000
  C   C1288     1.0  0.30170  0.75767  0.37820  1.0000
  H   H2174     1.0  0.41631  0.68776  0.39261  1.0000
  H   H2175     1.0  0.41281  0.80333  0.07032  1.0000
  H   H2176     1.0  0.47748  0.83292  0.10807  1.0000
  S   S368      1.0  0.26276  0.84036  0.33704  1.0000
  C   C1289     1.0  0.43684  0.81934  0.07799  1.0000
  H   H2177     1.0  0.43625  0.67111  0.41170  1.0000
  C   C1290     1.0  0.34514  0.72639  0.29919  1.0000
  C   C1291     1.0  0.42281  0.79867  0.05890  1.0000
  N   N93       1.0  0.46184  0.86674  0.11807  1.0000
  H   H2178     1.0  0.49139  0.87492  0.12908  1.0000
  S   S369      1.0  0.26844  0.86003  0.36679  1.0000
  H   H2179     1.0  0.39511  0.70253  0.22281  1.0000
  C   C1292     1.0  0.28840  0.68650  0.32709  1.0000
  S   S370      1.0  0.44151  0.67110  0.35876  1.0000
  C   C1293     1.0  0.48611  0.87633  0.04595  1.0000
  H   H2180     1.0  0.45122  0.79033  0.04956  1.0000
  Fe  Fe183     1.0  0.33292  0.68216  0.38746  1.0000
  Fe  Fe184     1.0  0.27221  0.83209  0.36291  1.0000
  C   C1294     1.0  0.46850  0.86221  0.13521  1.0000
  H   H2181     1.0  0.29291  0.77944  0.33656  1.0000
  C   C1295     1.0  0.46748  0.80873  0.06055  1.0000
  Fe  Fe185     1.0  0.49327  0.75119  0.14720  1.0000
  C   C1296     1.0  0.31086  0.75098  0.02783  1.0000
  H   H2182     1.0  0.44390  0.78615  0.07318  1.0000
  H   H2183     1.0  0.27343  0.74712  0.11244  1.0000
  H   H2184     1.0  0.39415  0.97289  0.04272  1.0000
  H   H2185     1.0  0.43431  0.74643  0.21891  1.0000
  C   C1297     1.0  0.48994  0.97724  0.16228  1.0000
  H   H2186     1.0  0.28954  0.91090  0.24269  1.0000
  H   H2187     1.0  0.46408  0.75607  0.23471  1.0000
  H   H2188     1.0  0.34148  0.96862  0.13018  1.0000
  H   H2189     1.0  0.49797  0.76305  0.09104  1.0000
  H   H2190     1.0  0.34960  0.74519  0.00488  1.0000
  S   S371      1.0  0.32705  0.71088  0.37322  1.0000
  C   C1298     1.0  0.47793  0.87559  0.13796  1.0000
  H   H2191     1.0  0.26722  0.78669  0.36026  1.0000
  H   H2192     1.0  0.36611  0.94001  0.08768  1.0000
  C   C1299     1.0  0.32168  0.87789  0.06728  1.0000
  H   H2193     1.0  0.42895  0.83421  0.04735  1.0000
  H   H2194     1.0  0.27223  0.68201  0.35407  1.0000
  C   C1300     1.0  0.30842  0.69003  0.29746  1.0000
  H   H2195     1.0  0.26833  0.75028  0.13474  1.0000
  H   H2196     1.0  0.26334  0.69122  0.13504  1.0000
  H   H2197     1.0  0.49196  0.91981  0.04524  1.0000
  H   H2198     1.0  0.43547  0.84803  0.07466  1.0000
  H   H2199     1.0  0.49466  0.88493  0.08365  1.0000
  H   H2200     1.0  0.28144  0.73715  0.33325  1.0000
  S   S372      1.0  0.38074  0.93510  0.01053  1.0000
  C   C1301     1.0  0.37077  0.98825  0.00945  1.0000
  C   C1302     1.0  0.28722  0.75562  0.39257  1.0000
  H   H2201     1.0  0.41869  0.98508  0.01860  1.0000
  H   H2202     1.0  0.40483  0.96080  0.08225  1.0000
  C   C1303     1.0  0.28580  0.67438  0.28382  1.0000
  C   C1304     1.0  0.27510  0.68193  0.12894  1.0000
  C   C1305     1.0  0.37908  0.68521  0.25090  1.0000
  H   H2203     1.0  0.41457  0.96246  0.09899  1.0000
  H   H2204     1.0  0.29926  0.68721  0.33312  1.0000
  C   C1306     1.0  0.49722  0.85935  0.04722  1.0000
  C   C1307     1.0  0.37058  0.97174  0.00611  1.0000
  C   C1308     1.0  0.38051  0.69870  0.26116  1.0000
  H   H2205     1.0  0.45557  0.99603  0.00455  1.0000
  S   S373      1.0  0.31972  0.71246  0.32574  1.0000
  H   H2206     1.0  0.38704  0.82635  0.03079  1.0000
  H   H2207     1.0  0.39488  0.94527  0.11754  1.0000
  H   H2208     1.0  0.48453  0.89259  0.10386  1.0000
  H   H2209     1.0  0.47838  0.84931  0.13639  1.0000
  H   H2210     1.0  0.46957  0.82744  0.13209  1.0000
  H   H2211     1.0  0.45572  0.84788  0.04801  1.0000
  C   C1309     1.0  0.25506  0.88845  0.26393  1.0000
  C   C1310     1.0  0.26274  0.75329  0.12256  1.0000
  N   N94       1.0  0.29593  0.67886  0.31050  1.0000
  H   H2212     1.0  0.40724  0.73713  0.21952  1.0000
  H   H2213     1.0  0.26363  0.77612  0.31773  1.0000
  H   H2214     1.0  0.48729  0.98517  0.12721  1.0000
  C   C1311     1.0  0.46547  0.83303  0.11909  1.0000
  H   H2215     1.0  0.49758  0.74832  0.11217  1.0000
  C   C1312     1.0  0.35792  0.88538  0.05533  1.0000
  H   H2216     1.0  0.26513  0.76921  0.40994  1.0000
  H   H2217     1.0  0.39674  0.67667  0.45349  1.0000
  Fe  Fe186     1.0  0.48961  0.93017  0.13695  1.0000
  C   C1313     1.0  0.48900  0.96129  0.17837  1.0000
  H   H2218     1.0  0.49439  0.85017  0.00858  1.0000
  H   H2219     1.0  0.28047  0.79308  0.31948  1.0000
  H   H2220     1.0  0.47398  0.86428  0.09066  1.0000
  C   C1314     1.0  0.38771  0.95756  0.10962  1.0000
  C   C1315     1.0  0.26410  0.78828  0.34703  1.0000
  H   H2221     1.0  0.43419  0.95987  0.03641  1.0000
  H   H2222     1.0  0.39741  0.98080  0.09138  1.0000
  H   H2223     1.0  0.42002  0.68486  0.42500  1.0000
  H   H2224     1.0  0.27435  0.75528  0.36306  1.0000
  H   H2225     1.0  0.43616  0.83489  0.09681  1.0000
  H   H2226     1.0  0.25551  0.92678  0.21908  1.0000
  H   H2227     1.0  0.38636  0.66818  0.41596  1.0000
  H   H2228     1.0  0.33304  0.68262  0.42576  1.0000
  H   H2229     1.0  0.36855  0.75332  0.04340  1.0000
  H   H2230     1.0  0.36918  0.73036  0.04517  1.0000
  H   H2231     1.0  0.32657  0.67115  0.45860  1.0000
  H   H2232     1.0  0.33134  0.66535  0.31829  1.0000
  H   H2233     1.0  0.25744  0.85350  0.46056  1.0000
  H   H2234     1.0  0.31203  0.79972  0.03735  1.0000
  H   H2235     1.0  0.30441  0.67872  0.12578  1.0000
  H   H2236     1.0  0.29158  0.68495  0.27348  1.0000
  H   H2237     1.0  0.42726  0.66569  0.45278  1.0000
  C   C1316     1.0  0.36589  0.97927  0.07651  1.0000
  H   H2238     1.0  0.39173  0.68572  0.42212  1.0000
  H   H2239     1.0  0.36944  0.89396  0.02685  1.0000
  H   H2240     1.0  0.37195  0.74471  0.02357  1.0000
  H   H2241     1.0  0.46068  0.96251  0.16749  1.0000
  H   H2242     1.0  0.45795  0.82367  0.11767  1.0000
  H   H2243     1.0  0.31258  0.73916  0.03891  1.0000
  H   H2244     1.0  0.29119  0.68523  0.14638  1.0000
  H   H2245     1.0  0.49439  0.98751  0.16634  1.0000
  H   H2246     1.0  0.45087  0.98237  0.13142  1.0000
  C   C1317     1.0  0.41826  0.68597  0.21044  1.0000
  H   H2247     1.0  0.39329  0.66840  0.30259  1.0000
  C   C1318     1.0  0.33634  0.77871  0.04133  1.0000
  H   H2248     1.0  0.34741  0.88968  0.03072  1.0000
  H   H2249     1.0  0.44182  0.96520  0.14783  1.0000
  H   H2250     1.0  0.27558  0.68584  0.11427  1.0000
  H   H2251     1.0  0.48800  0.94919  0.17445  1.0000
  C   C1319     1.0  0.44239  0.96545  0.02346  1.0000
  H   H2252     1.0  0.46692  0.79900  0.08951  1.0000
  C   C1320     1.0  0.49251  0.85768  0.01873  1.0000
  H   H2253     1.0  0.46555  0.72977  0.09375  1.0000
  H   H2254     1.0  0.47260  0.96677  0.99923  1.0000
  C   C1321     1.0  0.40371  0.68299  0.39525  1.0000
  H   H2255     1.0  0.47492  0.80367  0.04823  1.0000
  H   H2256     1.0  0.47435  0.96127  0.14643  1.0000
  H   H2257     1.0  0.37988  0.98098  0.07218  1.0000
  C   C1322     1.0  0.40533  0.69077  0.22761  1.0000
  H   H2258     1.0  0.47162  0.78144  0.07718  1.0000
  H   H2259     1.0  0.26244  0.67830  0.33787  1.0000
  C   C1323     1.0  0.47814  0.72097  0.08815  1.0000
  H   H2260     1.0  0.45955  0.99135  0.19371  1.0000
  H   H2261     1.0  0.25850  0.75032  0.09074  1.0000
  H   H2262     1.0  0.35730  0.99273  0.07311  1.0000
  H   H2263     1.0  0.48180  0.66581  0.48786  1.0000
  H   H2264     1.0  0.47790  0.96423  0.18967  1.0000
  C   C1324     1.0  0.45129  0.99203  0.18410  1.0000
  C   C1325     1.0  0.39178  0.66508  0.23020  1.0000
  H   H2265     1.0  0.36412  0.97140  0.99580  1.0000
  C   C1326     1.0  0.50089  0.85020  0.03336  1.0000
  H   H2266     1.0  0.40437  0.99243  0.96959  1.0000
  C   C1327     1.0  0.42277  0.99649  0.98350  1.0000
  H   H2267     1.0  0.47151  0.68547  0.52272  1.0000
  H   H2268     1.0  0.42390  0.97493  0.96996  1.0000
  C   C1328     1.0  0.45216  0.97577  0.98224  1.0000
  C   C1329     1.0  0.47147  0.97214  0.98515  1.0000
  H   H2269     1.0  0.46814  0.99483  0.89130  1.0000
  H   H2270     1.0  0.45499  0.68067  0.50108  1.0000
  H   H2271     1.0  0.44161  0.68233  0.52271  1.0000
  H   H2272     1.0  0.49498  0.98174  0.87615  1.0000
  H   H2273     1.0  0.48014  0.96202  0.97744  1.0000
  H   H2274     1.0  0.44874  0.96253  0.98421  1.0000
  C   C1330     1.0  0.41402  0.98408  0.97800  1.0000
  H   H2275     1.0  0.47723  0.98428  0.98006  1.0000
  H   H2276     1.0  0.45298  0.98175  0.96773  1.0000
  H   H2277     1.0  0.36024  0.76085  0.98833  1.0000
  C   C1331     1.0  0.45328  0.67391  0.51537  1.0000
  H   H2278     1.0  0.46619  0.66574  0.53755  1.0000
  C   C1332     1.0  0.46987  0.67184  0.52312  1.0000
  H   H2279     1.0  0.40616  0.97627  0.98963  1.0000
  H   H2280     1.0  0.33635  0.76340  0.99165  1.0000
  N   N95       1.0  0.43773  0.98736  0.99345  1.0000
  H   H2281     1.0  0.50005  0.98341  0.89656  1.0000
  Fe  Fe187     1.0  0.60419  0.20457  0.17093  1.0000
  S   S374      1.0  0.58585  0.18732  0.16990  1.0000
  S   S375      1.0  0.59959  0.23129  0.17897  1.0000
  Fe  Fe188     1.0  0.63774  0.17866  0.15769  1.0000
  S   S376      1.0  0.62322  0.15881  0.15592  1.0000
  S   S377      1.0  0.66722  0.17513  0.15482  1.0000
  Fe  Fe189     1.0  0.60425  0.18266  0.14361  1.0000
  S   S378      1.0  0.60069  0.17974  0.11696  1.0000
  Fe  Fe190     1.0  0.60598  0.16450  0.18187  1.0000
  S   S379      1.0  0.60054  0.14232  0.20542  1.0000
  S   S380      1.0  0.62045  0.20220  0.14347  1.0000
  S   S381      1.0  0.62250  0.18194  0.18481  1.0000
  Fe  Fe191     1.0  0.52096  0.16044  0.03725  1.0000
  S   S382      1.0  0.53876  0.17785  0.03876  1.0000
  H   H2282     1.0  0.73105  0.03085  0.12471  1.0000
  Fe  Fe192     1.0  0.53803  0.12862  0.06281  1.0000
  S   S383      1.0  0.55757  0.14308  0.06567  1.0000
  S   S384      1.0  0.53629  0.10076  0.07874  1.0000
  Fe  Fe193     1.0  0.53441  0.16605  0.06831  1.0000
  S   S385      1.0  0.53079  0.17860  0.09204  1.0000
  Fe  Fe194     1.0  0.56051  0.15339  0.03618  1.0000
  S   S386      1.0  0.58772  0.15500  0.01870  1.0000
  S   S387      1.0  0.51435  0.15105  0.06713  1.0000
  S   S388      1.0  0.54317  0.13670  0.03289  1.0000
  S   S389      1.0  0.71824  0.06793  0.02511  1.0000
  S   S390      1.0  0.68435  0.08282  0.05619  1.0000
  Fe  Fe195     1.0  0.70010  0.09430  0.02954  1.0000
  Fe  Fe196     1.0  0.70117  0.05649  0.05081  1.0000
  S   S391      1.0  0.71416  0.03417  0.07037  1.0000
  S   S392      1.0  0.70484  0.21353  0.07979  1.0000
  Fe  Fe197     1.0  0.73038  0.07003  0.22208  1.0000
  S   S393      1.0  0.73163  0.05924  0.19816  1.0000
  H   H2283     1.0  0.63017  0.06583  0.25830  1.0000
  Fe  Fe198     1.0  0.69374  0.09347  0.21957  1.0000
  S   S394      1.0  0.69215  0.08562  0.19497  1.0000
  S   S395      1.0  0.67143  0.11083  0.23535  1.0000
  Fe  Fe199     1.0  0.70276  0.05785  0.20888  1.0000
  S   S396      1.0  0.69275  0.03410  0.20760  1.0000
  Fe  Fe200     1.0  0.72098  0.08760  0.18590  1.0000
  H   H2284     1.0  0.74497  0.09946  0.23239  1.0000
  S   S397      1.0  0.70250  0.06545  0.23433  1.0000
  S   S398      1.0  0.72159  0.09867  0.20901  1.0000
  Fe  Fe201     1.0  0.61751  0.02863  0.16270  1.0000
  S   S399      1.0  0.62116  0.04354  0.18176  1.0000
  Fe  Fe202     1.0  0.60956  0.04010  0.12562  1.0000
  H   H2285     1.0  0.67950  0.32004  0.26840  1.0000
  S   S400      1.0  0.60870  0.06500  0.10442  1.0000
  H   H2286     1.0  0.66897  0.32048  0.41630  1.0000
  H   H2287     1.0  0.72838  0.12341  0.17626  1.0000
  S   S401      1.0  0.59175  0.03706  0.15280  1.0000
  S   S402      1.0  0.63485  0.03354  0.13558  1.0000
  S   S403      1.0  0.68174  0.05138  0.03788  1.0000
  S   S404      1.0  0.62276  0.28450  0.24806  1.0000
  H   H2288     1.0  0.73171  0.24616  0.38162  1.0000
  H   H2289     1.0  0.71782  0.29666  0.22729  1.0000
  Fe  Fe203     1.0  0.70513  0.29431  0.35501  1.0000
  C   C1333     1.0  0.71170  0.10225  0.10194  1.0000
  Fe  Fe204     1.0  0.63857  0.25615  0.25122  1.0000
  S   S405      1.0  0.63268  0.23278  0.24362  1.0000
  Fe  Fe205     1.0  0.66225  0.26297  0.27275  1.0000
  S   S406      1.0  0.68470  0.25082  0.28785  1.0000
  S   S407      1.0  0.63676  0.25295  0.28073  1.0000
  S   S408      1.0  0.66550  0.26382  0.24349  1.0000
  H   H2290     1.0  0.64934  0.24880  0.36329  1.0000
  H   H2291     1.0  0.66464  0.25056  0.42744  1.0000
  C   C1334     1.0  0.63361  0.11341  0.07662  1.0000
  S   S409      1.0  0.73238  0.27673  0.35401  1.0000
  H   H2292     1.0  0.64266  0.12123  0.11148  1.0000
  C   C1335     1.0  0.63685  0.25042  0.42838  1.0000
  H   H2293     1.0  0.72268  0.05377  0.14038  1.0000
  H   H2294     1.0  0.64063  0.14524  0.10604  1.0000
  H   H2295     1.0  0.67344  0.28150  0.41076  1.0000
  H   H2296     1.0  0.72741  0.11641  0.10933  1.0000
  C   C1336     1.0  0.68313  0.26067  0.30581  1.0000
  C   C1337     1.0  0.69685  0.25539  0.31549  1.0000
  C   C1338     1.0  0.69637  0.26446  0.32873  1.0000
  C   C1339     1.0  0.68216  0.27880  0.33219  1.0000
  C   C1340     1.0  0.66816  0.28347  0.32310  1.0000
  C   C1341     1.0  0.66860  0.27438  0.31006  1.0000
  H   H2297     1.0  0.70802  0.24458  0.31245  1.0000
  H   H2298     1.0  0.70700  0.26049  0.33608  1.0000
  H   H2299     1.0  0.65764  0.27802  0.30332  1.0000
  H   H2300     1.0  0.74326  0.00963  0.02277  1.0000
  H   H2301     1.0  0.63316  0.08653  0.24437  1.0000
  H   H2302     1.0  0.59307  0.07333  0.23634  1.0000
  H   H2303     1.0  0.57234  0.28409  0.25892  1.0000
  H   H2304     1.0  0.66144  0.23233  0.42113  1.0000
  C   C1342     1.0  0.53797  0.32657  0.45211  1.0000
  C   C1343     1.0  0.71968  0.14336  0.03941  1.0000
  H   H2305     1.0  0.63058  0.23983  0.42741  1.0000
  C   C1344     1.0  0.67378  0.03688  0.19865  1.0000
  C   C1345     1.0  0.66516  0.05373  0.19055  1.0000
  C   C1346     1.0  0.64959  0.05552  0.18430  1.0000
  C   C1347     1.0  0.64264  0.04050  0.18595  1.0000
  C   C1348     1.0  0.65175  0.02357  0.19322  1.0000
  C   C1349     1.0  0.66724  0.02179  0.19958  1.0000
  H   H2306     1.0  0.67020  0.06541  0.18945  1.0000
  H   H2307     1.0  0.64261  0.06864  0.17862  1.0000
  H   H2308     1.0  0.62323  0.03265  0.01642  1.0000
  H   H2309     1.0  0.71130  0.10810  0.12702  1.0000
  C   C1350     1.0  0.70123  0.03844  0.15194  1.0000
  C   C1351     1.0  0.63406  0.07238  0.24404  1.0000
  C   C1352     1.0  0.66694  0.01938  0.00120  1.0000
  H   H2310     1.0  0.65923  0.07101  0.22355  1.0000
  H   H2311     1.0  0.58031  0.12924  0.11642  1.0000
  C   C1353     1.0  0.68069  0.02815  0.08733  1.0000
  C   C1354     1.0  0.67582  0.03260  0.00119  1.0000
  H   H2312     1.0  0.61410  0.22821  0.28277  1.0000
  H   H2313     1.0  0.65477  0.02352  0.10231  1.0000
  H   H2314     1.0  0.67550  0.04170  0.08091  1.0000
  H   H2315     1.0  0.70978  0.15402  0.03365  1.0000
  C   C1355     1.0  0.60214  0.13435  0.02417  1.0000
  C   C1356     1.0  0.62068  0.13299  0.02099  1.0000
  C   C1357     1.0  0.63179  0.11680  0.02754  1.0000
  C   C1358     1.0  0.62431  0.10201  0.03700  1.0000
  C   C1359     1.0  0.60598  0.10318  0.03915  1.0000
  C   C1360     1.0  0.59491  0.11932  0.03288  1.0000
  C   C1361     1.0  0.67606  0.32053  0.22298  1.0000
  H   H2316     1.0  0.62817  0.27550  0.15910  1.0000
  H   H2317     1.0  0.60020  0.09172  0.04616  1.0000
  H   H2318     1.0  0.58068  0.12019  0.03510  1.0000
  C   C1362     1.0  0.55647  0.08970  0.08544  1.0000
  C   C1363     1.0  0.55741  0.07411  0.09887  1.0000
  C   C1364     1.0  0.57352  0.06610  0.10481  1.0000
  C   C1365     1.0  0.58853  0.07379  0.09725  1.0000
  C   C1366     1.0  0.58761  0.08901  0.08360  1.0000
  C   C1367     1.0  0.57169  0.09683  0.07764  1.0000
  H   H2319     1.0  0.54566  0.06843  0.10485  1.0000
  H   H2320     1.0  0.57425  0.05421  0.11533  1.0000
  H   H2321     1.0  0.59934  0.09466  0.07746  1.0000
  H   H2322     1.0  0.57135  0.10811  0.06663  1.0000
  C   C1368     1.0  0.60795  0.23201  0.19744  1.0000
  C   C1369     1.0  0.61156  0.21673  0.21065  1.0000
  C   C1370     1.0  0.61875  0.21740  0.22483  1.0000
  C   C1371     1.0  0.62255  0.23331  0.22598  1.0000
  C   C1372     1.0  0.61856  0.24879  0.21304  1.0000
  C   C1373     1.0  0.61117  0.24814  0.19890  1.0000
  H   H2323     1.0  0.60847  0.20443  0.21016  1.0000
  H   H2324     1.0  0.62142  0.20547  0.23498  1.0000
  H   H2325     1.0  0.62130  0.26118  0.21384  1.0000
  H   H2326     1.0  0.60813  0.26014  0.18894  1.0000
  C   C1374     1.0  0.65187  0.11891  0.22675  1.0000
  C   C1375     1.0  0.63544  0.12304  0.23842  1.0000
  C   C1376     1.0  0.61966  0.12999  0.23185  1.0000
  C   C1377     1.0  0.62033  0.13344  0.21351  1.0000
  C   C1378     1.0  0.63681  0.12961  0.20175  1.0000
  C   C1379     1.0  0.65254  0.12204  0.20840  1.0000
  H   H2327     1.0  0.63490  0.12080  0.25259  1.0000
  H   H2328     1.0  0.60697  0.13311  0.24094  1.0000
  H   H2329     1.0  0.63739  0.13227  0.18755  1.0000
  H   H2330     1.0  0.66523  0.11920  0.19927  1.0000
  C   C1380     1.0  0.58080  0.17988  0.11054  1.0000
  C   C1381     1.0  0.58209  0.17775  0.09319  1.0000
  C   C1382     1.0  0.56692  0.17707  0.08754  1.0000
  C   C1383     1.0  0.55011  0.17914  0.09899  1.0000
  C   C1384     1.0  0.54866  0.18174  0.11623  1.0000
  C   C1385     1.0  0.56399  0.18184  0.12210  1.0000
  H   H2331     1.0  0.59486  0.17692  0.08392  1.0000
  H   H2332     1.0  0.56814  0.17551  0.07412  1.0000
  H   H2333     1.0  0.53566  0.18355  0.12511  1.0000
  H   H2334     1.0  0.56276  0.18369  0.13543  1.0000
  C   C1386     1.0  0.67692  0.18700  0.13428  1.0000
  C   C1387     1.0  0.69424  0.18962  0.13179  1.0000
  C   C1388     1.0  0.70249  0.19847  0.11520  1.0000
  C   C1389     1.0  0.69349  0.20464  0.10104  1.0000
  C   C1390     1.0  0.67598  0.20242  0.10364  1.0000
  C   C1391     1.0  0.66775  0.19343  0.12024  1.0000
  H   H2335     1.0  0.70143  0.18457  0.14257  1.0000
  H   H2336     1.0  0.71595  0.20033  0.11333  1.0000
  H   H2337     1.0  0.66908  0.20701  0.09264  1.0000
  H   H2338     1.0  0.65456  0.19100  0.12195  1.0000
  C   C1392     1.0  0.64708  0.24037  0.15786  1.0000
  C   C1393     1.0  0.72072  0.12565  0.03845  1.0000
  H   H2339     1.0  0.69155  0.24249  0.10715  1.0000
  N   N96       1.0  0.63237  0.13255  0.07722  1.0000
  C   C1394     1.0  0.62211  0.14448  0.06336  1.0000
  C   C1395     1.0  0.65061  0.13710  0.07269  1.0000
  C   C1396     1.0  0.62223  0.13644  0.09531  1.0000
  C   C1397     1.0  0.60248  0.14289  0.06625  1.0000
  C   C1398     1.0  0.66205  0.13528  0.05397  1.0000
  H   H2340     1.0  0.62198  0.15880  0.06241  1.0000
  H   H2341     1.0  0.62860  0.14172  0.04986  1.0000
  H   H2342     1.0  0.65895  0.12868  0.08230  1.0000
  H   H2343     1.0  0.64918  0.15117  0.07378  1.0000
  H   H2344     1.0  0.61458  0.15052  0.09401  1.0000
  H   H2345     1.0  0.60156  0.12997  0.06402  1.0000
  H   H2346     1.0  0.59451  0.14482  0.07957  1.0000
  H   H2347     1.0  0.67553  0.13763  0.05301  1.0000
  H   H2348     1.0  0.66414  0.12176  0.05136  1.0000
  H   H2349     1.0  0.65644  0.14549  0.04318  1.0000
  C   C1399     1.0  0.66995  0.24085  0.13052  1.0000
  C   C1400     1.0  0.65174  0.21985  0.16382  1.0000
  C   C1401     1.0  0.67678  0.24731  0.11038  1.0000
  H   H2350     1.0  0.67855  0.24432  0.13765  1.0000
  H   H2351     1.0  0.67314  0.22602  0.13275  1.0000
  H   H2352     1.0  0.64508  0.22782  0.12698  1.0000
  H   H2353     1.0  0.66639  0.21472  0.16261  1.0000
  H   H2354     1.0  0.64529  0.21601  0.17809  1.0000
  H   H2355     1.0  0.64662  0.21307  0.15631  1.0000
  H   H2356     1.0  0.67137  0.24130  0.10236  1.0000
  H   H2357     1.0  0.67421  0.26205  0.10604  1.0000
  C   C1402     1.0  0.70640  0.14229  0.09073  1.0000
  H   H2358     1.0  0.63270  0.24444  0.16401  1.0000
  H   H2359     1.0  0.65688  0.29418  0.32616  1.0000
  H   H2360     1.0  0.64404  0.25687  0.10204  1.0000
  C   C1403     1.0  0.74119  0.23700  0.38910  1.0000
  C   C1404     1.0  0.65500  0.27598  0.39713  1.0000
  C   C1405     1.0  0.65905  0.28490  0.41032  1.0000
  H   H2361     1.0  0.64036  0.28004  0.39753  1.0000
  H   H2362     1.0  0.66098  0.28256  0.38348  1.0000
  H   H2363     1.0  0.65531  0.29964  0.40600  1.0000
  C   C1406     1.0  0.72108  0.28679  0.28915  1.0000
  H   H2364     1.0  0.61732  0.27053  0.14421  1.0000
  H   H2365     1.0  0.63534  0.25046  0.44270  1.0000
  S   S410      1.0  0.58531  0.30105  0.45254  1.0000
  H   H2366     1.0  0.54104  0.31360  0.44790  1.0000
  N   N97       1.0  0.69395  0.03764  0.13644  1.0000
  C   C1407     1.0  0.53721  0.12963  0.11389  1.0000
  Fe  Fe206     1.0  0.58852  0.31624  0.42414  1.0000
  Fe  Fe207     1.0  0.71463  0.32372  0.36647  1.0000
  H   H2367     1.0  0.60113  0.00456  0.07297  1.0000
  H   H2368     1.0  0.60291  0.04978  0.01854  1.0000
  H   H2369     1.0  0.69054  0.01728  0.12491  1.0000
  H   H2370     1.0  0.70768  0.28601  0.29771  1.0000
  C   C1408     1.0  0.57745  0.11907  0.11092  1.0000
  N   N98       1.0  0.62156  0.07128  0.23310  1.0000
  H   H2371     1.0  0.64638  0.01193  0.19471  1.0000
  H   H2372     1.0  0.58681  0.03337  0.06856  1.0000
  S   S411      1.0  0.61598  0.31435  0.40710  1.0000
  C   C1409     1.0  0.51710  0.13829  0.11798  1.0000
  H   H2373     1.0  0.61229  0.05815  0.06700  1.0000
  H   H2374     1.0  0.60782  0.03781  0.08134  1.0000
  C   C1410     1.0  0.67254  0.31967  0.45187  1.0000
  H   H2375     1.0  0.62632  0.14461  0.01417  1.0000
  H   H2376     1.0  0.63612  0.01600  0.05014  1.0000
  H   H2377     1.0  0.72419  0.02268  0.10888  1.0000
  H   H2378     1.0  0.73741  0.18217  0.01520  1.0000
  C   C1411     1.0  0.73359  0.11199  0.04591  1.0000
  H   H2379     1.0  0.60491  0.32940  0.44328  1.0000
  H   H2380     1.0  0.58413  0.06642  0.06294  1.0000
  H   H2381     1.0  0.63805  0.08029  0.20744  1.0000
  H   H2382     1.0  0.52924  0.09730  0.12290  1.0000
  H   H2383     1.0  0.72237  0.27842  0.27941  1.0000
  H   H2384     1.0  0.62904  0.26352  0.42269  1.0000
  Fe  Fe208     1.0  0.73112  0.28472  0.37950  1.0000
  H   H2385     1.0  0.56494  0.22788  0.29522  1.0000
  C   C1412     1.0  0.70440  0.14427  0.12131  1.0000
  C   C1413     1.0  0.73150  0.14743  0.04754  1.0000
  C   C1414     1.0  0.60474  0.22465  0.29556  1.0000
  C   C1415     1.0  0.58662  0.30748  0.48428  1.0000
  C   C1416     1.0  0.71390  0.01209  0.02944  1.0000
  H   H2386     1.0  0.61289  0.21982  0.30602  1.0000
  H   H2387     1.0  0.74180  0.21473  0.37802  1.0000
  C   C1417     1.0  0.58968  0.25941  0.27040  1.0000
  H   H2388     1.0  0.58968  0.27388  0.24294  1.0000
  Fe  Fe209     1.0  0.69739  0.06440  0.01231  1.0000
  H   H2389     1.0  0.59622  0.26825  0.27420  1.0000
  S   S412      1.0  0.74314  0.30897  0.36639  1.0000
  H   H2390     1.0  0.57590  0.23297  0.25536  1.0000
  H   H2391     1.0  0.62008  0.11033  0.07986  1.0000
  C   C1418     1.0  0.73642  0.09048  0.34199  1.0000
  C   C1419     1.0  0.73968  0.30771  0.26863  1.0000
  H   H2392     1.0  0.65474  0.23396  0.39329  1.0000
  Fe  Fe210     1.0  0.60329  0.31273  0.38554  1.0000
  C   C1420     1.0  0.61237  0.29266  0.34893  1.0000
  H   H2393     1.0  0.64808  0.27423  0.12069  1.0000
  C   C1421     1.0  0.69843  0.13852  0.14164  1.0000
  C   C1422     1.0  0.70959  0.05459  0.14993  1.0000
  H   H2394     1.0  0.65103  0.31873  0.35642  1.0000
  H   H2395     1.0  0.73654  0.07086  0.31523  1.0000
  S   S413      1.0  0.68083  0.29100  0.34810  1.0000
  C   C1423     1.0  0.64677  0.26780  0.13506  1.0000
  C   C1424     1.0  0.62821  0.27658  0.14485  1.0000
  S   S414      1.0  0.70636  0.12143  0.02698  1.0000
  H   H2396     1.0  0.63856  0.04810  0.07659  1.0000
  C   C1425     1.0  0.65729  0.25440  0.36924  1.0000
  H   H2397     1.0  0.73772  0.26284  0.30215  1.0000
  H   H2398     1.0  0.73819  0.15236  0.16703  1.0000
  H   H2399     1.0  0.69775  0.04596  0.10764  1.0000
  C   C1426     1.0  0.73970  0.08280  0.30489  1.0000
  H   H2400     1.0  0.71902  0.08859  0.10710  1.0000
  C   C1427     1.0  0.70790  0.31276  0.26859  1.0000
  H   H2401     1.0  0.66173  0.12527  0.13819  1.0000
  S   S415      1.0  0.63703  0.08230  0.04751  1.0000
  C   C1428     1.0  0.69616  0.16163  0.08481  1.0000
  H   H2402     1.0  0.68972  0.22399  0.40737  1.0000
  C   C1429     1.0  0.67790  0.00081  0.04726  1.0000
  H   H2403     1.0  0.63579  0.04645  0.03416  1.0000
  H   H2404     1.0  0.69770  0.10152  0.10293  1.0000
  C   C1430     1.0  0.67458  0.04722  0.13791  1.0000
  C   C1431     1.0  0.65409  0.06463  0.23752  1.0000
  H   H2405     1.0  0.63511  0.27203  0.34174  1.0000
  C   C1432     1.0  0.62314  0.03741  0.24587  1.0000
  C   C1433     1.0  0.67038  0.06747  0.13703  1.0000
  C   C1434     1.0  0.70576  0.00362  0.09265  1.0000
  C   C1435     1.0  0.74164  0.14351  0.15779  1.0000
  C   C1436     1.0  0.74425  0.10088  0.32344  1.0000
  H   H2406     1.0  0.59619  0.10507  0.23459  1.0000
  C   C1437     1.0  0.67557  0.00039  0.10793  1.0000
  H   H2407     1.0  0.66912  0.04517  0.12716  1.0000
  H   H2408     1.0  0.66621  0.04165  0.15076  1.0000
  H   H2409     1.0  0.68585  0.29885  0.28228  1.0000
  C   C1438     1.0  0.69913  0.02111  0.08420  1.0000
  H   H2410     1.0  0.63252  0.02497  0.24264  1.0000
  H   H2411     1.0  0.54043  0.26987  0.31530  1.0000
  H   H2412     1.0  0.71178  0.02635  0.15521  1.0000
  H   H2413     1.0  0.60389  0.09713  0.25543  1.0000
  H   H2414     1.0  0.73077  0.03044  0.01299  1.0000
  C   C1439     1.0  0.61107  0.08762  0.20351  1.0000
  H   H2415     1.0  0.67818  0.07483  0.12496  1.0000
  H   H2416     1.0  0.67202  0.07033  0.14937  1.0000
  H   H2417     1.0  0.65601  0.07279  0.13647  1.0000
  S   S416      1.0  0.62036  0.99951  0.16328  1.0000
  H   H2418     1.0  0.52109  0.11673  0.14981  1.0000
  H   H2419     1.0  0.70086  0.06766  0.14590  1.0000
  H   H2420     1.0  0.65400  0.26911  0.36469  1.0000
  H   H2421     1.0  0.62387  0.13548  0.12250  1.0000
  H   H2422     1.0  0.57040  0.26433  0.25285  1.0000
  H   H2423     1.0  0.72810  0.08159  0.34119  1.0000
  H   H2424     1.0  0.68767  0.29237  0.22840  1.0000
  H   H2425     1.0  0.54079  0.08137  0.13905  1.0000
  S   S417      1.0  0.70266  0.30010  0.38180  1.0000
  H   H2426     1.0  0.63743  0.25331  0.39348  1.0000
  H   H2427     1.0  0.62387  0.05556  0.00714  1.0000
  C   C1440     1.0  0.68822  0.31267  0.27806  1.0000
  H   H2428     1.0  0.72858  0.31226  0.30207  1.0000
  N   N99       1.0  0.54547  0.12059  0.12997  1.0000
  C   C1441     1.0  0.54719  0.13494  0.13827  1.0000
  H   H2429     1.0  0.69059  0.03805  0.16424  1.0000
  C   C1442     1.0  0.56344  0.10907  0.12406  1.0000
  H   H2430     1.0  0.68143  0.16315  0.08868  1.0000
  C   C1443     1.0  0.55779  0.12863  0.15339  1.0000
  C   C1444     1.0  0.68136  0.13286  0.11403  1.0000
  H   H2431     1.0  0.55358  0.14523  0.12800  1.0000
  H   H2432     1.0  0.53376  0.14240  0.14392  1.0000
  H   H2433     1.0  0.61106  0.07530  0.19945  1.0000
  H   H2434     1.0  0.56933  0.10092  0.13570  1.0000
  H   H2435     1.0  0.56197  0.09908  0.11733  1.0000
  H   H2436     1.0  0.51939  0.13763  0.00905  1.0000
  H   H2437     1.0  0.70284  0.14705  0.14799  1.0000
  H   H2438     1.0  0.55810  0.14051  0.15813  1.0000
  H   H2439     1.0  0.55136  0.11958  0.16507  1.0000
  H   H2440     1.0  0.57193  0.12219  0.14876  1.0000
  C   C1445     1.0  0.56922  0.23759  0.28281  1.0000
  C   C1446     1.0  0.67452  0.11878  0.13036  1.0000
  H   H2441     1.0  0.67024  0.04122  0.01067  1.0000
  N   N100      1.0  0.61287  0.03773  0.05318  1.0000
  C   C1447     1.0  0.59293  0.04037  0.05511  1.0000
  C   C1448     1.0  0.62125  0.01829  0.05321  1.0000
  C   C1449     1.0  0.62100  0.04897  0.03595  1.0000
  C   C1450     1.0  0.61630  0.04336  0.06850  1.0000
  C   C1451     1.0  0.63038  0.32877  0.30510  1.0000
  C   C1452     1.0  0.62320  0.28098  0.33795  1.0000
  H   H2442     1.0  0.55058  0.31307  0.47433  1.0000
  C   C1453     1.0  0.63588  0.03782  0.07102  1.0000
  H   H2443     1.0  0.58981  0.03425  0.04548  1.0000
  C   C1454     1.0  0.53022  0.09370  0.13711  1.0000
  H   H2444     1.0  0.54412  0.14044  0.10539  1.0000
  H   H2445     1.0  0.61790  0.01402  0.04243  1.0000
  C   C1455     1.0  0.59688  0.30408  0.34393  1.0000
  H   H2446     1.0  0.71826  0.10597  0.08768  1.0000
  C   C1456     1.0  0.69467  0.01832  0.13685  1.0000
  H   H2447     1.0  0.51704  0.09071  0.14469  1.0000
  H   H2448     1.0  0.56783  0.06010  0.05557  1.0000
  H   H2449     1.0  0.52700  0.31523  0.47885  1.0000
  H   H2450     1.0  0.73155  0.04326  0.10212  1.0000
  H   H2451     1.0  0.71090  0.30449  0.25847  1.0000
  C   C1457     1.0  0.71752  0.31648  0.29462  1.0000
  H   H2452     1.0  0.50874  0.12814  0.12412  1.0000
  H   H2453     1.0  0.62756  0.27202  0.31347  1.0000
  H   H2454     1.0  0.70530  0.05924  0.11757  1.0000
  N   N101      1.0  0.72154  0.30594  0.28026  1.0000
  C   C1458     1.0  0.60067  0.32603  0.45764  1.0000
  H   H2455     1.0  0.71226  0.05440  0.16307  1.0000
  H   H2456     1.0  0.74718  0.08270  0.34929  1.0000
  H   H2457     1.0  0.70456  0.13461  0.08172  1.0000
  H   H2458     1.0  0.67125  0.10811  0.12591  1.0000
  C   C1459     1.0  0.61737  0.04638  0.01871  1.0000
  H   H2459     1.0  0.64432  0.08561  0.08703  1.0000
  C   C1460     1.0  0.73451  0.27747  0.30152  1.0000
  H   H2460     1.0  0.62508  0.29105  0.13872  1.0000
  C   C1461     1.0  0.71314  0.11512  0.11283  1.0000
  H   H2461     1.0  0.59917  0.21327  0.29540  1.0000
  S   S418      1.0  0.74161  0.26539  0.40267  1.0000
  H   H2462     1.0  0.54605  0.24729  0.31247  1.0000
  Fe  Fe211     1.0  0.64942  0.29196  0.24257  1.0000
  H   H2463     1.0  0.68543  0.25972  0.37965  1.0000
  C   C1462     1.0  0.51153  0.14544  0.99929  1.0000
  C   C1463     1.0  0.55180  0.25856  0.31256  1.0000
  H   H2464     1.0  0.58155  0.23487  0.31326  1.0000
  H   H2465     1.0  0.57327  0.12542  0.09804  1.0000
  H   H2466     1.0  0.62449  0.09768  0.21777  1.0000
  H   H2467     1.0  0.64425  0.32283  0.44891  1.0000
  C   C1464     1.0  0.59237  0.30380  0.32797  1.0000
  Fe  Fe212     1.0  0.59604  0.00831  0.15077  1.0000
  H   H2468     1.0  0.58189  0.09618  0.25451  1.0000
  H   H2469     1.0  0.73352  0.01142  0.00384  1.0000
  S   S419      1.0  0.68112  0.09216  0.01362  1.0000
  H   H2470     1.0  0.65962  0.31489  0.37609  1.0000
  H   H2471     1.0  0.69957  0.16561  0.07001  1.0000
  H   H2472     1.0  0.59476  0.22446  0.26616  1.0000
  H   H2473     1.0  0.64610  0.03672  0.05861  1.0000
  H   H2474     1.0  0.73059  0.16113  0.04809  1.0000
  H   H2475     1.0  0.70293  0.02067  0.02282  1.0000
  N   N102      1.0  0.67513  0.16823  0.21342  1.0000
  C   C1465     1.0  0.67817  0.15514  0.20158  1.0000
  C   C1466     1.0  0.65951  0.16457  0.22854  1.0000
  C   C1467     1.0  0.69190  0.16481  0.22059  1.0000
  C   C1468     1.0  0.67149  0.18681  0.20211  1.0000
  C   C1469     1.0  0.69532  0.15447  0.18675  1.0000
  C   C1470     1.0  0.64138  0.16808  0.22317  1.0000
  C   C1471     1.0  0.69006  0.17105  0.23796  1.0000
  C   C1472     1.0  0.66601  0.20259  0.21173  1.0000
  H   H2476     1.0  0.67887  0.14131  0.20969  1.0000
  H   H2477     1.0  0.66684  0.15789  0.19472  1.0000
  H   H2478     1.0  0.65720  0.17261  0.23872  1.0000
  H   H2479     1.0  0.66237  0.15040  0.23593  1.0000
  H   H2480     1.0  0.69776  0.15016  0.22359  1.0000
  H   H2481     1.0  0.70238  0.17101  0.21035  1.0000
  H   H2482     1.0  0.68355  0.18929  0.19164  1.0000
  H   H2483     1.0  0.66128  0.18829  0.19419  1.0000
  H   H2484     1.0  0.69577  0.14426  0.17932  1.0000
  H   H2485     1.0  0.69537  0.16731  0.17691  1.0000
  H   H2486     1.0  0.70770  0.15026  0.19215  1.0000
  H   H2487     1.0  0.64147  0.15915  0.21453  1.0000
  H   H2488     1.0  0.63090  0.16533  0.23537  1.0000
  H   H2489     1.0  0.63724  0.18218  0.21650  1.0000
  H   H2490     1.0  0.70364  0.16951  0.24038  1.0000
  H   H2491     1.0  0.68291  0.16255  0.24967  1.0000
  H   H2492     1.0  0.68337  0.18524  0.23742  1.0000
  H   H2493     1.0  0.67795  0.20704  0.21237  1.0000
  H   H2494     1.0  0.65767  0.19983  0.22529  1.0000
  H   H2495     1.0  0.65744  0.21402  0.20429  1.0000
  H   H2496     1.0  0.61201  0.12811  0.10140  1.0000
  H   H2497     1.0  0.62669  0.03956  0.25760  1.0000
  C   C1473     1.0  0.63323  0.13428  0.10948  1.0000
  C   C1474     1.0  0.63853  0.24126  0.12998  1.0000
  C   C1475     1.0  0.64409  0.09890  0.08940  1.0000
  H   H2498     1.0  0.60095  0.24993  0.26414  1.0000
  H   H2499     1.0  0.68816  0.25647  0.40169  1.0000
  Fe  Fe213     1.0  0.73345  0.19945  0.07885  1.0000
  H   H2500     1.0  0.66191  0.06732  0.24591  1.0000
  H   H2501     1.0  0.67158  0.24923  0.36378  1.0000
  H   H2502     1.0  0.62580  0.23937  0.13975  1.0000
  C   C1476     1.0  0.68150  0.25197  0.39346  1.0000
  Fe  Fe214     1.0  0.66677  0.07909  0.04002  1.0000
  H   H2503     1.0  0.59727  0.09361  0.20974  1.0000
  N   N103      1.0  0.57831  0.25017  0.28681  1.0000
  H   H2504     1.0  0.68366  0.14076  0.14584  1.0000
  H   H2505     1.0  0.70863  0.32654  0.26077  1.0000
  S   S420      1.0  0.65466  0.31754  0.22380  1.0000
  H   H2506     1.0  0.58835  0.31306  0.35238  1.0000
  H   H2507     1.0  0.59600  0.15350  0.05622  1.0000
  C   C1477     1.0  0.59601  0.09461  0.24703  1.0000
  Fe  Fe215     1.0  0.62306  0.28181  0.27690  1.0000
  H   H2508     1.0  0.62292  0.26557  0.11549  1.0000
  C   C1478     1.0  0.59179  0.31190  0.46565  1.0000
  C   C1479     1.0  0.70705  0.30818  0.22524  1.0000
  H   H2509     1.0  0.59605  0.25016  0.30346  1.0000
  H   H2510     1.0  0.55517  0.27212  0.28520  1.0000
  H   H2511     1.0  0.63959  0.11109  0.06290  1.0000
  C   C1480     1.0  0.58004  0.22675  0.26832  1.0000
  H   H2512     1.0  0.61502  0.09737  0.19105  1.0000
  C   C1481     1.0  0.65697  0.24710  0.41936  1.0000
  S   S421      1.0  0.59870  0.29298  0.29618  1.0000
  H   H2513     1.0  0.55880  0.25503  0.32384  1.0000
  H   H2514     1.0  0.57049  0.27487  0.29657  1.0000
  C   C1482     1.0  0.66894  0.01787  0.09943  1.0000
  N   N104      1.0  0.65042  0.24771  0.13795  1.0000
  C   C1483     1.0  0.74762  0.24282  0.40090  1.0000
  C   C1484     1.0  0.69053  0.23215  0.39360  1.0000
  C   C1485     1.0  0.61895  0.28098  0.32188  1.0000
  H   H2515     1.0  0.62585  0.24580  0.10754  1.0000
  H   H2516     1.0  0.65819  0.10004  0.08701  1.0000
  N   N105      1.0  0.66143  0.25595  0.39992  1.0000
  H   H2517     1.0  0.55670  0.24524  0.27815  1.0000
  C   C1486     1.0  0.56420  0.26469  0.29459  1.0000
  H   H2518     1.0  0.61596  0.05222  0.22123  1.0000
  H   H2519     1.0  0.59018  0.10923  0.10805  1.0000
  C   C1487     1.0  0.63273  0.25322  0.11280  1.0000
  H   H2520     1.0  0.65452  0.24599  0.16445  1.0000
  H   H2521     1.0  0.70450  0.12454  0.14698  1.0000
  H   H2522     1.0  0.58039  0.31264  0.32416  1.0000
  H   H2523     1.0  0.65699  0.27200  0.13950  1.0000
  S   S422      1.0  0.64837  0.29170  0.27099  1.0000
  H   H2524     1.0  0.68353  0.11254  0.13982  1.0000
  C   C1488     1.0  0.57973  0.27101  0.25557  1.0000
  C   C1489     1.0  0.65226  0.24881  0.38973  1.0000
  H   H2525     1.0  0.61643  0.06345  0.03619  1.0000
  H   H2526     1.0  0.57990  0.29646  0.49053  1.0000
  H   H2527     1.0  0.67295  0.14620  0.11596  1.0000
  C   C1490     1.0  0.58976  0.24057  0.30039  1.0000
  H   H2528     1.0  0.64596  0.11600  0.02577  1.0000
  H   H2529     1.0  0.63735  0.09886  0.10352  1.0000
  H   H2530     1.0  0.71891  0.14435  0.11846  1.0000
  H   H2531     1.0  0.70500  0.23122  0.38753  1.0000
  H   H2532     1.0  0.69739  0.15843  0.11808  1.0000
  H   H2533     1.0  0.67798  0.13032  0.10228  1.0000
  H   H2534     1.0  0.74604  0.12914  0.29413  1.0000
  H   H2535     1.0  0.70030  0.17134  0.08984  1.0000
  H   H2536     1.0  0.74943  0.30679  0.27677  1.0000
  C   C1491     1.0  0.62517  0.05285  0.22938  1.0000
  H   H2537     1.0  0.72095  0.14252  0.08729  1.0000
  N   N106      1.0  0.70096  0.13339  0.11010  1.0000
  C   C1492     1.0  0.68998  0.30572  0.22592  1.0000
  H   H2538     1.0  0.57672  0.21330  0.27220  1.0000
  H   H2539     1.0  0.65693  0.04991  0.23890  1.0000
  H   H2540     1.0  0.65104  0.30539  0.46652  1.0000
  H   H2541     1.0  0.60924  0.03518  0.24972  1.0000
  C   C1493     1.0  0.58237  0.05990  0.05303  1.0000
  H   H2542     1.0  0.68509  0.22618  0.38558  1.0000
  C   C1494     1.0  0.60357  0.29241  0.31679  1.0000
  H   H2543     1.0  0.65094  0.28142  0.42396  1.0000
  H   H2544     1.0  0.63784  0.02527  0.08121  1.0000
  C   C1495     1.0  0.74037  0.11587  0.15093  1.0000
  S   S423      1.0  0.61884  0.29261  0.36860  1.0000
  H   H2545     1.0  0.63862  0.04940  0.22088  1.0000
  C   C1496     1.0  0.53402  0.10881  0.14363  1.0000
  H   H2546     1.0  0.73461  0.09832  0.04516  1.0000
  C   C1497     1.0  0.60256  0.07554  0.24330  1.0000
  H   H2547     1.0  0.64471  0.32772  0.29855  1.0000
  H   H2548     1.0  0.54053  0.10192  0.15516  1.0000
  S   S424      1.0  0.61166  0.01230  0.12240  1.0000
  H   H2549     1.0  0.65928  0.30264  0.44400  1.0000
  H   H2550     1.0  0.73850  0.11641  0.28265  1.0000
  C   C1498     1.0  0.74476  0.13385  0.05444  1.0000
  C   C1499     1.0  0.74681  0.21916  0.38718  1.0000
  S   S425      1.0  0.73677  0.17114  0.09405  1.0000
  H   H2551     1.0  0.70546  0.31358  0.30494  1.0000
  S   S426      1.0  0.71501  0.31893  0.33977  1.0000
  C   C1500     1.0  0.75005  0.12097  0.13363  1.0000
  C   C1501     1.0  0.62454  0.08445  0.21556  1.0000
  H   H2552     1.0  0.60076  0.06620  0.25655  1.0000
  C   C1502     1.0  0.65219  0.32520  0.36669  1.0000
  Fe  Fe216     1.0  0.63551  0.00544  0.13495  1.0000
  S   S427      1.0  0.73333  0.09559  0.15689  1.0000
  H   H2553     1.0  0.70634  0.31907  0.45403  1.0000
  H   H2554     1.0  0.55744  0.16401  0.99933  1.0000
  H   H2555     1.0  0.66861  0.01273  0.15302  1.0000
  C   C1503     1.0  0.70455  0.04526  0.11854  1.0000
  H   H2556     1.0  0.53915  0.12034  0.10490  1.0000
  C   C1504     1.0  0.68307  0.00836  0.15333  1.0000
  C   C1505     1.0  0.71003  0.32542  0.22252  1.0000
  H   H2557     1.0  0.67449  0.31681  0.46585  1.0000
  H   H2558     1.0  0.68533  0.00975  0.16605  1.0000
  H   H2559     1.0  0.56959  0.00809  0.12524  1.0000
  H   H2560     1.0  0.68386  0.31917  0.28966  1.0000
  H   H2561     1.0  0.51293  0.14566  0.10527  1.0000
  H   H2562     1.0  0.72687  0.09292  0.30521  1.0000
  S   S428      1.0  0.57620  0.31204  0.40350  1.0000
  H   H2563     1.0  0.72879  0.28003  0.31519  1.0000
  C   C1506     1.0  0.72395  0.03481  0.11350  1.0000
  S   S429      1.0  0.73101  0.32804  0.22362  1.0000
  H   H2564     1.0  0.60862  0.32160  0.26459  1.0000
  C   C1507     1.0  0.74420  0.07773  0.28643  1.0000
  Fe  Fe217     1.0  0.74226  0.30199  0.34106  1.0000
  H   H2565     1.0  0.70858  0.01026  0.13626  1.0000
  C   C1508     1.0  0.65584  0.31250  0.45268  1.0000
  H   H2566     1.0  0.68434  0.31104  0.44482  1.0000
  C   C1509     1.0  0.74567  0.11612  0.05370  1.0000
  H   H2567     1.0  0.73744  0.08851  0.27675  1.0000
  H   H2568     1.0  0.73905  0.32120  0.25968  1.0000
  H   H2569     1.0  0.67716  0.01528  0.04188  1.0000
  H   H2570     1.0  0.62935  0.31590  0.31472  1.0000
  H   H2571     1.0  0.51413  0.14821  0.12647  1.0000
  H   H2572     1.0  0.72772  0.10018  0.35018  1.0000
  H   H2573     1.0  0.73290  0.11143  0.31910  1.0000
  C   C1510     1.0  0.73613  0.12714  0.16302  1.0000
  H   H2574     1.0  0.58601  0.06796  0.03942  1.0000
  H   H2575     1.0  0.71241  0.01771  0.04132  1.0000
  H   H2576     1.0  0.67394  0.00869  0.20567  1.0000
  H   H2577     1.0  0.73924  0.29316  0.24847  1.0000
  H   H2578     1.0  0.65473  0.01774  0.01092  1.0000
  H   H2579     1.0  0.53244  0.18664  0.00241  1.0000
  C   C1511     1.0  0.73147  0.01578  0.01653  1.0000
  H   H2580     1.0  0.57495  0.13643  0.99776  1.0000
  H   H2581     1.0  0.55065  0.00289  0.10736  1.0000
  H   H2582     1.0  0.74748  0.28172  0.29671  1.0000
  H   H2583     1.0  0.63855  0.32975  0.37430  1.0000
  H   H2584     1.0  0.62298  0.31950  0.28574  1.0000
  H   H2585     1.0  0.73154  0.99807  0.05605  1.0000
  H   H2586     1.0  0.50238  0.00397  0.13809  1.0000
  C   C1512     1.0  0.53785  0.32272  0.47220  1.0000
  H   H2587     1.0  0.61820  0.00767  0.08248  1.0000
  H   H2588     1.0  0.60459  0.33090  0.29926  1.0000
  H   H2589     1.0  0.73866  0.06586  0.28768  1.0000
  C   C1513     1.0  0.61548  0.00493  0.07059  1.0000
  C   C1514     1.0  0.74830  0.29390  0.25663  1.0000
  C   C1515     1.0  0.56155  0.99805  0.13085  1.0000
  C   C1516     1.0  0.75035  0.11923  0.28543  1.0000
  H   H2590     1.0  0.74756  0.16493  0.00301  1.0000
  C   C1517     1.0  0.74993  0.17666  0.00633  1.0000
  H   H2591     1.0  0.66807  0.99940  0.06018  1.0000
  H   H2592     1.0  0.72003  0.99822  0.09040  1.0000
  H   H2593     1.0  0.69722  0.99804  0.01377  1.0000
  C   C1518     1.0  0.58935  0.31781  0.49482  1.0000
  H   H2594     1.0  0.63398  0.06450  0.90708  1.0000
  H   H2595     1.0  0.62936  0.00487  0.84689  1.0000
  N   N107      1.0  0.51731  0.10110  0.85898  1.0000
  H   H2596     1.0  0.51273  0.30189  0.66391  1.0000
  H   H2597     1.0  0.67517  0.02506  0.92225  1.0000
  S   S430      1.0  0.55397  0.03360  0.87297  1.0000
  H   H2598     1.0  0.65829  0.01755  0.95185  1.0000
  Fe  Fe218     1.0  0.58335  0.02330  0.86377  1.0000
  S   S431      1.0  0.56523  0.32510  0.54291  1.0000
  S   S432      1.0  0.60355  0.03770  0.86559  1.0000
  Fe  Fe219     1.0  0.55132  0.03132  0.84634  1.0000
  C   C1519     1.0  0.64773  0.06338  0.93517  1.0000
  S   S433      1.0  0.53237  0.05392  0.83263  1.0000
  H   H2599     1.0  0.59341  0.17350  0.95536  1.0000
  H   H2600     1.0  0.63670  0.02699  0.97979  1.0000
  H   H2601     1.0  0.51640  0.21714  0.65830  1.0000
  H   H2602     1.0  0.64316  0.07038  0.96133  1.0000
  S   S434      1.0  0.58088  0.02363  0.83610  1.0000
  H   H2603     1.0  0.68619  0.05773  0.92695  1.0000
  C   C1520     1.0  0.53717  0.10020  0.85525  1.0000
  H   H2604     1.0  0.50810  0.26845  0.66306  1.0000
  H   H2605     1.0  0.51460  0.06510  0.89590  1.0000
  C   C1521     1.0  0.54678  0.15949  0.95187  1.0000
  S   S435      1.0  0.67144  0.00345  0.90024  1.0000
  H   H2606     1.0  0.53506  0.32957  0.60442  1.0000
  H   H2607     1.0  0.60601  0.01223  0.72416  1.0000
  S   S436      1.0  0.57857  0.31206  0.58965  1.0000
  H   H2608     1.0  0.66603  0.02853  0.86825  1.0000
  C   C1522     1.0  0.54153  0.27256  0.61486  1.0000
  C   C1523     1.0  0.53777  0.28633  0.60027  1.0000
  C   C1524     1.0  0.54948  0.29809  0.59193  1.0000
  C   C1525     1.0  0.56492  0.29622  0.59828  1.0000
  C   C1526     1.0  0.56890  0.28220  0.61258  1.0000
  C   C1527     1.0  0.55730  0.27036  0.62078  1.0000
  H   H2609     1.0  0.51513  0.08714  0.89678  1.0000
  H   H2610     1.0  0.54633  0.30881  0.58082  1.0000
  H   H2611     1.0  0.58086  0.28065  0.61749  1.0000
  H   H2612     1.0  0.56038  0.25970  0.63196  1.0000
  C   C1528     1.0  0.65362  0.02408  0.87452  1.0000
  H   H2613     1.0  0.56541  0.19117  0.98417  1.0000
  H   H2614     1.0  0.68865  0.03603  0.94232  1.0000
  C   C1529     1.0  0.63814  0.04991  0.90765  1.0000
  H   H2615     1.0  0.53369  0.16838  0.94996  1.0000
  S   S437      1.0  0.52641  0.25857  0.62663  1.0000
  H   H2616     1.0  0.65238  0.07160  0.92180  1.0000
  C   C1530     1.0  0.68965  0.01041  0.97630  1.0000
  H   H2617     1.0  0.63939  0.04211  0.85492  1.0000
  C   C1531     1.0  0.65252  0.01128  0.89046  1.0000
  C   C1532     1.0  0.53575  0.22247  0.66907  1.0000
  H   H2618     1.0  0.50294  0.13879  0.84561  1.0000
  H   H2619     1.0  0.52293  0.13725  0.85349  1.0000
  H   H2620     1.0  0.52589  0.28796  0.59534  1.0000
  H   H2621     1.0  0.66234  0.03437  0.95978  1.0000
  H   H2622     1.0  0.65040  0.04701  0.89736  1.0000
  H   H2623     1.0  0.58501  0.31455  0.50916  1.0000
  H   H2624     1.0  0.52928  0.02059  0.82635  1.0000
  H   H2625     1.0  0.53459  0.07322  0.88549  1.0000
  H   H2626     1.0  0.50337  0.01112  0.82219  1.0000
  H   H2627     1.0  0.54157  0.09967  0.86764  1.0000
  H   H2628     1.0  0.54452  0.14825  0.96332  1.0000
  C   C1533     1.0  0.65393  0.06946  0.94918  1.0000
  H   H2629     1.0  0.69996  0.03826  0.91960  1.0000
  C   C1534     1.0  0.55599  0.15988  0.98751  1.0000
  C   C1535     1.0  0.58839  0.17813  0.96812  1.0000
  C   C1536     1.0  0.69182  0.03464  0.98889  1.0000
  H   H2630     1.0  0.53721  0.20746  0.98787  1.0000
  C   C1537     1.0  0.51461  0.04719  0.82870  1.0000
  N   N108      1.0  0.65326  0.04376  0.93464  1.0000
  H   H2631     1.0  0.62745  0.04593  0.90382  1.0000
  H   H2632     1.0  0.62715  0.04694  0.96570  1.0000
  H   H2633     1.0  0.52678  0.17916  0.97502  1.0000
  C   C1538     1.0  0.53053  0.19625  0.98978  1.0000
  N   N109      1.0  0.55557  0.17546  0.97170  1.0000
  H   H2634     1.0  0.52675  0.31644  0.52543  1.0000
  C   C1539     1.0  0.55979  0.16984  0.95405  1.0000
  C   C1540     1.0  0.51256  0.13908  0.98403  1.0000
  H   H2635     1.0  0.51691  0.11525  0.83157  1.0000
  H   H2636     1.0  0.52091  0.20148  0.67815  1.0000
  C   C1541     1.0  0.51650  0.02981  0.82648  1.0000
  C   C1542     1.0  0.68726  0.04319  0.92861  1.0000
  H   H2637     1.0  0.53562  0.19783  0.96146  1.0000
  H   H2638     1.0  0.57336  0.16141  0.95130  1.0000
  H   H2639     1.0  0.59605  0.18827  0.96742  1.0000
  H   H2640     1.0  0.55993  0.18178  0.94285  1.0000
  H   H2641     1.0  0.59162  0.16716  0.97951  1.0000
  C   C1543     1.0  0.50899  0.13525  0.85752  1.0000
  H   H2642     1.0  0.51711  0.07295  0.86328  1.0000
  C   C1544     1.0  0.51255  0.08398  0.87074  1.0000
  H   H2643     1.0  0.60876  0.00879  0.89684  1.0000
  C   C1545     1.0  0.69864  0.02353  0.97641  1.0000
  C   C1546     1.0  0.51828  0.21604  0.67200  1.0000
  C   C1547     1.0  0.62236  0.02626  0.87487  1.0000
  H   H2644     1.0  0.71101  0.02500  0.96684  1.0000
  S   S438      1.0  0.50489  0.14076  0.95186  1.0000
  H   H2645     1.0  0.54756  0.08584  0.83304  1.0000
  H   H2646     1.0  0.54063  0.11254  0.84589  1.0000
  H   H2647     1.0  0.67204  0.04712  0.90910  1.0000
  H   H2648     1.0  0.54679  0.21366  0.66149  1.0000
  H   H2649     1.0  0.66652  0.06133  0.95306  1.0000
  H   H2650     1.0  0.56352  0.08467  0.84573  1.0000
  C   C1548     1.0  0.50777  0.11622  0.86849  1.0000
  H   H2651     1.0  0.50663  0.31788  0.60779  1.0000
  H   H2652     1.0  0.61069  0.99945  0.82102  1.0000
  H   H2653     1.0  0.64406  0.02462  0.92591  1.0000
  C   C1549     1.0  0.67164  0.03944  0.92304  1.0000
  H   H2654     1.0  0.53970  0.22164  0.68169  1.0000
  C   C1550     1.0  0.63854  0.03176  0.86695  1.0000
  H   H2655     1.0  0.53507  0.23611  0.66062  1.0000
  H   H2656     1.0  0.62653  0.04111  0.93489  1.0000
  C   C1551     1.0  0.54928  0.08457  0.84678  1.0000
  H   H2657     1.0  0.54707  0.07138  0.85491  1.0000
  H   H2658     1.0  0.62651  0.02511  0.96308  1.0000
  C   C1552     1.0  0.57043  0.14271  0.98499  1.0000
  H   H2659     1.0  0.63283  0.06745  0.93812  1.0000
  H   H2660     1.0  0.53908  0.30521  0.62772  1.0000
  C   C1553     1.0  0.50192  0.02452  0.82397  1.0000
  Fe  Fe220     1.0  0.55232  0.00481  0.88137  1.0000
  H   H2661     1.0  0.65618  0.08328  0.94364  1.0000
  C   C1554     1.0  0.52569  0.30970  0.63578  1.0000
  H   H2662     1.0  0.53544  0.30509  0.66063  1.0000
  C   C1555     1.0  0.64028  0.03906  0.92652  1.0000
  C   C1556     1.0  0.52630  0.30044  0.65529  1.0000
  C   C1557     1.0  0.56830  0.18684  0.97126  1.0000
  C   C1558     1.0  0.65310  0.03181  0.95293  1.0000
  C   C1559     1.0  0.63470  0.03300  0.96595  1.0000
  H   H2663     1.0  0.55890  0.31936  0.62944  1.0000
  C   C1560     1.0  0.67377  0.00825  0.98875  1.0000
  H   H2664     1.0  0.62772  0.00193  0.74273  1.0000
  H   H2665     1.0  0.64034  0.99994  0.80086  1.0000
  H   H2666     1.0  0.69511  0.00188  0.96669  1.0000
  H   H2667     1.0  0.55248  0.15376  0.93972  1.0000
  H   H2668     1.0  0.55161  0.32356  0.49989  1.0000
  H   H2669     1.0  0.52136  0.12643  0.98208  1.0000
  C   C1561     1.0  0.63636  0.00563  0.89851  1.0000
  H   H2670     1.0  0.51646  0.30374  0.63188  1.0000
  H   H2671     1.0  0.51302  0.11469  0.88061  1.0000
  C   C1562     1.0  0.62132  0.01292  0.89053  1.0000
  H   H2672     1.0  0.51863  0.25333  0.67992  1.0000
  S   S439      1.0  0.70382  0.05063  0.98888  1.0000
  S   S440      1.0  0.54755  0.00312  0.85542  1.0000
  C   C1563     1.0  0.53692  0.18709  0.97365  1.0000
  H   H2673     1.0  0.58260  0.14467  0.97472  1.0000
  H   H2674     1.0  0.51772  0.09211  0.83534  1.0000
  C   C1564     1.0  0.51978  0.07721  0.88812  1.0000
  H   H2675     1.0  0.50397  0.04270  0.86711  1.0000
  H   H2676     1.0  0.53165  0.28590  0.65588  1.0000
  H   H2677     1.0  0.56651  0.19931  0.96079  1.0000
  H   H2678     1.0  0.52783  0.30620  0.50769  1.0000
  H   H2679     1.0  0.51569  0.23029  0.70109  1.0000
  H   H2680     1.0  0.50902  0.01348  0.87783  1.0000
  C   C1565     1.0  0.51171  0.10400  0.84150  1.0000
  H   H2681     1.0  0.56457  0.13259  0.98244  1.0000
  N   N110      1.0  0.50172  0.22576  0.68287  1.0000
  C   C1566     1.0  0.52485  0.31933  0.51148  1.0000
  H   H2682     1.0  0.50900  0.20973  0.70758  1.0000
  C   C1567     1.0  0.50559  0.25875  0.67593  1.0000
  C   C1568     1.0  0.50465  0.22407  0.70134  1.0000
  C   C1569     1.0  0.50233  0.14895  0.97126  1.0000
  H   H2683     1.0  0.51061  0.32598  0.51170  1.0000
  H   H2684     1.0  0.51593  0.20204  0.99129  1.0000
  H   H2685     1.0  0.54297  0.15562  0.99159  1.0000
  H   H2686     1.0  0.50134  0.14504  0.86599  1.0000
  H   H2687     1.0  0.59067  0.00255  0.71908  1.0000
  C   C1570     1.0  0.60281  0.99922  0.72484  1.0000
  H   H2688     1.0  0.50490  0.32877  0.66913  1.0000
  H   H2689     1.0  0.59735  0.99873  0.75296  1.0000
  N   N111      1.0  0.52051  0.32984  0.63169  1.0000
  H   H2690     1.0  0.67007  0.34699  0.29862  1.0000
  Fe  Fe221     1.0  0.50493  0.61452  0.43992  1.0000
  C   C1571     1.0  0.53224  0.64600  0.32108  1.0000
  C   C1572     1.0  0.72621  0.63520  0.44915  1.0000
  C   C1573     1.0  0.54451  0.64589  0.48435  1.0000
  C   C1574     1.0  0.72632  0.46202  0.47975  1.0000
  C   C1575     1.0  0.62612  0.43004  0.49141  1.0000
  C   C1576     1.0  0.55120  0.36378  0.47893  1.0000
  C   C1577     1.0  0.66198  0.34088  0.35915  1.0000
  Fe  Fe222     1.0  0.60779  0.34402  0.39853  1.0000
  S   S441      1.0  0.58117  0.34617  0.41728  1.0000
  S   S442      1.0  0.62773  0.36098  0.39449  1.0000
  C   C1578     1.0  0.59784  0.63534  0.47581  1.0000
  H   H2691     1.0  0.54959  0.35449  0.45654  1.0000
  C   C1579     1.0  0.68537  0.49444  0.48647  1.0000
  S   S443      1.0  0.54679  0.36066  0.38761  1.0000
  C   C1580     1.0  0.67898  0.47894  0.48822  1.0000
  H   H2692     1.0  0.51358  0.59552  0.29351  1.0000
  Fe  Fe223     1.0  0.64778  0.42174  0.44199  1.0000
  S   S444      1.0  0.66306  0.42531  0.41383  1.0000
  S   S445      1.0  0.62638  0.40524  0.45072  1.0000
  Fe  Fe224     1.0  0.66937  0.44333  0.45210  1.0000
  S   S446      1.0  0.68672  0.44766  0.42455  1.0000
  S   S447      1.0  0.67214  0.45268  0.47576  1.0000
  Fe  Fe225     1.0  0.66077  0.45343  0.41548  1.0000
  S   S448      1.0  0.65134  0.47568  0.39367  1.0000
  Fe  Fe226     1.0  0.68728  0.41879  0.42566  1.0000
  S   S449      1.0  0.64333  0.45070  0.44298  1.0000
  S   S450      1.0  0.67205  0.41391  0.45401  1.0000
  C   C1581     1.0  0.64733  0.34808  0.46998  1.0000
  H   H2693     1.0  0.59635  0.35573  0.31114  1.0000
  S   S451      1.0  0.54398  0.63142  0.47095  1.0000
  Fe  Fe227     1.0  0.71128  0.39408  0.22452  1.0000
  S   S452      1.0  0.72444  0.37954  0.20213  1.0000
  S   S453      1.0  0.68551  0.41458  0.22499  1.0000
  H   H2694     1.0  0.68040  0.34093  0.32608  1.0000
  H   H2695     1.0  0.73704  0.60924  0.47825  1.0000
  N   N112      1.0  0.73389  0.44149  0.45712  1.0000
  H   H2696     1.0  0.64192  0.33390  0.26152  1.0000
  Fe  Fe228     1.0  0.73128  0.35612  0.22397  1.0000
  H   H2697     1.0  0.51308  0.35758  0.49146  1.0000
  S   S454      1.0  0.73588  0.40343  0.22382  1.0000
  S   S455      1.0  0.71601  0.36996  0.24639  1.0000
  Fe  Fe229     1.0  0.61337  0.42677  0.30526  1.0000
  S   S456      1.0  0.62316  0.45247  0.29470  1.0000
  S   S457      1.0  0.62213  0.40319  0.29172  1.0000
  Fe  Fe230     1.0  0.59330  0.43723  0.34073  1.0000
  S   S458      1.0  0.60293  0.46282  0.33363  1.0000
  S   S459      1.0  0.57327  0.43291  0.36646  1.0000
  Fe  Fe231     1.0  0.59544  0.46553  0.30754  1.0000
  S   S460      1.0  0.57620  0.49060  0.29768  1.0000
  Fe  Fe232     1.0  0.62934  0.44714  0.32190  1.0000
  S   S461      1.0  0.65681  0.44571  0.32586  1.0000
  S   S462      1.0  0.58509  0.44028  0.31510  1.0000
  S   S463      1.0  0.62052  0.42106  0.33204  1.0000
  H   H2698     1.0  0.67932  0.62955  0.48766  1.0000
  C   C1582     1.0  0.67921  0.33781  0.21958  1.0000
  C   C1583     1.0  0.72353  0.45417  0.44371  1.0000
  S   S464      1.0  0.70178  0.52247  0.46652  1.0000
  H   H2699     1.0  0.63363  0.39105  0.48696  1.0000
  H   H2700     1.0  0.51516  0.37791  0.46505  1.0000
  S   S465      1.0  0.69950  0.35149  0.36955  1.0000
  C   C1584     1.0  0.66559  0.34465  0.32722  1.0000
  H   H2701     1.0  0.58299  0.61625  0.45445  1.0000
  H   H2702     1.0  0.54784  0.44823  0.34064  1.0000
  H   H2703     1.0  0.63618  0.59110  0.46030  1.0000
  H   H2704     1.0  0.70966  0.44582  0.47739  1.0000
  C   C1585     1.0  0.52413  0.62737  0.38139  1.0000
  C   C1586     1.0  0.55699  0.49450  0.31468  1.0000
  C   C1587     1.0  0.54237  0.50856  0.31139  1.0000
  C   C1588     1.0  0.52694  0.51123  0.32497  1.0000
  C   C1589     1.0  0.52621  0.49993  0.34191  1.0000
  C   C1590     1.0  0.54094  0.48616  0.34521  1.0000
  C   C1591     1.0  0.55611  0.48335  0.33164  1.0000
  H   H2705     1.0  0.54292  0.51721  0.29828  1.0000
  H   H2706     1.0  0.58462  0.59343  0.45542  1.0000
  H   H2707     1.0  0.54067  0.47751  0.35828  1.0000
  H   H2708     1.0  0.56700  0.47231  0.33434  1.0000
  C   C1592     1.0  0.66763  0.41090  0.24310  1.0000
  C   C1593     1.0  0.65393  0.42547  0.24709  1.0000
  C   C1594     1.0  0.63987  0.42314  0.26193  1.0000
  C   C1595     1.0  0.63921  0.40614  0.27261  1.0000
  C   C1596     1.0  0.65256  0.39141  0.26828  1.0000
  C   C1597     1.0  0.66690  0.39382  0.25368  1.0000
  H   H2709     1.0  0.65435  0.43867  0.23883  1.0000
  H   H2710     1.0  0.62941  0.43449  0.26494  1.0000
  H   H2711     1.0  0.65201  0.37823  0.27635  1.0000
  H   H2712     1.0  0.67719  0.38247  0.25040  1.0000
  C   C1598     1.0  0.52004  0.45302  0.33705  1.0000
  H   H2713     1.0  0.65216  0.36520  0.24505  1.0000
  C   C1599     1.0  0.52613  0.61534  0.36825  1.0000
  C   C1600     1.0  0.58897  0.59838  0.47950  1.0000
  S   S466      1.0  0.50270  0.61795  0.46776  1.0000
  C   C1601     1.0  0.67841  0.47327  0.47305  1.0000
  C   C1602     1.0  0.61128  0.61723  0.47584  1.0000
  H   H2714     1.0  0.54822  0.62886  0.33999  1.0000
  C   C1603     1.0  0.69156  0.50423  0.46950  1.0000
  C   C1604     1.0  0.69072  0.49870  0.45436  1.0000
  C   C1605     1.0  0.68394  0.48347  0.45612  1.0000
  C   C1606     1.0  0.51779  0.44856  0.36912  1.0000
  H   H2715     1.0  0.61274  0.37709  0.27462  1.0000
  H   H2716     1.0  0.69540  0.50623  0.44119  1.0000
  H   H2717     1.0  0.68334  0.47944  0.44432  1.0000
  C   C1607     1.0  0.65410  0.46829  0.37392  1.0000
  C   C1608     1.0  0.66673  0.45285  0.37055  1.0000
  C   C1609     1.0  0.66789  0.44628  0.35544  1.0000
  C   C1610     1.0  0.65621  0.45499  0.34380  1.0000
  C   C1611     1.0  0.64386  0.47070  0.34689  1.0000
  C   C1612     1.0  0.64296  0.47745  0.36184  1.0000
  H   H2718     1.0  0.67578  0.44605  0.37948  1.0000
  H   H2719     1.0  0.67756  0.43422  0.35300  1.0000
  H   H2720     1.0  0.63498  0.47760  0.33779  1.0000
  H   H2721     1.0  0.63334  0.48953  0.36428  1.0000
  C   C1613     1.0  0.69615  0.39124  0.39390  1.0000
  C   C1614     1.0  0.69365  0.38106  0.38313  1.0000
  C   C1615     1.0  0.70361  0.36361  0.38317  1.0000
  H   H2722     1.0  0.68895  0.40490  0.39305  1.0000
  H   H2723     1.0  0.68410  0.38689  0.37454  1.0000
  C   C1616     1.0  0.71498  0.33690  0.28812  1.0000
  C   C1617     1.0  0.71689  0.41708  0.45941  1.0000
  S   S467      1.0  0.59773  0.34236  0.37522  1.0000
  H   H2724     1.0  0.57943  0.41845  0.48711  1.0000
  C   C1618     1.0  0.62688  0.37254  0.41084  1.0000
  C   C1619     1.0  0.61257  0.37398  0.42552  1.0000
  C   C1620     1.0  0.61251  0.38383  0.43796  1.0000
  C   C1621     1.0  0.62677  0.39217  0.43571  1.0000
  C   C1622     1.0  0.64129  0.38995  0.42144  1.0000
  C   C1623     1.0  0.64128  0.38038  0.40900  1.0000
  H   H2725     1.0  0.60149  0.36774  0.42719  1.0000
  H   H2726     1.0  0.60135  0.38512  0.44919  1.0000
  H   H2727     1.0  0.65298  0.39488  0.42031  1.0000
  H   H2728     1.0  0.65264  0.37891  0.39798  1.0000
  C   C1624     1.0  0.55299  0.38138  0.38069  1.0000
  C   C1625     1.0  0.54660  0.39365  0.39189  1.0000
  C   C1626     1.0  0.55309  0.40939  0.38743  1.0000
  C   C1627     1.0  0.56570  0.41302  0.37162  1.0000
  C   C1628     1.0  0.57193  0.40092  0.36024  1.0000
  C   C1629     1.0  0.56568  0.38498  0.36489  1.0000
  H   H2729     1.0  0.53712  0.39068  0.40429  1.0000
  H   H2730     1.0  0.54854  0.41864  0.39634  1.0000
  H   H2731     1.0  0.58175  0.40370  0.34805  1.0000
  H   H2732     1.0  0.57083  0.37534  0.35637  1.0000
  H   H2733     1.0  0.55008  0.60497  0.32828  1.0000
  H   H2734     1.0  0.74216  0.36657  0.30617  1.0000
  C   C1630     1.0  0.69609  0.34025  0.21972  1.0000
  C   C1631     1.0  0.50481  0.57417  0.40479  1.0000
  H   H2735     1.0  0.53246  0.44382  0.36827  1.0000
  H   H2736     1.0  0.65948  0.34759  0.37042  1.0000
  H   H2737     1.0  0.66856  0.34931  0.21701  1.0000
  H   H2738     1.0  0.69831  0.35361  0.21753  1.0000
  H   H2739     1.0  0.71981  0.59757  0.48193  1.0000
  H   H2740     1.0  0.74012  0.46107  0.48116  1.0000
  C   C1632     1.0  0.51422  0.36474  0.46339  1.0000
  H   H2741     1.0  0.71713  0.63364  0.48655  1.0000
  H   H2742     1.0  0.62171  0.57581  0.46224  1.0000
  Fe  Fe233     1.0  0.69820  0.53804  0.48798  1.0000
  H   H2743     1.0  0.73702  0.34886  0.18285  1.0000
  C   C1633     1.0  0.59628  0.36683  0.29924  1.0000
  H   H2744     1.0  0.60463  0.39151  0.48495  1.0000
  H   H2745     1.0  0.60294  0.36289  0.25705  1.0000
  N   N113      1.0  0.60615  0.43970  0.39501  1.0000
  C   C1634     1.0  0.61777  0.43667  0.37718  1.0000
  C   C1635     1.0  0.59168  0.45608  0.39114  1.0000
  C   C1636     1.0  0.59794  0.42356  0.40354  1.0000
  C   C1637     1.0  0.61773  0.44183  0.40634  1.0000
  C   C1638     1.0  0.63289  0.41976  0.37747  1.0000
  C   C1639     1.0  0.59821  0.47366  0.38218  1.0000
  C   C1640     1.0  0.58474  0.42388  0.42162  1.0000
  C   C1641     1.0  0.60823  0.45128  0.42213  1.0000
  H   H2746     1.0  0.60948  0.43609  0.36806  1.0000
  H   H2747     1.0  0.62447  0.44799  0.37041  1.0000
  H   H2748     1.0  0.58145  0.45862  0.40317  1.0000
  H   H2749     1.0  0.58393  0.45411  0.38227  1.0000
  H   H2750     1.0  0.59091  0.42099  0.39436  1.0000
  H   H2751     1.0  0.60848  0.41136  0.40602  1.0000
  H   H2752     1.0  0.62547  0.42856  0.41193  1.0000
  H   H2753     1.0  0.62806  0.44944  0.39792  1.0000
  H   H2754     1.0  0.64164  0.42047  0.36393  1.0000
  H   H2755     1.0  0.64154  0.41871  0.38679  1.0000
  H   H2756     1.0  0.62754  0.40747  0.38050  1.0000
  H   H2757     1.0  0.58648  0.48505  0.38235  1.0000
  H   H2758     1.0  0.60747  0.47613  0.38914  1.0000
  H   H2759     1.0  0.60471  0.47395  0.36794  1.0000
  H   H2760     1.0  0.57295  0.43507  0.42090  1.0000
  H   H2761     1.0  0.59152  0.42379  0.43221  1.0000
  H   H2762     1.0  0.57950  0.41139  0.42580  1.0000
  H   H2763     1.0  0.61250  0.44290  0.43449  1.0000
  H   H2764     1.0  0.59349  0.45386  0.42524  1.0000
  H   H2765     1.0  0.61248  0.46414  0.41980  1.0000
  H   H2766     1.0  0.50884  0.45237  0.39642  1.0000
  C   C1642     1.0  0.70203  0.61890  0.45712  1.0000
  C   C1643     1.0  0.67617  0.34231  0.42320  1.0000
  H   H2767     1.0  0.62086  0.37056  0.32449  1.0000
  H   H2768     1.0  0.74386  0.45491  0.41842  1.0000
  H   H2769     1.0  0.72127  0.46169  0.41592  1.0000
  H   H2770     1.0  0.58687  0.58445  0.48463  1.0000
  H   H2771     1.0  0.51634  0.39619  0.36953  1.0000
  H   H2772     1.0  0.68835  0.35851  0.44064  1.0000
  H   H2773     1.0  0.66002  0.37533  0.36712  1.0000
  H   H2774     1.0  0.66680  0.36789  0.30436  1.0000
  C   C1644     1.0  0.51913  0.42315  0.35560  1.0000
  H   H2775     1.0  0.60468  0.60131  0.45105  1.0000
  H   H2776     1.0  0.69014  0.33616  0.41767  1.0000
  C   C1645     1.0  0.54051  0.44755  0.33083  1.0000
  H   H2777     1.0  0.58502  0.63513  0.47279  1.0000
  N   N114      1.0  0.52093  0.62464  0.35054  1.0000
  H   H2778     1.0  0.59515  0.63952  0.48873  1.0000
  H   H2779     1.0  0.54470  0.43399  0.32781  1.0000
  C   C1646     1.0  0.73037  0.45190  0.42417  1.0000
  C   C1647     1.0  0.50850  0.41008  0.36959  1.0000
  H   H2780     1.0  0.71926  0.40250  0.46006  1.0000
  H   H2781     1.0  0.61690  0.61646  0.46169  1.0000
  N   N115      1.0  0.60390  0.60099  0.48649  1.0000
  H   H2782     1.0  0.70862  0.61197  0.44585  1.0000
  H   H2783     1.0  0.64813  0.35736  0.30791  1.0000
  H   H2784     1.0  0.53835  0.58834  0.32902  1.0000
  C   C1648     1.0  0.62983  0.58012  0.46912  1.0000
  H   H2785     1.0  0.59145  0.34923  0.27551  1.0000
  H   H2786     1.0  0.72333  0.46829  0.44354  1.0000
  H   H2787     1.0  0.68531  0.64656  0.45593  1.0000
  H   H2788     1.0  0.63040  0.36025  0.35899  1.0000
  H   H2789     1.0  0.53293  0.63718  0.37615  1.0000
  C   C1649     1.0  0.53411  0.63627  0.34027  1.0000
  C   C1650     1.0  0.63708  0.34714  0.26544  1.0000
  H   H2790     1.0  0.61012  0.34735  0.46193  1.0000
  N   N116      1.0  0.65680  0.35387  0.34268  1.0000
  H   H2791     1.0  0.51680  0.42932  0.39484  1.0000
  C   C1651     1.0  0.70705  0.63351  0.47912  1.0000
  C   C1652     1.0  0.71858  0.36657  0.40503  1.0000
  H   H2792     1.0  0.70534  0.45184  0.24311  1.0000
  C   C1653     1.0  0.60480  0.34974  0.26655  1.0000
  H   H2793     1.0  0.67484  0.35692  0.41734  1.0000
  H   H2794     1.0  0.56344  0.33923  0.47005  1.0000
  C   C1654     1.0  0.74203  0.63986  0.45367  1.0000
  Fe  Fe234     1.0  0.74172  0.37812  0.24394  1.0000
  H   H2795     1.0  0.66398  0.37898  0.32699  1.0000
  H   H2796     1.0  0.69187  0.63916  0.43518  1.0000
  H   H2797     1.0  0.70203  0.43008  0.24488  1.0000
  H   H2798     1.0  0.73123  0.58983  0.45186  1.0000
  C   C1655     1.0  0.63887  0.36163  0.24801  1.0000
  H   H2799     1.0  0.50683  0.34188  0.48330  1.0000
  H   H2800     1.0  0.51670  0.61572  0.32845  1.0000
  C   C1656     1.0  0.74556  0.35299  0.16958  1.0000
  H   H2801     1.0  0.62482  0.36507  0.29128  1.0000
  C   C1657     1.0  0.61392  0.36464  0.28511  1.0000
  H   H2802     1.0  0.50618  0.41202  0.38334  1.0000
  H   H2803     1.0  0.50248  0.64909  0.35651  1.0000
  N   N117      1.0  0.53548  0.33858  0.48034  1.0000
  H   H2804     1.0  0.53796  0.37270  0.48215  1.0000
  H   H2805     1.0  0.54417  0.58905  0.34892  1.0000
  C   C1658     1.0  0.73941  0.59509  0.45783  1.0000
  H   H2806     1.0  0.56037  0.37199  0.46925  1.0000
  Fe  Fe235     1.0  0.52227  0.63609  0.45515  1.0000
  C   C1659     1.0  0.70842  0.38403  0.40508  1.0000
  C   C1660     1.0  0.66229  0.35509  0.30865  1.0000
  C   C1661     1.0  0.72428  0.44488  0.47544  1.0000
  C   C1662     1.0  0.69162  0.62622  0.49311  1.0000
  H   H2807     1.0  0.72840  0.43346  0.48620  1.0000
  H   H2808     1.0  0.53315  0.41905  0.35766  1.0000
  H   H2809     1.0  0.62592  0.33926  0.31310  1.0000
  H   H2810     1.0  0.67930  0.36572  0.34006  1.0000
  C   C1663     1.0  0.71619  0.35634  0.39408  1.0000
  H   H2811     1.0  0.73147  0.62903  0.43721  1.0000
  N   N118      1.0  0.69460  0.42117  0.28339  1.0000
  C   C1664     1.0  0.70228  0.43636  0.27040  1.0000
  C   C1665     1.0  0.69966  0.41943  0.30093  1.0000
  C   C1666     1.0  0.67453  0.42647  0.28566  1.0000
  C   C1667     1.0  0.70193  0.40455  0.27572  1.0000
  C   C1668     1.0  0.69782  0.44153  0.25163  1.0000
  C   C1669     1.0  0.71990  0.41381  0.30081  1.0000
  C   C1670     1.0  0.66364  0.41343  0.29921  1.0000
  C   C1671     1.0  0.70064  0.38632  0.28875  1.0000
  H   H2812     1.0  0.69783  0.44870  0.27600  1.0000
  H   H2813     1.0  0.71716  0.43312  0.26802  1.0000
  H   H2814     1.0  0.69323  0.40983  0.31191  1.0000
  H   H2815     1.0  0.69452  0.43232  0.30556  1.0000
  H   H2816     1.0  0.66945  0.43974  0.28950  1.0000
  H   H2817     1.0  0.67049  0.42808  0.27287  1.0000
  H   H2818     1.0  0.69523  0.40534  0.26474  1.0000
  H   H2819     1.0  0.71631  0.40380  0.26912  1.0000
  H   H2820     1.0  0.68345  0.44760  0.25192  1.0000
  H   H2821     1.0  0.71036  0.42383  0.44795  1.0000
  H   H2822     1.0  0.71733  0.64815  0.44449  1.0000
  H   H2823     1.0  0.72638  0.40161  0.29538  1.0000
  N   N119      1.0  0.71573  0.62355  0.46417  1.0000
  H   H2824     1.0  0.72181  0.41080  0.31476  1.0000
  H   H2825     1.0  0.66612  0.40064  0.29501  1.0000
  H   H2826     1.0  0.60940  0.42216  0.47922  1.0000
  Fe  Fe236     1.0  0.74962  0.38647  0.20356  1.0000
  H   H2827     1.0  0.69362  0.37893  0.28365  1.0000
  H   H2828     1.0  0.69359  0.38697  0.30260  1.0000
  H   H2829     1.0  0.71424  0.37795  0.28920  1.0000
  H   H2830     1.0  0.51174  0.60169  0.34949  1.0000
  H   H2831     1.0  0.73951  0.36682  0.16339  1.0000
  H   H2832     1.0  0.72830  0.36097  0.41346  1.0000
  H   H2833     1.0  0.51013  0.63441  0.38535  1.0000
  H   H2834     1.0  0.73765  0.64688  0.46496  1.0000
  H   H2835     1.0  0.72697  0.42475  0.29332  1.0000
  C   C1672     1.0  0.73496  0.42230  0.45686  1.0000
  H   H2836     1.0  0.70284  0.34273  0.28240  1.0000
  H   H2837     1.0  0.51977  0.42011  0.34248  1.0000
  H   H2838     1.0  0.74872  0.60235  0.44722  1.0000
  C   C1673     1.0  0.52134  0.61020  0.34119  1.0000
  H   H2839     1.0  0.62872  0.37423  0.24839  1.0000
  S   S468      1.0  0.52634  0.63041  0.42774  1.0000
  H   H2840     1.0  0.59761  0.33772  0.24848  1.0000
  H   H2841     1.0  0.51709  0.46764  0.33667  1.0000
  H   H2842     1.0  0.63188  0.34657  0.34423  1.0000
  H   H2843     1.0  0.64927  0.41934  0.29958  1.0000
  N   N120      1.0  0.61857  0.34828  0.27715  1.0000
  C   C1674     1.0  0.63667  0.35821  0.34520  1.0000
  H   H2844     1.0  0.66696  0.34096  0.40031  1.0000
  C   C1675     1.0  0.53967  0.59760  0.33672  1.0000
  H   H2845     1.0  0.51811  0.60499  0.37543  1.0000
  H   H2846     1.0  0.64101  0.56853  0.47177  1.0000
  H   H2847     1.0  0.59453  0.37926  0.30405  1.0000
  H   H2848     1.0  0.52894  0.63782  0.31359  1.0000
  H   H2849     1.0  0.64430  0.35150  0.44308  1.0000
  H   H2850     1.0  0.63885  0.35624  0.23645  1.0000
  H   H2851     1.0  0.66544  0.41133  0.31303  1.0000
  C   C1676     1.0  0.65506  0.35143  0.44965  1.0000
  H   H2852     1.0  0.70755  0.41988  0.47195  1.0000
  H   H2853     1.0  0.71533  0.33863  0.44880  1.0000
  C   C1677     1.0  0.66468  0.36998  0.34012  1.0000
  H   H2854     1.0  0.51404  0.45159  0.32641  1.0000
  H   H2855     1.0  0.67665  0.33516  0.35672  1.0000
  H   H2856     1.0  0.65685  0.36549  0.44564  1.0000
  H   H2857     1.0  0.64146  0.38579  0.35607  1.0000
  C   C1678     1.0  0.62798  0.37470  0.33254  1.0000
  Fe  Fe237     1.0  0.57158  0.34194  0.39484  1.0000
  C   C1679     1.0  0.60366  0.33616  0.46820  1.0000
  S   S469      1.0  0.71115  0.39667  0.41913  1.0000
  H   H2858     1.0  0.54536  0.64905  0.31332  1.0000
  H   H2859     1.0  0.70922  0.45317  0.44759  1.0000
  H   H2860     1.0  0.52312  0.36173  0.45079  1.0000
  H   H2861     1.0  0.62116  0.33477  0.24567  1.0000
  C   C1680     1.0  0.66471  0.33517  0.41488  1.0000
  H   H2862     1.0  0.66146  0.39432  0.34943  1.0000
  H   H2863     1.0  0.60368  0.64587  0.46539  1.0000
  S   S470      1.0  0.66136  0.60093  0.48896  1.0000
  S   S471      1.0  0.75049  0.37900  0.26825  1.0000
  H   H2864     1.0  0.73024  0.43846  0.42261  1.0000
  H   H2865     1.0  0.51112  0.57304  0.30255  1.0000
  H   H2866     1.0  0.72404  0.34292  0.39407  1.0000
  C   C1681     1.0  0.61891  0.58462  0.48710  1.0000
  H   H2867     1.0  0.67478  0.63068  0.45312  1.0000
  H   H2868     1.0  0.72244  0.47413  0.46963  1.0000
  H   H2869     1.0  0.52212  0.65875  0.32109  1.0000
  H   H2870     1.0  0.64684  0.34795  0.27288  1.0000
  C   C1682     1.0  0.65623  0.38182  0.35408  1.0000
  H   H2871     1.0  0.54856  0.33369  0.44372  1.0000
  C   C1683     1.0  0.59086  0.60267  0.45898  1.0000
  C   C1684     1.0  0.59759  0.33235  0.48676  1.0000
  S   S472      1.0  0.70524  0.56531  0.47891  1.0000
  H   H2872     1.0  0.61761  0.38364  0.34053  1.0000
  H   H2873     1.0  0.63730  0.38279  0.32324  1.0000
  C   C1685     1.0  0.55022  0.34859  0.47070  1.0000
  H   H2874     1.0  0.50467  0.66096  0.48841  1.0000
  H   H2875     1.0  0.54036  0.60807  0.36633  1.0000
  H   H2876     1.0  0.65019  0.33895  0.42021  1.0000
  H   H2877     1.0  0.65651  0.34925  0.47778  1.0000
  C   C1686     1.0  0.68706  0.34469  0.44818  1.0000
  H   H2878     1.0  0.74521  0.34456  0.16066  1.0000
  H   H2879     1.0  0.70182  0.64793  0.47393  1.0000
  C   C1687     1.0  0.72778  0.60647  0.47145  1.0000
  H   H2880     1.0  0.74357  0.41875  0.44420  1.0000
  H   H2881     1.0  0.61375  0.57243  0.49465  1.0000
  H   H2882     1.0  0.51557  0.52183  0.32226  1.0000
  C   C1688     1.0  0.74933  0.35525  0.30015  1.0000
  H   H2883     1.0  0.69509  0.60886  0.46721  1.0000
  C   C1689     1.0  0.68783  0.63482  0.44990  1.0000
  H   H2884     1.0  0.68378  0.34540  0.46249  1.0000
  H   H2885     1.0  0.58445  0.36839  0.29357  1.0000
  H   H2886     1.0  0.54484  0.45701  0.31826  1.0000
  H   H2887     1.0  0.62284  0.61804  0.48089  1.0000
  H   H2888     1.0  0.55702  0.35831  0.49105  1.0000
  C   C1690     1.0  0.51697  0.35024  0.48041  1.0000
  H   H2889     1.0  0.62865  0.58580  0.49439  1.0000
  H   H2890     1.0  0.53294  0.64708  0.34731  1.0000
  H   H2891     1.0  0.57611  0.60710  0.48464  1.0000
  N   N121      1.0  0.67241  0.33907  0.44334  1.0000
  H   H2892     1.0  0.64331  0.33502  0.47523  1.0000
  H   H2893     1.0  0.52809  0.61877  0.39384  1.0000
  S   S473      1.0  0.50687  0.50173  0.35902  1.0000
  H   H2894     1.0  0.51416  0.56249  0.40997  1.0000
  C   C1691     1.0  0.50903  0.44234  0.38885  1.0000
  C   C1692     1.0  0.50369  0.58719  0.30105  1.0000
  S   S474      1.0  0.50825  0.58850  0.43141  1.0000
  H   H2895     1.0  0.63493  0.35844  0.47264  1.0000
  H   H2896     1.0  0.52465  0.33370  0.44923  1.0000
  H   H2897     1.0  0.62320  0.44433  0.48458  1.0000
  C   C1693     1.0  0.60852  0.33503  0.25582  1.0000
  C   C1694     1.0  0.61002  0.42173  0.49317  1.0000
  H   H2898     1.0  0.51598  0.46332  0.36654  1.0000
  N   N122      1.0  0.51205  0.44290  0.35514  1.0000
  H   H2899     1.0  0.72686  0.34072  0.27826  1.0000
  H   H2900     1.0  0.63830  0.42350  0.48289  1.0000
  H   H2901     1.0  0.74783  0.58323  0.46498  1.0000
  H   H2902     1.0  0.74162  0.41310  0.46759  1.0000
  H   H2903     1.0  0.71330  0.34305  0.29967  1.0000
  Fe  Fe238     1.0  0.50319  0.65359  0.42349  1.0000
  H   H2904     1.0  0.74736  0.33622  0.32522  1.0000
  H   H2905     1.0  0.74828  0.64902  0.44190  1.0000
  C   C1695     1.0  0.70596  0.33255  0.44524  1.0000
  H   H2906     1.0  0.71731  0.46396  0.49274  1.0000
  H   H2907     1.0  0.57195  0.39795  0.49316  1.0000
  H   H2908     1.0  0.66133  0.33182  0.32947  1.0000
  C   C1696     1.0  0.50220  0.63594  0.35414  1.0000
  H   H2909     1.0  0.50195  0.56277  0.38401  1.0000
  C   C1697     1.0  0.61845  0.33157  0.29161  1.0000
  S   S475      1.0  0.50143  0.66116  0.44952  1.0000
  H   H2910     1.0  0.71145  0.33127  0.43119  1.0000
  H   H2911     1.0  0.62368  0.36429  0.50785  1.0000
  H   H2912     1.0  0.55779  0.64374  0.52273  1.0000
  C   C1698     1.0  0.74113  0.62545  0.61620  1.0000
  S   S476      1.0  0.53329  0.51645  0.61898  1.0000
  Fe  Fe239     1.0  0.52124  0.45518  0.61967  1.0000
  S   S477      1.0  0.53420  0.42581  0.62389  1.0000
  S   S478      1.0  0.52855  0.47820  0.59764  1.0000
  S   S479      1.0  0.56017  0.40116  0.55033  1.0000
  H   H2913     1.0  0.61839  0.62680  0.63572  1.0000
  S   S480      1.0  0.55591  0.36831  0.52630  1.0000
  Fe  Fe240     1.0  0.71377  0.62438  0.72152  1.0000
  S   S481      1.0  0.71240  0.62450  0.69373  1.0000
  S   S482      1.0  0.69025  0.63809  0.73938  1.0000
  S   S483      1.0  0.67107  0.54762  0.50424  1.0000
  H   H2914     1.0  0.51589  0.54303  0.68724  1.0000
  H   H2915     1.0  0.68830  0.63263  0.50475  1.0000
  N   N123      1.0  0.61020  0.40304  0.50441  1.0000
  H   H2916     1.0  0.63875  0.39728  0.50437  1.0000
  Fe  Fe241     1.0  0.72476  0.59537  0.69998  1.0000
  S   S484      1.0  0.71786  0.57771  0.68534  1.0000
  C   C1699     1.0  0.71536  0.54970  0.56439  1.0000
  S   S485      1.0  0.72427  0.59471  0.72873  1.0000
  Fe  Fe242     1.0  0.62965  0.55734  0.67074  1.0000
  S   S486      1.0  0.63757  0.54335  0.64764  1.0000
  S   S487      1.0  0.64434  0.55479  0.69278  1.0000
  Fe  Fe243     1.0  0.59508  0.57946  0.65921  1.0000
  S   S488      1.0  0.60044  0.56828  0.63468  1.0000
  S   S489      1.0  0.57020  0.59900  0.66873  1.0000
  Fe  Fe244     1.0  0.60845  0.54172  0.65244  1.0000
  S   S490      1.0  0.59912  0.51706  0.65138  1.0000
  Fe  Fe245     1.0  0.62877  0.57081  0.63169  1.0000
  S   S491      1.0  0.64493  0.58305  0.60573  1.0000
  S   S492      1.0  0.60142  0.55280  0.67740  1.0000
  S   S493      1.0  0.62249  0.58484  0.65434  1.0000
  C   C1700     1.0  0.59018  0.58781  0.51935  1.0000
  C   C1701     1.0  0.50206  0.66184  0.52230  1.0000
  H   H2917     1.0  0.71520  0.60253  0.56021  1.0000
  S   S494      1.0  0.53427  0.65470  0.60859  1.0000
  S   S495      1.0  0.69105  0.56948  0.52067  1.0000
  C   C1702     1.0  0.62791  0.50740  0.55904  1.0000
  Fe  Fe246     1.0  0.68574  0.54194  0.52651  1.0000
  S   S496      1.0  0.67671  0.52818  0.55492  1.0000
  H   H2918     1.0  0.58324  0.59233  0.53202  1.0000
  C   C1703     1.0  0.62040  0.61102  0.53946  1.0000
  C   C1704     1.0  0.63018  0.59380  0.53818  1.0000
  C   C1705     1.0  0.64280  0.59085  0.52265  1.0000
  H   H2919     1.0  0.68735  0.62007  0.55198  1.0000
  H   H2920     1.0  0.53477  0.55606  0.69058  1.0000
  H   H2921     1.0  0.62799  0.58268  0.54924  1.0000
  H   H2922     1.0  0.65008  0.57744  0.52170  1.0000
  C   C1706     1.0  0.56025  0.61402  0.65177  1.0000
  C   C1707     1.0  0.56823  0.61431  0.63379  1.0000
  C   C1708     1.0  0.55993  0.62635  0.62045  1.0000
  C   C1709     1.0  0.54392  0.63845  0.62507  1.0000
  C   C1710     1.0  0.53582  0.63796  0.64307  1.0000
  C   C1711     1.0  0.54397  0.62576  0.65640  1.0000
  H   H2923     1.0  0.58076  0.60525  0.63010  1.0000
  H   H2924     1.0  0.56581  0.62608  0.60659  1.0000
  H   H2925     1.0  0.69513  0.61158  0.49806  1.0000
  H   H2926     1.0  0.53775  0.62552  0.67032  1.0000
  C   C1712     1.0  0.65461  0.56779  0.59176  1.0000
  C   C1713     1.0  0.66152  0.54987  0.59869  1.0000
  C   C1714     1.0  0.66882  0.53776  0.58728  1.0000
  C   C1715     1.0  0.66905  0.54355  0.56897  1.0000
  C   C1716     1.0  0.66236  0.56150  0.56210  1.0000
  C   C1717     1.0  0.65528  0.57364  0.57343  1.0000
  H   H2927     1.0  0.66130  0.54534  0.61281  1.0000
  H   H2928     1.0  0.67408  0.52387  0.59264  1.0000
  H   H2929     1.0  0.66177  0.56584  0.54821  1.0000
  H   H2930     1.0  0.64946  0.58735  0.56809  1.0000
  H   H2931     1.0  0.69082  0.57873  0.57859  1.0000
  H   H2932     1.0  0.61546  0.63866  0.52583  1.0000
  Fe  Fe247     1.0  0.74051  0.62848  0.68674  1.0000
  C   C1718     1.0  0.69673  0.57280  0.68721  1.0000
  C   C1719     1.0  0.68315  0.57386  0.70250  1.0000
  C   C1720     1.0  0.66705  0.56862  0.70387  1.0000
  C   C1721     1.0  0.66410  0.56284  0.68978  1.0000
  C   C1722     1.0  0.67750  0.56231  0.67426  1.0000
  C   C1723     1.0  0.69383  0.56696  0.67313  1.0000
  H   H2933     1.0  0.68520  0.57824  0.71347  1.0000
  H   H2934     1.0  0.65684  0.56895  0.71598  1.0000
  H   H2935     1.0  0.67551  0.55768  0.66341  1.0000
  H   H2936     1.0  0.70427  0.56604  0.66126  1.0000
  C   C1724     1.0  0.67226  0.64713  0.72851  1.0000
  C   C1725     1.0  0.65512  0.64475  0.73773  1.0000
  C   C1726     1.0  0.64042  0.65267  0.72960  1.0000
  C   C1727     1.0  0.60261  0.40367  0.52382  1.0000
  H   H2937     1.0  0.65322  0.63673  0.75115  1.0000
  S   S497      1.0  0.58823  0.35181  0.54864  1.0000
  H   H2938     1.0  0.50800  0.39560  0.49612  1.0000
  C   C1728     1.0  0.55157  0.51602  0.62831  1.0000
  C   C1729     1.0  0.55802  0.53179  0.62469  1.0000
  C   C1730     1.0  0.57246  0.53226  0.63170  1.0000
  C   C1731     1.0  0.58062  0.51701  0.64257  1.0000
  C   C1732     1.0  0.57432  0.50117  0.64606  1.0000
  C   C1733     1.0  0.55986  0.50065  0.63900  1.0000
  H   H2939     1.0  0.55186  0.54371  0.61627  1.0000
  H   H2940     1.0  0.57751  0.54435  0.62845  1.0000
  H   H2941     1.0  0.58061  0.48921  0.65433  1.0000
  H   H2942     1.0  0.55512  0.48839  0.64187  1.0000
  C   C1734     1.0  0.54276  0.41855  0.60368  1.0000
  C   C1735     1.0  0.54539  0.40041  0.60342  1.0000
  C   C1736     1.0  0.55119  0.39476  0.58710  1.0000
  C   C1737     1.0  0.55445  0.40725  0.57110  1.0000
  C   C1738     1.0  0.55226  0.42524  0.57146  1.0000
  C   C1739     1.0  0.54635  0.43088  0.58770  1.0000
  H   H2943     1.0  0.54279  0.39082  0.61580  1.0000
  H   H2944     1.0  0.55306  0.38081  0.58688  1.0000
  H   H2945     1.0  0.55480  0.43493  0.55913  1.0000
  H   H2946     1.0  0.54453  0.44481  0.58781  1.0000
  C   C1740     1.0  0.63528  0.51254  0.59239  1.0000
  H   H2947     1.0  0.51313  0.65415  0.54616  1.0000
  S   S498      1.0  0.54614  0.35390  0.56968  1.0000
  H   H2948     1.0  0.65925  0.66202  0.61776  1.0000
  H   H2949     1.0  0.59386  0.54113  0.59192  1.0000
  H   H2950     1.0  0.55498  0.33961  0.61253  1.0000
  H   H2951     1.0  0.56918  0.54762  0.66269  1.0000
  H   H2952     1.0  0.50578  0.40343  0.64340  1.0000
  H   H2953     1.0  0.71317  0.59289  0.52024  1.0000
  H   H2954     1.0  0.55431  0.62419  0.50459  1.0000
  H   H2955     1.0  0.59036  0.62224  0.67962  1.0000
  H   H2956     1.0  0.58050  0.58281  0.51508  1.0000
  C   C1741     1.0  0.64572  0.60510  0.50833  1.0000
  Fe  Fe248     1.0  0.67912  0.57417  0.49679  1.0000
  H   H2957     1.0  0.51107  0.53431  0.67134  1.0000
  H   H2958     1.0  0.68367  0.60852  0.53718  1.0000
  H   H2959     1.0  0.50275  0.57258  0.69282  1.0000
  H   H2960     1.0  0.62614  0.65878  0.56442  1.0000
  H   H2961     1.0  0.72586  0.53879  0.56975  1.0000
  H   H2962     1.0  0.65563  0.61485  0.58134  1.0000
  H   H2963     1.0  0.63128  0.54851  0.58181  1.0000
  C   C1742     1.0  0.52383  0.55694  0.65891  1.0000
  H   H2964     1.0  0.59972  0.63707  0.62527  1.0000
  H   H2965     1.0  0.53373  0.54670  0.65210  1.0000
  C   C1743     1.0  0.51132  0.54709  0.67449  1.0000
  C   C1744     1.0  0.73622  0.61679  0.63396  1.0000
  H   H2966     1.0  0.52345  0.42834  0.55554  1.0000
  H   H2967     1.0  0.66458  0.63738  0.53318  1.0000
  H   H2968     1.0  0.65958  0.63495  0.66893  1.0000
  H   H2969     1.0  0.71149  0.57753  0.55147  1.0000
  C   C1745     1.0  0.72047  0.56809  0.56012  1.0000
  H   H2970     1.0  0.63558  0.61766  0.57386  1.0000
  H   H2971     1.0  0.50964  0.45015  0.57558  1.0000
  H   H2972     1.0  0.61053  0.42424  0.53215  1.0000
  C   C1746     1.0  0.59832  0.39469  0.49838  1.0000
  C   C1747     1.0  0.57477  0.64836  0.66847  1.0000
  H   H2973     1.0  0.62718  0.65073  0.73676  1.0000
  H   H2974     1.0  0.60685  0.60714  0.51045  1.0000
  C   C1748     1.0  0.50294  0.42759  0.52598  1.0000
  H   H2975     1.0  0.71337  0.62320  0.52353  1.0000
  H   H2976     1.0  0.52197  0.39716  0.57054  1.0000
  H   H2977     1.0  0.53583  0.34235  0.50642  1.0000
  C   C1749     1.0  0.66027  0.62818  0.54594  1.0000
  C   C1750     1.0  0.50706  0.40073  0.57374  1.0000
  C   C1751     1.0  0.63589  0.62241  0.50946  1.0000
  H   H2978     1.0  0.62160  0.64292  0.59127  1.0000
  H   H2979     1.0  0.71425  0.54676  0.55182  1.0000
  Fe  Fe249     1.0  0.71662  0.55852  0.50358  1.0000
  C   C1752     1.0  0.50714  0.41210  0.54178  1.0000
  S   S499      1.0  0.51408  0.47062  0.64147  1.0000
  Fe  Fe250     1.0  0.55465  0.65916  0.58309  1.0000
  C   C1753     1.0  0.53313  0.33813  0.63666  1.0000
  H   H2980     1.0  0.56911  0.63918  0.66419  1.0000
  H   H2981     1.0  0.55497  0.58250  0.64934  1.0000
  S   S500      1.0  0.73400  0.62036  0.59939  1.0000
  H   H2982     1.0  0.69901  0.56456  0.59714  1.0000
  C   C1754     1.0  0.58813  0.50808  0.59134  1.0000
  H   H2983     1.0  0.62707  0.53376  0.56150  1.0000
  H   H2984     1.0  0.58948  0.41323  0.52526  1.0000
  H   H2985     1.0  0.61083  0.56162  0.57553  1.0000
  H   H2986     1.0  0.62111  0.49600  0.56471  1.0000
  C   C1755     1.0  0.51939  0.58575  0.66818  1.0000
  H   H2987     1.0  0.50911  0.59032  0.65977  1.0000
  C   C1756     1.0  0.60415  0.63395  0.63812  1.0000
  H   H2988     1.0  0.74871  0.52127  0.68865  1.0000
  H   H2989     1.0  0.51516  0.65546  0.51497  1.0000
  H   H2990     1.0  0.67438  0.60270  0.56026  1.0000
  H   H2991     1.0  0.67234  0.65249  0.55124  1.0000
  C   C1757     1.0  0.53774  0.33134  0.49944  1.0000
  H   H2992     1.0  0.51124  0.33552  0.58924  1.0000
  H   H2993     1.0  0.58073  0.49776  0.60010  1.0000
  H   H2994     1.0  0.64227  0.50289  0.55982  1.0000
  S   S501      1.0  0.71602  0.64920  0.55847  1.0000
  H   H2995     1.0  0.64091  0.49872  0.59005  1.0000
  H   H2996     1.0  0.64499  0.52037  0.58320  1.0000
  C   C1758     1.0  0.62313  0.62536  0.52504  1.0000
  H   H2997     1.0  0.51552  0.56426  0.64886  1.0000
  C   C1759     1.0  0.70058  0.57713  0.58704  1.0000
  H   H2998     1.0  0.60521  0.53400  0.60950  1.0000
  C   C1760     1.0  0.74373  0.59408  0.55839  1.0000
  H   H2999     1.0  0.59642  0.62459  0.64807  1.0000
  C   C1761     1.0  0.55299  0.33390  0.62709  1.0000
  S   S502      1.0  0.55832  0.64555  0.56061  1.0000
  H   H3000     1.0  0.50315  0.35214  0.65916  1.0000
  N   N124      1.0  0.65059  0.63841  0.56052  1.0000
  C   C1762     1.0  0.60595  0.50541  0.59720  1.0000
  H   H3001     1.0  0.55477  0.56423  0.64089  1.0000
  H   H3002     1.0  0.64122  0.65913  0.52495  1.0000
  S   S503      1.0  0.75066  0.64570  0.66079  1.0000
  H   H3003     1.0  0.57187  0.65246  0.63448  1.0000
  H   H3004     1.0  0.61375  0.49186  0.59544  1.0000
  C   C1763     1.0  0.66331  0.64769  0.56403  1.0000
  S   S504      1.0  0.71240  0.53030  0.51091  1.0000
  C   C1764     1.0  0.55282  0.64960  0.51057  1.0000
  Fe  Fe251     1.0  0.58029  0.34617  0.52588  1.0000
  H   H3005     1.0  0.73733  0.54373  0.68455  1.0000
  N   N125      1.0  0.61691  0.51948  0.58804  1.0000
  C   C1765     1.0  0.74156  0.58615  0.51013  1.0000
  H   H3006     1.0  0.59848  0.64066  0.68180  1.0000
  C   C1766     1.0  0.69302  0.59275  0.59698  1.0000
  S   S505      1.0  0.58363  0.65218  0.58422  1.0000
  H   H3007     1.0  0.50396  0.44401  0.55028  1.0000
  H   H3008     1.0  0.51199  0.43705  0.52289  1.0000
  C   C1767     1.0  0.60756  0.53640  0.59471  1.0000
  N   N126      1.0  0.67831  0.64694  0.64656  1.0000
  C   C1768     1.0  0.66943  0.63149  0.65675  1.0000
  C   C1769     1.0  0.61371  0.40948  0.53373  1.0000
  H   H3009     1.0  0.53015  0.60148  0.63405  1.0000
  C   C1770     1.0  0.68957  0.64237  0.62919  1.0000
  C   C1771     1.0  0.68202  0.61370  0.66306  1.0000
  Fe  Fe252     1.0  0.54155  0.34788  0.54549  1.0000
  H   H3010     1.0  0.55277  0.53349  0.67116  1.0000
  H   H3011     1.0  0.73924  0.58172  0.59899  1.0000
  N   N127      1.0  0.58389  0.66012  0.65226  1.0000
  H   H3012     1.0  0.66167  0.62830  0.64861  1.0000
  C   C1772     1.0  0.52189  0.33593  0.61175  1.0000
  C   C1773     1.0  0.67737  0.61414  0.54934  1.0000
  C   C1774     1.0  0.55810  0.54391  0.67382  1.0000
  H   H3013     1.0  0.70262  0.63918  0.65694  1.0000
  H   H3014     1.0  0.70099  0.63106  0.63170  1.0000
  H   H3015     1.0  0.68212  0.63701  0.62240  1.0000
  H   H3016     1.0  0.69158  0.60828  0.65182  1.0000
  H   H3017     1.0  0.68943  0.61475  0.67268  1.0000
  C   C1775     1.0  0.50932  0.58412  0.68785  1.0000
  H   H3018     1.0  0.70182  0.59356  0.60538  1.0000
  H   H3019     1.0  0.67227  0.63807  0.57260  1.0000
  C   C1776     1.0  0.72597  0.52850  0.70920  1.0000
  H   H3020     1.0  0.64523  0.36542  0.50967  1.0000
  H   H3021     1.0  0.52506  0.37036  0.51495  1.0000
  H   H3022     1.0  0.72922  0.60596  0.63721  1.0000
  H   H3023     1.0  0.51228  0.62647  0.51984  1.0000
  H   H3024     1.0  0.68603  0.49850  0.49823  1.0000
  H   H3025     1.0  0.56311  0.65655  0.67614  1.0000
  C   C1777     1.0  0.61676  0.55250  0.58674  1.0000
  Fe  Fe253     1.0  0.73926  0.65369  0.53597  1.0000
  C   C1778     1.0  0.73471  0.56890  0.60290  1.0000
  Fe  Fe254     1.0  0.51939  0.49428  0.61925  1.0000
  N   N128      1.0  0.71959  0.57559  0.57604  1.0000
  C   C1779     1.0  0.66355  0.66326  0.64380  1.0000
  Fe  Fe255     1.0  0.73565  0.64342  0.57599  1.0000
  H   H3026     1.0  0.57822  0.63526  0.69553  1.0000
  H   H3027     1.0  0.59646  0.38168  0.50749  1.0000
  C   C1780     1.0  0.54587  0.57571  0.64635  1.0000
  H   H3028     1.0  0.69042  0.60571  0.58744  1.0000
  Fe  Fe256     1.0  0.57099  0.33260  0.56584  1.0000
  H   H3029     1.0  0.57148  0.40872  0.51039  1.0000
  H   H3030     1.0  0.60254  0.50446  0.61190  1.0000
  H   H3031     1.0  0.50714  0.37284  0.58577  1.0000
  C   C1781     1.0  0.53770  0.58843  0.63073  1.0000
  C   C1782     1.0  0.54341  0.56042  0.67752  1.0000
  H   H3032     1.0  0.50531  0.42212  0.51384  1.0000
  H   H3033     1.0  0.63379  0.52546  0.61437  1.0000
  C   C1783     1.0  0.65149  0.66304  0.63143  1.0000
  H   H3034     1.0  0.62872  0.62137  0.60397  1.0000
  C   C1784     1.0  0.63638  0.51186  0.61167  1.0000
  C   C1785     1.0  0.73265  0.56286  0.58678  1.0000
  H   H3035     1.0  0.59032  0.50631  0.57748  1.0000
  S   S506      1.0  0.74192  0.56555  0.50529  1.0000
  H   H3036     1.0  0.67372  0.60365  0.67024  1.0000
  H   H3037     1.0  0.71140  0.65683  0.61742  1.0000
  C   C1786     1.0  0.68979  0.64928  0.65794  1.0000
  H   H3038     1.0  0.62637  0.37143  0.52673  1.0000
  S   S507      1.0  0.74060  0.63181  0.71388  1.0000
  H   H3039     1.0  0.72870  0.54970  0.59223  1.0000
  H   H3040     1.0  0.62710  0.50405  0.62167  1.0000
  H   H3041     1.0  0.65015  0.50520  0.61364  1.0000
  H   H3042     1.0  0.72263  0.60076  0.57987  1.0000
  H   H3043     1.0  0.61157  0.64752  0.65418  1.0000
  H   H3044     1.0  0.52339  0.64725  0.64668  1.0000
  S   S508      1.0  0.60518  0.61400  0.55939  1.0000
  C   C1787     1.0  0.51073  0.37390  0.51891  1.0000
  H   H3045     1.0  0.60562  0.52950  0.56427  1.0000
  H   H3046     1.0  0.62831  0.40468  0.52977  1.0000
  C   C1788     1.0  0.61884  0.52347  0.56807  1.0000
  H   H3047     1.0  0.52912  0.58235  0.62612  1.0000
  H   H3048     1.0  0.53300  0.33415  0.65117  1.0000
  H   H3049     1.0  0.52615  0.59713  0.66553  1.0000
  H   H3050     1.0  0.64383  0.65228  0.63693  1.0000
  H   H3051     1.0  0.56412  0.53776  0.68577  1.0000
  C   C1789     1.0  0.55096  0.63853  0.50019  1.0000
  H   H3052     1.0  0.65117  0.62114  0.54315  1.0000
  H   H3053     1.0  0.64236  0.63727  0.59939  1.0000
  C   C1790     1.0  0.50139  0.33626  0.64092  1.0000
  C   C1791     1.0  0.72576  0.61437  0.51895  1.0000
  C   C1792     1.0  0.62881  0.39157  0.50137  1.0000
  C   C1793     1.0  0.75048  0.63920  0.61210  1.0000
  H   H3054     1.0  0.54877  0.59143  0.61920  1.0000
  Fe  Fe257     1.0  0.58757  0.64115  0.56001  1.0000
  H   H3055     1.0  0.52126  0.35060  0.60761  1.0000
  C   C1794     1.0  0.50863  0.43176  0.56001  1.0000
  H   H3056     1.0  0.62749  0.51162  0.54462  1.0000
  Fe  Fe258     1.0  0.56262  0.37238  0.55035  1.0000
  H   H3057     1.0  0.51841  0.58346  0.69665  1.0000
  H   H3058     1.0  0.61031  0.40342  0.54820  1.0000
  H   H3059     1.0  0.72216  0.56987  0.61319  1.0000
  H   H3060     1.0  0.50319  0.40392  0.58720  1.0000
  C   C1795     1.0  0.50175  0.36400  0.53433  1.0000
  H   H3061     1.0  0.74509  0.55874  0.60928  1.0000
  H   H3062     1.0  0.54999  0.57010  0.67998  1.0000
  C   C1796     1.0  0.63364  0.63248  0.59363  1.0000
  S   S509      1.0  0.51355  0.34560  0.54727  1.0000
  H   H3063     1.0  0.61516  0.56012  0.59716  1.0000
  C   C1797     1.0  0.72563  0.59726  0.51699  1.0000
  S   S510      1.0  0.74150  0.64338  0.51128  1.0000
  S   S511      1.0  0.59994  0.34626  0.49953  1.0000
  H   H3064     1.0  0.67996  0.59091  0.60597  1.0000
  C   C1798     1.0  0.58645  0.63617  0.68175  1.0000
  H   H3065     1.0  0.57920  0.52120  0.59266  1.0000
  C   C1799     1.0  0.63456  0.65121  0.55426  1.0000
  H   H3066     1.0  0.60160  0.57678  0.52256  1.0000
  N   N129      1.0  0.53281  0.56946  0.66311  1.0000
  C   C1800     1.0  0.72438  0.59375  0.56897  1.0000
  C   C1801     1.0  0.73964  0.62264  0.64766  1.0000
  H   H3067     1.0  0.70229  0.54925  0.57375  1.0000
  C   C1802     1.0  0.64419  0.62509  0.57691  1.0000
  C   C1803     1.0  0.57927  0.40583  0.49729  1.0000
  C   C1804     1.0  0.64274  0.66345  0.71245  1.0000
  C   C1805     1.0  0.60264  0.65112  0.64458  1.0000
  H   H3068     1.0  0.73539  0.61614  0.66133  1.0000
  H   H3069     1.0  0.50353  0.37861  0.56369  1.0000
  H   H3070     1.0  0.74618  0.55998  0.57809  1.0000
  H   H3071     1.0  0.59917  0.39073  0.53178  1.0000
  H   H3072     1.0  0.63803  0.63346  0.49831  1.0000
  H   H3073     1.0  0.68303  0.64680  0.67234  1.0000
  C   C1806     1.0  0.74268  0.53294  0.69516  1.0000
  H   H3074     1.0  0.62544  0.64369  0.55228  1.0000
  H   H3075     1.0  0.51136  0.42781  0.58794  1.0000
  C   C1807     1.0  0.50448  0.43781  0.57791  1.0000
  H   H3076     1.0  0.58506  0.61522  0.50609  1.0000
  C   C1808     1.0  0.63086  0.37213  0.51215  1.0000
  H   H3077     1.0  0.52868  0.35298  0.63384  1.0000
  H   H3078     1.0  0.62906  0.42962  0.50437  1.0000
  H   H3079     1.0  0.73414  0.56639  0.55155  1.0000
  H   H3080     1.0  0.71725  0.54073  0.71360  1.0000
  C   C1809     1.0  0.74178  0.62058  0.51371  1.0000
  H   H3081     1.0  0.74706  0.58861  0.54619  1.0000
  H   H3082     1.0  0.67472  0.47116  0.50138  1.0000
  H   H3083     1.0  0.52197  0.40715  0.53926  1.0000
  H   H3084     1.0  0.73953  0.54112  0.72752  1.0000
  H   H3085     1.0  0.69938  0.65513  0.60179  1.0000
  H   H3086     1.0  0.73886  0.56101  0.71128  1.0000
  C   C1810     1.0  0.74813  0.54849  0.71618  1.0000
  C   C1811     1.0  0.59663  0.60371  0.50543  1.0000
  C   C1812     1.0  0.67471  0.65746  0.71110  1.0000
  H   H3087     1.0  0.68795  0.65947  0.70403  1.0000
  H   H3088     1.0  0.71781  0.52341  0.70298  1.0000
  C   C1813     1.0  0.50760  0.33211  0.60407  1.0000
  H   H3089     1.0  0.74523  0.60822  0.55388  1.0000
  C   C1814     1.0  0.69792  0.65724  0.61543  1.0000
  H   H3090     1.0  0.72932  0.51812  0.72091  1.0000
  H   H3091     1.0  0.50674  0.42384  0.65764  1.0000
  H   H3092     1.0  0.50809  0.63179  0.49754  1.0000
  H   H3093     1.0  0.59771  0.43124  0.49819  1.0000
  H   H3094     1.0  0.56088  0.34017  0.63244  1.0000
  H   H3095     1.0  0.60892  0.66055  0.63300  1.0000
  C   C1815     1.0  0.74813  0.63705  0.64363  1.0000
  H   H3096     1.0  0.50655  0.39126  0.61809  1.0000
  C   C1816     1.0  0.50105  0.38810  0.50821  1.0000
  C   C1817     1.0  0.50207  0.62826  0.51193  1.0000
  H   H3097     1.0  0.50187  0.40093  0.54069  1.0000
  C   C1818     1.0  0.65486  0.66421  0.57264  1.0000
  H   H3098     1.0  0.60967  0.86792  0.02493  1.0000
  C   C1819     1.0  0.69396  0.99314  0.10421  1.0000
  H   H3099     1.0  0.50735  0.73912  0.07502  1.0000
  C   C1820     1.0  0.56541  0.78247  0.12031  1.0000
  H   H3100     1.0  0.54021  0.86242  0.02228  1.0000
  S   S512      1.0  0.52714  0.97873  0.11467  1.0000
  Fe  Fe259     1.0  0.52878  0.91253  0.12746  1.0000
  S   S513      1.0  0.55072  0.89081  0.13735  1.0000
  S   S514      1.0  0.53418  0.93294  0.10233  1.0000
  S   S515      1.0  0.52293  0.74106  0.13906  1.0000
  Fe  Fe260     1.0  0.56775  0.82634  0.07507  1.0000
  S   S516      1.0  0.54456  0.81330  0.08055  1.0000
  S   S517      1.0  0.57983  0.82607  0.09782  1.0000
  Fe  Fe261     1.0  0.57014  0.83510  0.03509  1.0000
  S   S518      1.0  0.54711  0.82268  0.03694  1.0000
  S   S519      1.0  0.58516  0.85040  0.01021  1.0000
  Fe  Fe262     1.0  0.53419  0.83609  0.06008  1.0000
  S   S520      1.0  0.57513  0.99110  0.16140  1.0000
  Fe  Fe263     1.0  0.55945  0.80078  0.05731  1.0000
  S   S521      1.0  0.56073  0.77156  0.06035  1.0000
  S   S522      1.0  0.55600  0.85056  0.05657  1.0000
  S   S523      1.0  0.58385  0.81186  0.05335  1.0000
  H   H3101     1.0  0.57445  0.79781  0.16297  1.0000
  H   H3102     1.0  0.57005  0.77950  0.15698  1.0000
  H   H3103     1.0  0.57327  0.82220  0.00178  1.0000
  H   H3104     1.0  0.69627  0.97661  0.05642  1.0000
  H   H3105     1.0  0.74014  0.98002  0.02801  1.0000
  C   C1821     1.0  0.53327  0.74995  0.11725  1.0000
  C   C1822     1.0  0.54969  0.74038  0.10937  1.0000
  C   C1823     1.0  0.55791  0.74685  0.09173  1.0000
  C   C1824     1.0  0.54995  0.76315  0.08208  1.0000
  C   C1825     1.0  0.53356  0.77276  0.08998  1.0000
  C   C1826     1.0  0.52526  0.76621  0.10757  1.0000
  H   H3106     1.0  0.55602  0.72788  0.11687  1.0000
  H   H3107     1.0  0.57063  0.73944  0.08569  1.0000
  H   H3108     1.0  0.52717  0.78517  0.08242  1.0000
  H   H3109     1.0  0.51277  0.77384  0.11361  1.0000
  C   C1827     1.0  0.55803  0.87294  0.12621  1.0000
  C   C1828     1.0  0.57179  0.85888  0.13149  1.0000
  C   C1829     1.0  0.57829  0.84461  0.12266  1.0000
  C   C1830     1.0  0.57106  0.84425  0.10850  1.0000
  C   C1831     1.0  0.55705  0.85813  0.10336  1.0000
  C   C1832     1.0  0.55057  0.87254  0.11218  1.0000
  H   H3110     1.0  0.57755  0.85911  0.14234  1.0000
  H   H3111     1.0  0.58908  0.83389  0.12670  1.0000
  H   H3112     1.0  0.55131  0.85788  0.09252  1.0000
  H   H3113     1.0  0.53995  0.88339  0.10800  1.0000
  H   H3114     1.0  0.69874  0.99598  0.06161  1.0000
  C   C1833     1.0  0.70440  0.96946  0.02198  1.0000
  H   H3115     1.0  0.72685  0.96637  0.04389  1.0000
  C   C1834     1.0  0.53966  0.66448  0.47909  1.0000
  H   H3116     1.0  0.50165  0.95776  0.18331  1.0000
  H   H3117     1.0  0.50234  0.80414  0.14336  1.0000
  C   C1835     1.0  0.53578  0.87424  0.01209  1.0000
  C   C1836     1.0  0.55101  0.97529  0.15545  1.0000
  C   C1837     1.0  0.54067  0.97197  0.14520  1.0000
  S   S524      1.0  0.66131  0.98792  0.12418  1.0000
  S   S525      1.0  0.50403  0.90830  0.12215  1.0000
  H   H3118     1.0  0.50407  0.68843  0.12929  1.0000
  H   H3119     1.0  0.63094  0.87357  0.02340  1.0000
  H   H3120     1.0  0.53284  0.96177  0.15079  1.0000
  H   H3121     1.0  0.52682  0.85916  0.99894  1.0000
  H   H3122     1.0  0.69913  0.97968  0.11089  1.0000
  H   H3123     1.0  0.51233  0.78051  0.14873  1.0000
  N   N130      1.0  0.54036  0.80055  0.14104  1.0000
  H   H3124     1.0  0.52012  0.84245  0.11840  1.0000
  C   C1838     1.0  0.55443  0.80625  0.14660  1.0000
  C   C1839     1.0  0.53395  0.81490  0.12600  1.0000
  C   C1840     1.0  0.72868  0.98042  0.03970  1.0000
  N   N131      1.0  0.71195  0.99287  0.03468  1.0000
  H   H3125     1.0  0.52131  0.68991  0.09226  1.0000
  H   H3126     1.0  0.50681  0.72075  0.12394  1.0000
  H   H3127     1.0  0.54865  0.81856  0.15208  1.0000
  H   H3128     1.0  0.54548  0.81801  0.11513  1.0000
  H   H3129     1.0  0.52544  0.81022  0.11979  1.0000
  H   H3130     1.0  0.56407  0.79303  0.10817  1.0000
  C   C1841     1.0  0.52520  0.79780  0.15690  1.0000
  H   H3131     1.0  0.52900  0.71535  0.11176  1.0000
  C   C1842     1.0  0.55085  0.99504  0.12074  1.0000
  N   N132      1.0  0.50858  0.71628  0.09761  1.0000
  C   C1843     1.0  0.56365  0.79248  0.16096  1.0000
  H   H3132     1.0  0.55422  0.79032  0.17404  1.0000
  H   H3133     1.0  0.62992  0.90099  0.00580  1.0000
  H   H3134     1.0  0.55101  0.96764  0.16894  1.0000
  H   H3135     1.0  0.62324  0.99127  0.06929  1.0000
  C   C1844     1.0  0.51548  0.71222  0.11462  1.0000
  H   H3136     1.0  0.53804  0.78035  0.12855  1.0000
  H   H3137     1.0  0.57684  0.78331  0.12544  1.0000
  Fe  Fe264     1.0  0.50795  0.93066  0.09831  1.0000
  H   H3138     1.0  0.72828  0.97623  0.06833  1.0000
  H   H3139     1.0  0.71622  0.95863  0.02429  1.0000
  H   H3140     1.0  0.70090  0.96829  0.00971  1.0000
  H   H3141     1.0  0.50488  0.70257  0.06791  1.0000
  H   H3142     1.0  0.72017  0.98889  0.00746  1.0000
  C   C1845     1.0  0.62762  0.86866  0.99832  1.0000
  H   H3143     1.0  0.52777  0.68330  0.11892  1.0000
  H   H3144     1.0  0.53490  0.67035  0.46680  1.0000
  H   H3145     1.0  0.56893  0.76948  0.11607  1.0000
  H   H3146     1.0  0.54466  0.88356  0.01003  1.0000
  C   C1846     1.0  0.51693  0.69289  0.12567  1.0000
  H   H3147     1.0  0.52303  0.73783  0.08745  1.0000
  S   S526      1.0  0.50251  0.67236  0.39637  1.0000
  C   C1847     1.0  0.50885  0.79337  0.15317  1.0000
  C   C1848     1.0  0.62420  0.86552  0.01887  1.0000
  S   S527      1.0  0.50584  0.92827  0.07136  1.0000
  H   H3148     1.0  0.60101  0.89540  0.00983  1.0000
  C   C1849     1.0  0.56168  0.98814  0.14826  1.0000
  H   H3149     1.0  0.50127  0.97216  0.15188  1.0000
  C   C1850     1.0  0.52127  0.70417  0.08582  1.0000
  S   S528      1.0  0.51426  0.93267  0.14437  1.0000
  H   H3150     1.0  0.51819  0.71972  0.05861  1.0000
  H   H3151     1.0  0.62965  0.85122  0.02423  1.0000
  C   C1851     1.0  0.54052  0.98188  0.12779  1.0000
  H   H3152     1.0  0.50938  0.83699  0.03438  1.0000
  C   C1852     1.0  0.52344  0.83301  0.13077  1.0000
  H   H3153     1.0  0.68663  0.99388  0.15315  1.0000
  H   H3154     1.0  0.52040  0.80966  0.16320  1.0000
  H   H3155     1.0  0.69276  0.96726  0.03302  1.0000
  C   C1853     1.0  0.69670  0.99093  0.05062  1.0000
  Fe  Fe265     1.0  0.51779  0.95297  0.11880  1.0000
  H   H3156     1.0  0.52056  0.69240  0.13844  1.0000
  C   C1854     1.0  0.70850  0.98813  0.01887  1.0000
  H   H3157     1.0  0.53142  0.83923  0.13600  1.0000
  C   C1855     1.0  0.54784  0.78326  0.13457  1.0000
  H   H3158     1.0  0.52833  0.69680  0.06006  1.0000
  H   H3159     1.0  0.52186  0.88032  0.01798  1.0000
  H   H3160     1.0  0.53526  0.70589  0.08382  1.0000
  H   H3161     1.0  0.53763  0.68994  0.48536  1.0000
  N   N133      1.0  0.58687  0.92771  0.13160  1.0000
  C   C1856     1.0  0.58127  0.91322  0.14724  1.0000
  C   C1857     1.0  0.60295  0.91894  0.11944  1.0000
  C   C1858     1.0  0.57152  0.93554  0.12197  1.0000
  C   C1859     1.0  0.59091  0.94159  0.13892  1.0000
  C   C1860     1.0  0.56327  0.91866  0.16004  1.0000
  C   C1861     1.0  0.61972  0.91025  0.12753  1.0000
  C   C1862     1.0  0.57587  0.94564  0.10239  1.0000
  C   C1863     1.0  0.59920  0.95667  0.12546  1.0000
  H   H3162     1.0  0.58030  0.90154  0.14250  1.0000
  H   H3163     1.0  0.59145  0.90794  0.15573  1.0000
  H   H3164     1.0  0.60726  0.92842  0.10697  1.0000
  H   H3165     1.0  0.59942  0.90840  0.11486  1.0000
  H   H3166     1.0  0.56503  0.92478  0.12163  1.0000
  H   H3167     1.0  0.56087  0.94484  0.12930  1.0000
  H   H3168     1.0  0.57849  0.94849  0.14679  1.0000
  H   H3169     1.0  0.59948  0.93540  0.14898  1.0000
  H   H3170     1.0  0.55179  0.92264  0.15328  1.0000
  H   H3171     1.0  0.56080  0.90687  0.17086  1.0000
  H   H3172     1.0  0.56335  0.92941  0.16650  1.0000
  H   H3173     1.0  0.62418  0.91995  0.13229  1.0000
  H   H3174     1.0  0.61761  0.89848  0.13845  1.0000
  H   H3175     1.0  0.63089  0.90527  0.11701  1.0000
  H   H3176     1.0  0.58385  0.95574  0.10035  1.0000
  H   H3177     1.0  0.56312  0.95291  0.09811  1.0000
  H   H3178     1.0  0.58273  0.93616  0.09340  1.0000
  H   H3179     1.0  0.58861  0.96803  0.12092  1.0000
  H   H3180     1.0  0.60891  0.95233  0.11380  1.0000
  H   H3181     1.0  0.60701  0.96172  0.13212  1.0000
  H   H3182     1.0  0.52982  0.78649  0.16752  1.0000
  H   H3183     1.0  0.56508  0.80998  0.13487  1.0000
  H   H3184     1.0  0.51060  0.83186  0.14037  1.0000
  C   C1864     1.0  0.50937  0.73550  0.08887  1.0000
  H   H3185     1.0  0.55000  0.77167  0.14586  1.0000
  C   C1865     1.0  0.51763  0.70629  0.06715  1.0000
  H   H3186     1.0  0.65881  0.87967  0.99664  1.0000
  C   C1866     1.0  0.60364  0.89516  0.99542  1.0000
  S   S529      1.0  0.50541  0.84932  0.06671  1.0000
  C   C1867     1.0  0.73465  0.98380  0.05535  1.0000
  H   H3187     1.0  0.67359  0.99509  0.03816  1.0000
  C   C1868     1.0  0.54134  0.67557  0.48956  1.0000
  H   H3188     1.0  0.50182  0.69175  0.49383  1.0000
  H   H3189     1.0  0.74944  0.97953  0.05359  1.0000
  H   H3190     1.0  0.61977  0.86050  0.99529  1.0000
  H   H3191     1.0  0.68224  0.85947  0.80192  1.0000
  H   H3192     1.0  0.53359  0.98681  0.82295  1.0000
  C   C1869     1.0  0.53289  0.94381  0.86348  1.0000
  Fe  Fe266     1.0  0.69547  0.91414  0.76748  1.0000
  S   S530      1.0  0.70042  0.91647  0.73800  1.0000
  S   S531      1.0  0.70153  0.88712  0.78464  1.0000
  Fe  Fe267     1.0  0.67789  0.95287  0.76611  1.0000
  S   S532      1.0  0.68171  0.95901  0.73620  1.0000
  S   S533      1.0  0.66516  0.97431  0.78215  1.0000
  Fe  Fe268     1.0  0.67280  0.93336  0.74042  1.0000
  S   S534      1.0  0.65248  0.93184  0.72625  1.0000
  Fe  Fe269     1.0  0.70914  0.94158  0.73645  1.0000
  S   S535      1.0  0.66684  0.92855  0.77016  1.0000
  S   S536      1.0  0.70628  0.93795  0.76600  1.0000
  C   C1870     1.0  0.65445  0.89254  0.98766  1.0000
  S   S537      1.0  0.71162  0.81845  0.90488  1.0000
  S   S538      1.0  0.69962  0.85787  0.88000  1.0000
  Fe  Fe270     1.0  0.70754  0.84719  0.90652  1.0000
  S   S539      1.0  0.68924  0.85905  0.92950  1.0000
  Fe  Fe271     1.0  0.70620  0.82938  0.87717  1.0000
  S   S540      1.0  0.68719  0.81812  0.86852  1.0000
  S   S541      1.0  0.73494  0.82925  0.86393  1.0000
  Fe  Fe272     1.0  0.66596  0.97788  0.96649  1.0000
  S   S542      1.0  0.68939  0.97698  0.94322  1.0000
  H   H3193     1.0  0.72591  0.94965  0.89935  1.0000
  Fe  Fe273     1.0  0.64683  0.95784  0.95153  1.0000
  S   S543      1.0  0.66863  0.95590  0.92720  1.0000
  S   S544      1.0  0.62225  0.94708  0.95459  1.0000
  Fe  Fe274     1.0  0.68717  0.94858  0.94607  1.0000
  Fe  Fe275     1.0  0.66854  0.98410  0.92660  1.0000
  C   C1871     1.0  0.63296  0.88444  0.83058  1.0000
  S   S545      1.0  0.66536  0.94866  0.97081  1.0000
  S   S546      1.0  0.64516  0.98701  0.94947  1.0000
  Fe  Fe276     1.0  0.65236  0.79344  0.76451  1.0000
  S   S547      1.0  0.62535  0.81126  0.77117  1.0000
  S   S548      1.0  0.65951  0.77096  0.74914  1.0000
  Fe  Fe277     1.0  0.67041  0.81346  0.78081  1.0000
  S   S549      1.0  0.64498  0.83315  0.78795  1.0000
  S   S550      1.0  0.69563  0.81626  0.78729  1.0000
  Fe  Fe278     1.0  0.63240  0.80931  0.79741  1.0000
  S   S551      1.0  0.61456  0.80681  0.82484  1.0000
  Fe  Fe279     1.0  0.64034  0.83361  0.76130  1.0000
  S   S552      1.0  0.62866  0.85809  0.74280  1.0000
  S   S553      1.0  0.65822  0.78930  0.79188  1.0000
  S   S554      1.0  0.66697  0.81608  0.75290  1.0000
  Fe  Fe280     1.0  0.56347  0.89753  0.90861  1.0000
  S   S555      1.0  0.58365  0.90642  0.88424  1.0000
  S   S556      1.0  0.53720  0.91325  0.92087  1.0000
  Fe  Fe281     1.0  0.58571  0.86011  0.91626  1.0000
  S   S557      1.0  0.60747  0.86545  0.89218  1.0000
  S   S558      1.0  0.58702  0.83389  0.93620  1.0000
  Fe  Fe282     1.0  0.60407  0.89117  0.90050  1.0000
  S   S559      1.0  0.62929  0.89937  0.89958  1.0000
  Fe  Fe283     1.0  0.58521  0.88005  0.87792  1.0000
  S   S560      1.0  0.58617  0.88111  0.84909  1.0000
  S   S561      1.0  0.58381  0.88501  0.92553  1.0000
  S   S562      1.0  0.56353  0.87216  0.90118  1.0000
  Fe  Fe284     1.0  0.62265  0.73968  0.68074  1.0000
  S   S563      1.0  0.60309  0.72243  0.68381  1.0000
  S   S564      1.0  0.61470  0.76065  0.69789  1.0000
  Fe  Fe285     1.0  0.64954  0.72084  0.65307  1.0000
  S   S565      1.0  0.63281  0.70145  0.65473  1.0000
  S   S566      1.0  0.67649  0.72067  0.63467  1.0000
  Fe  Fe286     1.0  0.61035  0.72536  0.65396  1.0000
  S   S567      1.0  0.58973  0.72806  0.63763  1.0000
  Fe  Fe287     1.0  0.62708  0.69995  0.68402  1.0000
  H   H3194     1.0  0.71868  0.87917  0.74598  1.0000
  S   S568      1.0  0.62739  0.74519  0.65064  1.0000
  S   S569      1.0  0.64628  0.71676  0.68275  1.0000
  H   H3195     1.0  0.57064  0.68463  0.66171  1.0000
  S   S570      1.0  0.55569  0.68644  0.56573  1.0000
  S   S571      1.0  0.60460  0.69176  0.57129  1.0000
  H   H3196     1.0  0.72854  0.75427  0.81876  1.0000
  H   H3197     1.0  0.64085  0.69740  0.72198  1.0000
  C   C1872     1.0  0.71955  0.73046  0.63495  1.0000
  Fe  Fe288     1.0  0.73993  0.82071  0.89174  1.0000
  H   H3198     1.0  0.64596  0.79477  0.70211  1.0000
  S   S572      1.0  0.68516  0.69365  0.56448  1.0000
  H   H3199     1.0  0.64902  0.71353  0.77659  1.0000
  H   H3200     1.0  0.52024  0.92958  0.88892  1.0000
  H   H3201     1.0  0.72898  0.89027  0.89197  1.0000
  C   C1873     1.0  0.59376  0.71639  0.62027  1.0000
  C   C1874     1.0  0.57967  0.71744  0.61212  1.0000
  C   C1875     1.0  0.58255  0.70891  0.59783  1.0000
  C   C1876     1.0  0.59963  0.69943  0.59141  1.0000
  C   C1877     1.0  0.61356  0.69777  0.60003  1.0000
  C   C1878     1.0  0.61062  0.70611  0.61446  1.0000
  H   H3202     1.0  0.56651  0.72518  0.61666  1.0000
  H   H3203     1.0  0.57171  0.71034  0.59127  1.0000
  H   H3204     1.0  0.62682  0.69053  0.59511  1.0000
  H   H3205     1.0  0.62153  0.70507  0.62070  1.0000
  C   C1879     1.0  0.67799  0.71480  0.61443  1.0000
  C   C1880     1.0  0.69369  0.71528  0.60133  1.0000
  C   C1881     1.0  0.69589  0.70896  0.58583  1.0000
  C   C1882     1.0  0.68221  0.70242  0.58330  1.0000
  C   C1883     1.0  0.66619  0.70264  0.59600  1.0000
  C   C1884     1.0  0.66402  0.70901  0.61146  1.0000
  H   H3206     1.0  0.70421  0.72047  0.60320  1.0000
  H   H3207     1.0  0.70817  0.70919  0.57582  1.0000
  H   H3208     1.0  0.56736  0.88855  0.98552  1.0000
  H   H3209     1.0  0.55165  0.85975  0.95227  1.0000
  H   H3210     1.0  0.66990  0.82948  0.92421  1.0000
  H   H3211     1.0  0.64136  0.87699  0.94583  1.0000
  H   H3212     1.0  0.54166  0.84620  0.97287  1.0000
  C   C1885     1.0  0.58780  0.83696  0.95708  1.0000
  H   H3213     1.0  0.63095  0.85801  0.70657  1.0000
  H   H3214     1.0  0.64732  0.84112  0.67330  1.0000
  C   C1886     1.0  0.59574  0.85039  0.95791  1.0000
  C   C1887     1.0  0.66180  0.83113  0.91413  1.0000
  H   H3215     1.0  0.60273  0.85780  0.94590  1.0000
  C   C1888     1.0  0.64680  0.76837  0.73500  1.0000
  C   C1889     1.0  0.65533  0.75830  0.72179  1.0000
  C   C1890     1.0  0.64567  0.75564  0.71044  1.0000
  C   C1891     1.0  0.62734  0.76305  0.71221  1.0000
  C   C1892     1.0  0.61883  0.77319  0.72537  1.0000
  C   C1893     1.0  0.62847  0.77576  0.73678  1.0000
  H   H3216     1.0  0.66953  0.75262  0.72026  1.0000
  H   H3217     1.0  0.65245  0.74805  0.70018  1.0000
  H   H3218     1.0  0.60466  0.77902  0.72682  1.0000
  H   H3219     1.0  0.62169  0.78335  0.74704  1.0000
  C   C1894     1.0  0.60598  0.82743  0.83161  1.0000
  C   C1895     1.0  0.60370  0.84348  0.81897  1.0000
  C   C1896     1.0  0.59725  0.85985  0.82449  1.0000
  C   C1897     1.0  0.59326  0.86031  0.84267  1.0000
  C   C1898     1.0  0.59535  0.84429  0.85536  1.0000
  C   C1899     1.0  0.60155  0.82787  0.84983  1.0000
  H   H3220     1.0  0.60667  0.84324  0.80492  1.0000
  H   H3221     1.0  0.59551  0.87218  0.81462  1.0000
  H   H3222     1.0  0.59217  0.84452  0.86942  1.0000
  H   H3223     1.0  0.60316  0.81549  0.85966  1.0000
  C   C1900     1.0  0.62403  0.93444  0.93876  1.0000
  C   C1901     1.0  0.60858  0.93173  0.93529  1.0000
  C   C1902     1.0  0.60999  0.92080  0.92342  1.0000
  C   C1903     1.0  0.62689  0.91256  0.91500  1.0000
  C   C1904     1.0  0.64226  0.91528  0.91845  1.0000
  C   C1905     1.0  0.64082  0.92613  0.93031  1.0000
  H   H3224     1.0  0.59551  0.93815  0.94174  1.0000
  H   H3225     1.0  0.59803  0.91896  0.92062  1.0000
  H   H3226     1.0  0.65531  0.90865  0.91222  1.0000
  H   H3227     1.0  0.65272  0.92750  0.93340  1.0000
  C   C1906     1.0  0.68975  0.81787  0.84587  1.0000
  C   C1907     1.0  0.70309  0.82502  0.83270  1.0000
  C   C1908     1.0  0.70482  0.82452  0.81472  1.0000
  C   C1909     1.0  0.69319  0.81692  0.80984  1.0000
  C   C1910     1.0  0.67984  0.80979  0.82303  1.0000
  C   C1911     1.0  0.67820  0.81017  0.84100  1.0000
  H   H3228     1.0  0.71207  0.83093  0.83636  1.0000
  H   H3229     1.0  0.71506  0.83023  0.80457  1.0000
  H   H3230     1.0  0.67075  0.80394  0.81941  1.0000
  H   H3231     1.0  0.66783  0.80461  0.85110  1.0000
  S   S573      1.0  0.73075  0.67168  0.57919  1.0000
  C   C1912     1.0  0.71358  0.87755  0.93127  1.0000
  C   C1913     1.0  0.71825  0.89218  0.93447  1.0000
  H   H3232     1.0  0.74794  0.83710  0.73584  1.0000
  H   H3233     1.0  0.74989  0.89225  0.89468  1.0000
  C   C1914     1.0  0.53630  0.93623  0.91679  1.0000
  C   C1915     1.0  0.54986  0.94387  0.90448  1.0000
  C   C1916     1.0  0.54867  0.96236  0.90102  1.0000
  C   C1917     1.0  0.53417  0.97313  0.91030  1.0000
  C   C1918     1.0  0.52070  0.96548  0.92275  1.0000
  C   C1919     1.0  0.52162  0.94708  0.92578  1.0000
  H   H3234     1.0  0.56121  0.93563  0.89753  1.0000
  H   H3235     1.0  0.55907  0.96823  0.89136  1.0000
  H   H3236     1.0  0.60637  0.71916  0.74144  1.0000
  H   H3237     1.0  0.68841  0.69681  0.72156  1.0000
  H   H3238     1.0  0.66087  0.90247  0.98978  1.0000
  C   C1920     1.0  0.71211  0.88572  0.80183  1.0000
  C   C1921     1.0  0.71904  0.86961  0.83042  1.0000
  C   C1922     1.0  0.71161  0.87092  0.81593  1.0000
  C   C1923     1.0  0.71054  0.85404  0.75718  1.0000
  H   H3239     1.0  0.70516  0.86061  0.81578  1.0000
  C   C1924     1.0  0.64416  0.97340  0.79649  1.0000
  H   H3240     1.0  0.64414  0.94663  0.79538  1.0000
  C   C1925     1.0  0.64671  0.91087  0.73122  1.0000
  C   C1926     1.0  0.63458  0.90877  0.72234  1.0000
  C   C1927     1.0  0.62925  0.89248  0.72613  1.0000
  C   C1928     1.0  0.63608  0.87808  0.73874  1.0000
  C   C1929     1.0  0.64839  0.87999  0.74763  1.0000
  C   C1930     1.0  0.65369  0.89647  0.74388  1.0000
  H   H3241     1.0  0.62932  0.91974  0.71242  1.0000
  H   H3242     1.0  0.61978  0.89105  0.71922  1.0000
  H   H3243     1.0  0.65374  0.86886  0.75737  1.0000
  H   H3244     1.0  0.66314  0.89800  0.75075  1.0000
  N   N134      1.0  0.64612  0.82271  0.69892  1.0000
  Fe  Fe289     1.0  0.72886  0.85699  0.86907  1.0000
  H   H3245     1.0  0.51319  0.87115  0.97360  1.0000
  C   C1931     1.0  0.63470  0.82366  0.93624  1.0000
  H   H3246     1.0  0.56691  0.90661  0.96610  1.0000
  H   H3247     1.0  0.62694  0.67634  0.53588  1.0000
  H   H3248     1.0  0.62202  0.96008  0.71647  1.0000
  C   C1932     1.0  0.69555  0.87709  0.93358  1.0000
  H   H3249     1.0  0.50363  0.92422  0.97419  1.0000
  H   H3250     1.0  0.67295  0.82411  0.68335  1.0000
  H   H3251     1.0  0.69036  0.80378  0.70464  1.0000
  H   H3252     1.0  0.50799  0.90973  0.95918  1.0000
  C   C1933     1.0  0.51851  0.89769  0.98389  1.0000
  N   N135      1.0  0.53319  0.88229  0.97862  1.0000
  H   H3253     1.0  0.57415  0.92336  0.82289  1.0000
  H   H3254     1.0  0.73221  0.89248  0.93261  1.0000
  C   C1934     1.0  0.65917  0.79995  0.92616  1.0000
  H   H3255     1.0  0.65022  0.67087  0.53612  1.0000
  H   H3256     1.0  0.71487  0.90802  0.86823  1.0000
  N   N136      1.0  0.64036  0.95847  0.86310  1.0000
  C   C1935     1.0  0.64653  0.95242  0.84559  1.0000
  C   C1936     1.0  0.62907  0.97716  0.85998  1.0000
  C   C1937     1.0  0.62926  0.94640  0.87684  1.0000
  C   C1938     1.0  0.65658  0.95788  0.86990  1.0000
  C   C1939     1.0  0.65645  0.93272  0.84630  1.0000
  H   H3257     1.0  0.59775  0.77311  0.56218  1.0000
  C   C1940     1.0  0.61282  0.94401  0.87145  1.0000
  C   C1941     1.0  0.65276  0.96381  0.88779  1.0000
  H   H3258     1.0  0.63503  0.95445  0.83932  1.0000
  H   H3259     1.0  0.65561  0.96072  0.83582  1.0000
  H   H3260     1.0  0.62113  0.98095  0.87274  1.0000
  H   H3261     1.0  0.61881  0.97796  0.85239  1.0000
  H   H3262     1.0  0.63766  0.93295  0.88068  1.0000
  H   H3263     1.0  0.62406  0.95140  0.88949  1.0000
  H   H3264     1.0  0.66465  0.94402  0.87219  1.0000
  H   H3265     1.0  0.66594  0.96562  0.85975  1.0000
  H   H3266     1.0  0.65972  0.93008  0.83261  1.0000
  H   H3267     1.0  0.66935  0.92982  0.85055  1.0000
  H   H3268     1.0  0.64810  0.92320  0.85491  1.0000
  H   H3269     1.0  0.74881  0.88542  0.73516  1.0000
  H   H3270     1.0  0.60568  0.93510  0.88276  1.0000
  H   H3271     1.0  0.61656  0.93760  0.85979  1.0000
  H   H3272     1.0  0.60314  0.95684  0.86878  1.0000
  H   H3273     1.0  0.65328  0.95196  0.89899  1.0000
  H   H3274     1.0  0.63955  0.97273  0.89081  1.0000
  H   H3275     1.0  0.66283  0.97137  0.88754  1.0000
  C   C1942     1.0  0.64430  0.80743  0.69195  1.0000
  H   H3276     1.0  0.60468  0.75255  0.55393  1.0000
  H   H3277     1.0  0.52216  0.96939  0.82556  1.0000
  H   H3278     1.0  0.72381  0.69403  0.68618  1.0000
  C   C1943     1.0  0.61438  0.70801  0.73486  1.0000
  H   H3279     1.0  0.62572  0.81948  0.67350  1.0000
  C   C1944     1.0  0.63456  0.70816  0.72964  1.0000
  C   C1945     1.0  0.56370  0.93206  0.84874  1.0000
  H   H3280     1.0  0.66677  0.79951  0.93628  1.0000
  H   H3281     1.0  0.65567  0.69746  0.59408  1.0000
  H   H3282     1.0  0.52474  0.88396  0.95417  1.0000
  H   H3283     1.0  0.73455  0.67741  0.64093  1.0000
  C   C1946     1.0  0.63401  0.89921  0.99175  1.0000
  H   H3284     1.0  0.67091  0.79977  0.72105  1.0000
  H   H3285     1.0  0.63749  0.98648  0.76054  1.0000
  S   S574      1.0  0.54944  0.68265  0.51830  1.0000
  H   H3286     1.0  0.71754  0.69675  0.64012  1.0000
  H   H3287     1.0  0.65440  0.73214  0.75870  1.0000
  H   H3288     1.0  0.74315  0.92388  0.74851  1.0000
  C   C1947     1.0  0.64151  0.82548  0.95207  1.0000
  H   H3289     1.0  0.60994  0.83552  0.71254  1.0000
  H   H3290     1.0  0.74388  0.87622  0.70987  1.0000
  C   C1948     1.0  0.61628  0.82546  0.72284  1.0000
  C   C1949     1.0  0.66533  0.87160  0.83209  1.0000
  C   C1950     1.0  0.63420  0.90427  0.82329  1.0000
  C   C1951     1.0  0.66114  0.87650  0.85058  1.0000
  H   H3291     1.0  0.65807  0.88864  0.79962  1.0000
  H   H3292     1.0  0.67310  0.88142  0.82278  1.0000
  H   H3293     1.0  0.62373  0.91267  0.83176  1.0000
  H   H3294     1.0  0.64738  0.90671  0.82316  1.0000
  H   H3295     1.0  0.63171  0.90883  0.80950  1.0000
  H   H3296     1.0  0.65446  0.89072  0.85014  1.0000
  H   H3297     1.0  0.65291  0.86812  0.86117  1.0000
  H   H3298     1.0  0.67008  0.69459  0.71395  1.0000
  S   S575      1.0  0.58206  0.99444  0.87471  1.0000
  H   H3299     1.0  0.74036  0.81588  0.75988  1.0000
  H   H3300     1.0  0.64685  0.67723  0.74806  1.0000
  H   H3301     1.0  0.64577  0.68401  0.78397  1.0000
  H   H3302     1.0  0.72433  0.86409  0.73133  1.0000
  C   C1952     1.0  0.59061  0.96478  0.78115  1.0000
  H   H3303     1.0  0.65029  0.98983  0.73837  1.0000
  H   H3304     1.0  0.74702  0.68549  0.60895  1.0000
  H   H3305     1.0  0.61171  0.69502  0.74324  1.0000
  C   C1953     1.0  0.59598  0.91442  0.98621  1.0000
  C   C1954     1.0  0.55025  0.88812  0.96805  1.0000
  C   C1955     1.0  0.71409  0.95639  0.89327  1.0000
  H   H3306     1.0  0.58972  0.96488  0.79532  1.0000
  H   H3307     1.0  0.62105  0.71679  0.76398  1.0000
  H   H3308     1.0  0.61166  0.97895  0.77482  1.0000
  H   H3309     1.0  0.73501  0.83052  0.77484  1.0000
  C   C1956     1.0  0.73151  0.91795  0.88960  1.0000
  Fe  Fe290     1.0  0.58525  0.67840  0.56546  1.0000
  C   C1957     1.0  0.73923  0.89860  0.88689  1.0000
  C   C1958     1.0  0.61778  0.98800  0.81527  1.0000
  H   H3310     1.0  0.62477  0.72113  0.55420  1.0000
  H   H3311     1.0  0.73562  0.90749  0.81616  1.0000
  H   H3312     1.0  0.58230  0.94214  0.82424  1.0000
  C   C1959     1.0  0.73136  0.78237  0.85895  1.0000
  H   H3313     1.0  0.50944  0.97382  0.92986  1.0000
  H   H3314     1.0  0.60057  0.86493  0.97473  1.0000
  C   C1960     1.0  0.53664  0.86800  0.99498  1.0000
  H   H3315     1.0  0.66250  0.72153  0.72728  1.0000
  N   N137      1.0  0.61165  0.97198  0.75012  1.0000
  C   C1961     1.0  0.60922  0.96788  0.77022  1.0000
  H   H3316     1.0  0.61327  0.88950  0.96462  1.0000
  H   H3317     1.0  0.50303  0.67591  0.52078  1.0000
  S   S576      1.0  0.73511  0.68309  0.53538  1.0000
  H   H3318     1.0  0.56880  0.93879  0.85650  1.0000
  H   H3319     1.0  0.56089  0.87631  0.96509  1.0000
  H   H3320     1.0  0.73286  0.85728  0.77735  1.0000
  H   H3321     1.0  0.55358  0.96699  0.84317  1.0000
  H   H3322     1.0  0.61926  0.95577  0.77470  1.0000
  C   C1962     1.0  0.54733  0.96098  0.83578  1.0000
  C   C1963     1.0  0.73900  0.92898  0.84777  1.0000
  C   C1964     1.0  0.60895  0.95796  0.72509  1.0000
  H   H3323     1.0  0.61773  0.94384  0.74955  1.0000
  H   H3324     1.0  0.74696  0.73535  0.58798  1.0000
  H   H3325     1.0  0.58976  0.68645  0.64420  1.0000
  C   C1965     1.0  0.63363  0.72033  0.75513  1.0000
  H   H3326     1.0  0.74309  0.92437  0.88718  1.0000
  H   H3327     1.0  0.58863  0.95148  0.78105  1.0000
  H   H3328     1.0  0.52164  0.91960  0.87096  1.0000
  C   C1966     1.0  0.72432  0.86493  0.74507  1.0000
  H   H3329     1.0  0.63422  0.86098  0.96516  1.0000
  H   H3330     1.0  0.71775  0.96655  0.88111  1.0000
  H   H3331     1.0  0.62543  0.73681  0.60923  1.0000
  H   H3332     1.0  0.65279  0.87076  0.96389  1.0000
  H   H3333     1.0  0.67590  0.68044  0.73459  1.0000
  N   N138      1.0  0.54539  0.94226  0.84570  1.0000
  S   S577      1.0  0.58956  0.97204  0.83400  1.0000
  S   S578      1.0  0.73642  0.84855  0.89576  1.0000
  N   N139      1.0  0.63172  0.75175  0.57190  1.0000
  C   C1967     1.0  0.61928  0.75979  0.58717  1.0000
  C   C1968     1.0  0.62711  0.76385  0.55485  1.0000
  C   C1969     1.0  0.65063  0.75153  0.57266  1.0000
  C   C1970     1.0  0.62899  0.73309  0.57433  1.0000
  C   C1971     1.0  0.62361  0.75153  0.60585  1.0000
  C   C1972     1.0  0.66569  0.74599  0.55712  1.0000
  C   C1973     1.0  0.63607  0.72400  0.55805  1.0000
  H   H3334     1.0  0.61891  0.77437  0.58471  1.0000
  H   H3335     1.0  0.60523  0.75868  0.58846  1.0000
  H   H3336     1.0  0.63616  0.75960  0.54281  1.0000
  H   H3337     1.0  0.62905  0.77754  0.55377  1.0000
  H   H3338     1.0  0.65166  0.76499  0.57359  1.0000
  H   H3339     1.0  0.65443  0.74214  0.58488  1.0000
  H   H3340     1.0  0.63508  0.72406  0.58542  1.0000
  H   H3341     1.0  0.61446  0.73282  0.57874  1.0000
  H   H3342     1.0  0.68297  0.67793  0.65867  1.0000
  H   H3343     1.0  0.63561  0.75535  0.60724  1.0000
  H   H3344     1.0  0.61222  0.75678  0.61604  1.0000
  H   H3345     1.0  0.66714  0.73189  0.55655  1.0000
  H   H3346     1.0  0.67864  0.74678  0.55955  1.0000
  H   H3347     1.0  0.66426  0.75496  0.54404  1.0000
  H   H3348     1.0  0.64500  0.71083  0.56184  1.0000
  H   H3349     1.0  0.64368  0.73144  0.54599  1.0000
  C   C1974     1.0  0.63925  0.99213  0.84968  1.0000
  H   H3350     1.0  0.73733  0.77866  0.90807  1.0000
  N   N140      1.0  0.71782  0.92952  0.87885  1.0000
  H   H3351     1.0  0.57404  0.81593  0.97241  1.0000
  C   C1975     1.0  0.63987  0.82008  0.90550  1.0000
  C   C1976     1.0  0.62892  0.80576  0.90827  1.0000
  H   H3352     1.0  0.62537  0.83640  0.93207  1.0000
  H   H3353     1.0  0.62608  0.81362  0.94177  1.0000
  H   H3354     1.0  0.64961  0.82005  0.89251  1.0000
  H   H3355     1.0  0.63038  0.83313  0.90330  1.0000
  H   H3356     1.0  0.62237  0.80872  0.89672  1.0000
  H   H3357     1.0  0.63746  0.79216  0.90883  1.0000
  H   H3358     1.0  0.61806  0.80592  0.92039  1.0000
  H   H3359     1.0  0.67567  0.77687  0.91544  1.0000
  H   H3360     1.0  0.71621  0.73323  0.62161  1.0000
  H   H3361     1.0  0.59524  0.88634  0.99442  1.0000
  H   H3362     1.0  0.73376  0.74619  0.85671  1.0000
  H   H3363     1.0  0.52141  0.97866  0.84446  1.0000
  C   C1977     1.0  0.72432  0.77512  0.83387  1.0000
  C   C1978     1.0  0.71633  0.77515  0.87368  1.0000
  H   H3364     1.0  0.58888  0.66961  0.68404  1.0000
  H   H3365     1.0  0.64724  0.85420  0.89719  1.0000
  H   H3366     1.0  0.63013  0.90145  0.96069  1.0000
  H   H3367     1.0  0.51694  0.98327  0.87664  1.0000
  H   H3368     1.0  0.60944  0.70987  0.72248  1.0000
  H   H3369     1.0  0.62933  0.73314  0.74583  1.0000
  H   H3370     1.0  0.71331  0.69406  0.66899  1.0000
  H   H3371     1.0  0.59040  0.92026  0.83587  1.0000
  H   H3372     1.0  0.74213  0.78233  0.86563  1.0000
  H   H3373     1.0  0.71356  0.76819  0.84246  1.0000
  H   H3374     1.0  0.71718  0.78928  0.83114  1.0000
  H   H3375     1.0  0.70407  0.77693  0.86858  1.0000
  H   H3376     1.0  0.72064  0.76098  0.88017  1.0000
  H   H3377     1.0  0.70424  0.96385  0.90300  1.0000
  H   H3378     1.0  0.72586  0.91669  0.90415  1.0000
  S   S579      1.0  0.73688  0.88073  0.84893  1.0000
  H   H3379     1.0  0.69719  0.86054  0.75391  1.0000
  H   H3380     1.0  0.58137  0.91780  0.99174  1.0000
  H   H3381     1.0  0.74068  0.80244  0.81366  1.0000
  C   C1979     1.0  0.62597  0.88886  0.96853  1.0000
  C   C1980     1.0  0.59518  0.67611  0.67051  1.0000
  H   H3382     1.0  0.73214  0.92034  0.84421  1.0000
  H   H3383     1.0  0.72019  0.77669  0.80745  1.0000
  H   H3384     1.0  0.70975  0.72346  0.64502  1.0000
  H   H3385     1.0  0.66992  0.70859  0.74659  1.0000
  H   H3386     1.0  0.66696  0.84936  0.79690  1.0000
  C   C1981     1.0  0.70492  0.90658  0.93966  1.0000
  C   C1982     1.0  0.60787  0.76570  0.55260  1.0000
  H   H3387     1.0  0.62876  0.88241  0.84533  1.0000
  H   H3388     1.0  0.67499  0.85848  0.83288  1.0000
  H   H3389     1.0  0.67397  0.87459  0.85475  1.0000
  H   H3390     1.0  0.66876  0.67568  0.63815  1.0000
  H   H3391     1.0  0.67422  0.86806  0.78157  1.0000
  Fe  Fe291     1.0  0.71327  0.67774  0.55938  1.0000
  C   C1983     1.0  0.68227  0.89128  0.93925  1.0000
  C   C1984     1.0  0.72083  0.89892  0.80182  1.0000
  H   H3392     1.0  0.72174  0.91013  0.79071  1.0000
  C   C1985     1.0  0.63677  0.95826  0.80063  1.0000
  C   C1986     1.0  0.72769  0.88275  0.83057  1.0000
  H   H3393     1.0  0.65163  0.70925  0.62109  1.0000
  H   H3394     1.0  0.67619  0.79193  0.70043  1.0000
  N   N141      1.0  0.64964  0.87104  0.82491  1.0000
  C   C1987     1.0  0.65443  0.87530  0.80473  1.0000
  H   H3395     1.0  0.62147  0.88255  0.82616  1.0000
  H   H3396     1.0  0.66391  0.85906  0.90539  1.0000
  H   H3397     1.0  0.66835  0.89116  0.94083  1.0000
  C   C1988     1.0  0.72875  0.89738  0.81619  1.0000
  H   H3398     1.0  0.74699  0.71289  0.57128  1.0000
  H   H3399     1.0  0.68605  0.79602  0.90885  1.0000
  H   H3400     1.0  0.64273  0.87603  0.79901  1.0000
  C   C1989     1.0  0.55865  0.89815  0.97677  1.0000
  H   H3401     1.0  0.69426  0.95079  0.88260  1.0000
  H   H3402     1.0  0.71817  0.71459  0.67111  1.0000
  C   C1990     1.0  0.53793  0.93414  0.83479  1.0000
  C   C1991     1.0  0.65406  0.68086  0.77108  1.0000
  C   C1992     1.0  0.52909  0.92630  0.87629  1.0000
  H   H3403     1.0  0.62982  0.82882  0.96287  1.0000
  C   C1993     1.0  0.67615  0.80305  0.70647  1.0000
  H   H3404     1.0  0.53806  0.95091  0.87083  1.0000
  C   C1994     1.0  0.67037  0.86220  0.79601  1.0000
  H   H3405     1.0  0.61426  0.94627  0.81512  1.0000
  H   H3406     1.0  0.66879  0.79482  0.89859  1.0000
  H   H3407     1.0  0.71739  0.74379  0.63813  1.0000
  C   C1995     1.0  0.68694  0.90593  0.94233  1.0000
  S   S580      1.0  0.53236  0.99625  0.90592  1.0000
  H   H3408     1.0  0.59787  0.96847  0.72034  1.0000
  H   H3409     1.0  0.74337  0.93836  0.83517  1.0000
  H   H3410     1.0  0.72394  0.86656  0.92718  1.0000
  C   C1996     1.0  0.61982  0.95808  0.81186  1.0000
  S   S581      1.0  0.71083  0.92573  0.94181  1.0000
  H   H3411     1.0  0.55405  0.69002  0.64135  1.0000
  C   C1997     1.0  0.64358  0.72517  0.76691  1.0000
  H   H3412     1.0  0.71254  0.78300  0.88430  1.0000
  S   S582      1.0  0.62393  0.67417  0.70317  1.0000
  C   C1998     1.0  0.64548  0.85261  0.83060  1.0000
  C   C1999     1.0  0.65330  0.85120  0.90903  1.0000
  N   N142      1.0  0.64892  0.81868  0.92048  1.0000
  H   H3413     1.0  0.65008  0.79056  0.93329  1.0000
  C   C2000     1.0  0.66584  0.82125  0.69759  1.0000
  H   H3414     1.0  0.66796  0.83132  0.70387  1.0000
  H   H3415     1.0  0.69828  0.92764  0.86512  1.0000
  H   H3416     1.0  0.54872  0.90757  0.98438  1.0000
  C   C2001     1.0  0.59498  0.85413  0.97433  1.0000
  H   H3417     1.0  0.63468  0.85205  0.82431  1.0000
  H   H3418     1.0  0.65723  0.84252  0.82588  1.0000
  C   C2002     1.0  0.58436  0.67739  0.65654  1.0000
  H   H3419     1.0  0.61147  0.83132  0.73496  1.0000
  C   C2003     1.0  0.63465  0.98822  0.80392  1.0000
  H   H3420     1.0  0.63142  0.91299  0.98346  1.0000
  H   H3421     1.0  0.54876  0.89618  0.95453  1.0000
  C   C2004     1.0  0.72677  0.93991  0.86148  1.0000
  H   H3422     1.0  0.60650  0.77353  0.53900  1.0000
  H   H3423     1.0  0.51948  0.95195  0.86163  1.0000
  H   H3424     1.0  0.61468  0.81201  0.69643  1.0000
  C   C2005     1.0  0.73197  0.69194  0.63496  1.0000
  H   H3425     1.0  0.67666  0.91675  0.94680  1.0000
  H   H3426     1.0  0.65480  0.66532  0.65695  1.0000
  S   S583      1.0  0.73394  0.94678  0.71593  1.0000
  H   H3427     1.0  0.65520  0.80507  0.68010  1.0000
  C   C2006     1.0  0.70652  0.91901  0.87486  1.0000
  H   H3428     1.0  0.54995  0.85901  0.99204  1.0000
  H   H3429     1.0  0.73538  0.94772  0.86385  1.0000
  H   H3430     1.0  0.52569  0.91932  0.96105  1.0000
  H   H3431     1.0  0.53209  0.85212  0.95360  1.0000
  C   C2007     1.0  0.74266  0.86337  0.76628  1.0000
  C   C2008     1.0  0.67324  0.79168  0.91135  1.0000
  C   C2009     1.0  0.73422  0.69376  0.61473  1.0000
  H   H3432     1.0  0.54514  0.90631  0.85149  1.0000
  H   H3433     1.0  0.61116  0.81305  0.72575  1.0000
  C   C2010     1.0  0.63977  0.85721  0.69329  1.0000
  H   H3434     1.0  0.65345  0.85813  0.69344  1.0000
  H   H3435     1.0  0.66167  0.67426  0.68992  1.0000
  H   H3436     1.0  0.63404  0.73481  0.77471  1.0000
  C   C2011     1.0  0.60816  0.95637  0.74503  1.0000
  H   H3437     1.0  0.65166  0.84210  0.85731  1.0000
  H   H3438     1.0  0.62681  0.79635  0.68288  1.0000
  H   H3439     1.0  0.68156  0.92073  0.89530  1.0000
  H   H3440     1.0  0.67181  0.82773  0.90213  1.0000
  C   C2012     1.0  0.63943  0.84036  0.68726  1.0000
  H   H3441     1.0  0.74623  0.72478  0.61999  1.0000
  H   H3442     1.0  0.64989  0.81284  0.95793  1.0000
  H   H3443     1.0  0.64143  0.83007  0.72452  1.0000
  C   C2013     1.0  0.67469  0.69410  0.72613  1.0000
  S   S584      1.0  0.66212  0.99178  0.98946  1.0000
  H   H3444     1.0  0.71650  0.94988  0.85466  1.0000
  H   H3445     1.0  0.73335  0.70783  0.60751  1.0000
  N   N143      1.0  0.64371  0.70589  0.74481  1.0000
  H   H3446     1.0  0.72559  0.79668  0.85406  1.0000
  C   C2014     1.0  0.64010  0.84530  0.85077  1.0000
  H   H3447     1.0  0.63603  0.83243  0.85278  1.0000
  H   H3448     1.0  0.63481  0.97414  0.72797  1.0000
  C   C2015     1.0  0.63695  0.82145  0.71831  1.0000
  C   C2016     1.0  0.62676  0.80924  0.68599  1.0000
  H   H3449     1.0  0.62545  0.84189  0.68611  1.0000
  H   H3450     1.0  0.64124  0.80786  0.72623  1.0000
  H   H3451     1.0  0.63449  0.86927  0.68377  1.0000
  C   C2017     1.0  0.70539  0.94292  0.88942  1.0000
  H   H3452     1.0  0.55644  0.96083  0.82248  1.0000
  C   C2018     1.0  0.52995  0.97446  0.83214  1.0000
  H   H3453     1.0  0.64892  0.83643  0.94835  1.0000
  H   H3454     1.0  0.71801  0.85840  0.84147  1.0000
  H   H3455     1.0  0.62852  0.85424  0.85745  1.0000
  C   C2019     1.0  0.51390  0.91348  0.96851  1.0000
  H   H3456     1.0  0.69895  0.93599  0.90278  1.0000
  H   H3457     1.0  0.68894  0.90011  0.88772  1.0000
  Fe  Fe292     1.0  0.57749  0.99540  0.84765  1.0000
  H   H3458     1.0  0.64769  0.99434  0.85773  1.0000
  C   C2020     1.0  0.54091  0.91344  0.83883  1.0000
  H   H3459     1.0  0.64327  0.85627  0.92020  1.0000
  C   C2021     1.0  0.58003  0.82650  0.97295  1.0000
  C   C2022     1.0  0.69359  0.91059  0.89116  1.0000
  H   H3460     1.0  0.70014  0.90425  0.90263  1.0000
  H   H3461     1.0  0.54130  0.91699  0.88005  1.0000
  H   H3462     1.0  0.52823  0.90959  0.83940  1.0000
  C   C2023     1.0  0.73946  0.72108  0.63417  1.0000
  C   C2024     1.0  0.64300  0.68753  0.75634  1.0000
  H   H3463     1.0  0.56338  0.91854  0.85704  1.0000
  H   H3464     1.0  0.52325  0.93955  0.83613  1.0000
  H   H3465     1.0  0.54386  0.93820  0.82033  1.0000
  N   N144      1.0  0.74363  0.70101  0.64037  1.0000
  H   H3466     1.0  0.66643  0.68601  0.76787  1.0000
  H   H3467     1.0  0.73788  0.87801  0.76584  1.0000
  C   C2025     1.0  0.52660  0.87430  0.96689  1.0000
  H   H3468     1.0  0.55081  0.90791  0.82778  1.0000
  C   C2026     1.0  0.66263  0.70831  0.73657  1.0000
  H   H3469     1.0  0.72340  0.68877  0.61233  1.0000
  C   C2027     1.0  0.61030  0.97296  0.81923  1.0000
  C   C2028     1.0  0.59859  0.98904  0.74453  1.0000
  C   C2029     1.0  0.72308  0.70000  0.67198  1.0000
  H   H3470     1.0  0.59458  0.95397  0.75179  1.0000
  H   H3471     1.0  0.73868  0.74740  0.90656  1.0000
  C   C2030     1.0  0.57824  0.92948  0.83179  1.0000
  H   H3472     1.0  0.62899  0.68671  0.76329  1.0000
  H   H3473     1.0  0.70486  0.66652  0.66203  1.0000
  H   H3474     1.0  0.60716  0.94516  0.72332  1.0000
  H   H3475     1.0  0.65953  0.89142  0.97356  1.0000
  C   C2031     1.0  0.57330  0.66477  0.63771  1.0000
  H   H3476     1.0  0.63594  0.72101  0.71997  1.0000
  H   H3477     1.0  0.70066  0.67239  0.64003  1.0000
  H   H3478     1.0  0.59769  0.91606  0.97162  1.0000
  C   C2032     1.0  0.74197  0.69579  0.66035  1.0000
  H   H3479     1.0  0.64150  0.67585  0.63009  1.0000
  H   H3480     1.0  0.51100  0.94125  0.93515  1.0000
  H   H3481     1.0  0.59506  0.68989  0.67141  1.0000
  C   C2033     1.0  0.63944  0.87344  0.96064  1.0000
  C   C2034     1.0  0.53888  0.85713  0.96129  1.0000
  H   H3482     1.0  0.64105  0.66473  0.58048  1.0000
  H   H3483     1.0  0.54709  0.67626  0.63119  1.0000
  H   H3484     1.0  0.58493  0.98637  0.74711  1.0000
  C   C2035     1.0  0.75003  0.80031  0.82261  1.0000
  H   H3485     1.0  0.61370  0.99195  0.71583  1.0000
  H   H3486     1.0  0.71364  0.84034  0.75465  1.0000
  H   H3487     1.0  0.64002  0.96065  0.74791  1.0000
  C   C2036     1.0  0.63665  0.98883  0.74637  1.0000
  H   H3488     1.0  0.58045  0.67224  0.62503  1.0000
  C   C2037     1.0  0.63099  0.97323  0.74257  1.0000
  H   H3489     1.0  0.74509  0.72755  0.64169  1.0000
  H   H3490     1.0  0.68970  0.67086  0.61539  1.0000
  N   N145      1.0  0.62318  0.88783  0.98844  1.0000
  H   H3491     1.0  0.60944  0.66952  0.66691  1.0000
  C   C2038     1.0  0.58673  0.84418  0.99016  1.0000
  C   C2039     1.0  0.74553  0.82557  0.76401  1.0000
  H   H3492     1.0  0.57948  0.97544  0.77672  1.0000
  N   N146      1.0  0.74303  0.85934  0.74861  1.0000
  C   C2040     1.0  0.57950  0.83010  0.98955  1.0000
  H   H3493     1.0  0.64751  0.98957  0.83663  1.0000
  H   H3494     1.0  0.70899  0.85350  0.77157  1.0000
  C   C2041     1.0  0.74523  0.75308  0.85160  1.0000
  C   C2042     1.0  0.50246  0.98808  0.88188  1.0000
  H   H3495     1.0  0.60194  0.92438  0.98888  1.0000
  C   C2043     1.0  0.72954  0.76845  0.81625  1.0000
  H   H3496     1.0  0.65872  0.66610  0.77293  1.0000
  C   C2044     1.0  0.55408  0.67591  0.64177  1.0000
  H   H3497     1.0  0.74531  0.89782  0.87284  1.0000
  C   C2045     1.0  0.75018  0.75341  0.90028  1.0000
  Fe  Fe293     1.0  0.56183  0.67208  0.54291  1.0000
  H   H3498     1.0  0.74457  0.80942  0.83210  1.0000
  H   H3499     1.0  0.64187  0.86236  0.99387  1.0000
  H   H3500     1.0  0.74729  0.68118  0.66447  1.0000
  H   H3501     1.0  0.63539  0.99578  0.91090  1.0000
  H   H3502     1.0  0.65533  0.67675  0.56234  1.0000
  H   H3503     1.0  0.52165  0.90356  0.99362  1.0000
  N   N147      1.0  0.73899  0.77263  0.84371  1.0000
  C   C2046     1.0  0.69472  0.66766  0.65418  1.0000
  H   H3504     1.0  0.75024  0.70253  0.66470  1.0000
  H   H3505     1.0  0.50595  0.89288  0.99097  1.0000
  C   C2047     1.0  0.54799  0.66821  0.50531  1.0000
  S   S585      1.0  0.59160  0.66678  0.54085  1.0000
  H   H3506     1.0  0.74296  0.77008  0.80834  1.0000
  C   C2048     1.0  0.63873  0.66508  0.53679  1.0000
  H   H3507     1.0  0.75095  0.75162  0.86340  1.0000
  C   C2049     1.0  0.65987  0.66590  0.70317  1.0000
  H   H3508     1.0  0.54616  0.67000  0.65469  1.0000
  C   C2050     1.0  0.74937  0.77110  0.90108  1.0000
  H   H3509     1.0  0.66315  0.66449  0.58184  1.0000
  H   H3510     1.0  0.89510  0.33009  0.04706  1.0000
  Fe  Fe294     1.0  0.88051  0.06894  0.47348  1.0000
  N   N148      1.0  0.80935  0.06953  0.45411  1.0000
  H   H3511     1.0  0.88374  0.16672  0.42866  1.0000
  C   C2051     1.0  0.79340  0.29739  0.35201  1.0000
  S   S586      1.0  0.79661  0.21180  0.05589  1.0000
  H   H3512     1.0  0.93867  0.30100  0.04597  1.0000
  H   H3513     1.0  0.86301  0.16955  0.46380  1.0000
  H   H3514     1.0  0.88539  0.18071  0.44258  1.0000
  C   C2052     1.0  0.79162  0.09547  0.14813  1.0000
  S   S587      1.0  0.77971  0.16918  0.08245  1.0000
  Fe  Fe295     1.0  0.95799  0.22325  0.19534  1.0000
  H   H3515     1.0  0.75592  0.10552  0.05896  1.0000
  S   S588      1.0  0.95764  0.20114  0.21985  1.0000
  Fe  Fe296     1.0  0.93365  0.24655  0.17077  1.0000
  S   S589      1.0  0.95515  0.25987  0.15217  1.0000
  S   S590      1.0  0.90464  0.25470  0.16958  1.0000
  Fe  Fe297     1.0  0.97262  0.23246  0.15546  1.0000
  Fe  Fe298     1.0  0.96262  0.26100  0.17712  1.0000
  S   S591      1.0  0.96966  0.28667  0.17701  1.0000
  S   S592      1.0  0.95030  0.21884  0.17186  1.0000
  S   S593      1.0  0.93951  0.25001  0.19551  1.0000
  Fe  Fe299     1.0  0.83306  0.30238  0.11493  1.0000
  S   S594      1.0  0.85998  0.30384  0.09754  1.0000
  H   H3516     1.0  0.81117  0.09884  0.16077  1.0000
  Fe  Fe300     1.0  0.82222  0.28635  0.08936  1.0000
  S   S595      1.0  0.84857  0.28672  0.06970  1.0000
  S   S596      1.0  0.79789  0.27720  0.08766  1.0000
  Fe  Fe301     1.0  0.86068  0.27671  0.09404  1.0000
  S   S597      1.0  0.88737  0.25804  0.09538  1.0000
  H   H3517     1.0  0.93152  0.31470  0.11039  1.0000
  S   S598      1.0  0.83466  0.27412  0.11342  1.0000
  Fe  Fe302     1.0  0.79149  0.13910  0.44466  1.0000
  H   H3518     1.0  0.77454  0.20354  0.41664  1.0000
  Fe  Fe303     1.0  0.91116  0.18442  0.34734  1.0000
  S   S599      1.0  0.90475  0.21444  0.34119  1.0000
  S   S600      1.0  0.92199  0.16420  0.36984  1.0000
  Fe  Fe304     1.0  0.89774  0.18229  0.31527  1.0000
  S   S601      1.0  0.88956  0.21191  0.30667  1.0000
  S   S602      1.0  0.89612  0.16249  0.30058  1.0000
  Fe  Fe305     1.0  0.91578  0.21203  0.31247  1.0000
  S   S603      1.0  0.93327  0.22911  0.29190  1.0000
  Fe  Fe306     1.0  0.87927  0.21149  0.33592  1.0000
  S   S604      1.0  0.85168  0.22403  0.34872  1.0000
  S   S605      1.0  0.92467  0.18222  0.31925  1.0000
  S   S606      1.0  0.88501  0.18167  0.34387  1.0000
  H   H3519     1.0  0.90439  0.17258  0.42688  1.0000
  S   S607      1.0  0.95852  0.16415  0.47647  1.0000
  H   H3520     1.0  0.77000  0.20291  0.13640  1.0000
  C   C2053     1.0  0.83878  0.07748  0.43393  1.0000
  S   S608      1.0  0.95258  0.13470  0.45764  1.0000
  C   C2054     1.0  0.77913  0.09021  0.44847  1.0000
  Fe  Fe307     1.0  0.96223  0.16036  0.44865  1.0000
  S   S609      1.0  0.95111  0.18335  0.42797  1.0000
  H   H3521     1.0  0.92997  0.02838  0.33618  1.0000
  H   H3522     1.0  0.77920  0.09032  0.15115  1.0000
  H   H3523     1.0  0.91209  0.12326  0.27254  1.0000
  H   H3524     1.0  0.94260  0.27833  0.20857  1.0000
  Fe  Fe308     1.0  0.82182  0.13953  0.28222  1.0000
  S   S610      1.0  0.82968  0.11958  0.30613  1.0000
  S   S611      1.0  0.82359  0.16814  0.27882  1.0000
  Fe  Fe309     1.0  0.80939  0.11276  0.26923  1.0000
  S   S612      1.0  0.81663  0.09025  0.29200  1.0000
  S   S613      1.0  0.79412  0.11477  0.24784  1.0000
  Fe  Fe310     1.0  0.80438  0.11066  0.30907  1.0000
  S   S614      1.0  0.78540  0.10607  0.33566  1.0000
  Fe  Fe311     1.0  0.84177  0.10081  0.28739  1.0000
  S   S615      1.0  0.86882  0.08213  0.28949  1.0000
  S   S616      1.0  0.79527  0.13242  0.28691  1.0000
  S   S617      1.0  0.83570  0.12154  0.26289  1.0000
  Fe  Fe312     1.0  0.95069  0.06275  0.36664  1.0000
  S   S618      1.0  0.93875  0.09209  0.36117  1.0000
  S   S619      1.0  0.93635  0.04443  0.38926  1.0000
  Fe  Fe313     1.0  0.98250  0.06650  0.33615  1.0000
  S   S620      1.0  0.97298  0.09622  0.32843  1.0000
  Fe  Fe314     1.0  0.96680  0.09521  0.35787  1.0000
  S   S621      1.0  0.97318  0.11603  0.36843  1.0000
  Fe  Fe315     1.0  0.94595  0.08998  0.33253  1.0000
  S   S622      1.0  0.92590  0.10674  0.31590  1.0000
  S   S623      1.0  0.97833  0.06597  0.36537  1.0000
  S   S624      1.0  0.95586  0.06030  0.33806  1.0000
  S   S625      1.0  0.88721  0.08733  0.44706  1.0000
  H   H3525     1.0  0.91767  0.03842  0.36461  1.0000
  H   H3526     1.0  0.80179  0.27554  0.32849  1.0000
  Fe  Fe316     1.0  0.81991  0.15901  0.42251  1.0000
  S   S626      1.0  0.84264  0.17056  0.42296  1.0000
  S   S627      1.0  0.79138  0.16846  0.43557  1.0000
  S   S628      1.0  0.82061  0.12992  0.43346  1.0000
  C   C2055     1.0  0.92273  0.11734  0.26231  1.0000
  H   H3527     1.0  0.79099  0.30999  0.35673  1.0000
  H   H3528     1.0  0.75349  0.10822  0.32550  1.0000
  H   H3529     1.0  0.95476  0.15552  0.28207  1.0000
  H   H3530     1.0  0.79902  0.07617  0.48007  1.0000
  S   S629      1.0  0.75210  0.20668  0.09134  1.0000
  C   C2056     1.0  0.83992  0.32626  0.14020  1.0000
  C   C2057     1.0  0.81014  0.10825  0.48142  1.0000
  H   H3531     1.0  0.80800  0.03572  0.48148  1.0000
  H   H3532     1.0  0.83445  0.09213  0.42953  1.0000
  H   H3533     1.0  0.81666  0.11627  0.46959  1.0000
  C   C2058     1.0  0.92407  0.05556  0.40648  1.0000
  C   C2059     1.0  0.92598  0.07269  0.40605  1.0000
  C   C2060     1.0  0.91470  0.08240  0.41860  1.0000
  C   C2061     1.0  0.90188  0.07475  0.43203  1.0000
  C   C2062     1.0  0.90073  0.05715  0.43325  1.0000
  C   C2063     1.0  0.91181  0.04758  0.42042  1.0000
  H   H3534     1.0  0.93641  0.07836  0.39632  1.0000
  H   H3535     1.0  0.91632  0.09564  0.41816  1.0000
  H   H3536     1.0  0.89106  0.05104  0.44385  1.0000
  H   H3537     1.0  0.91075  0.03407  0.42119  1.0000
  H   H3538     1.0  0.98042  0.13103  0.42151  1.0000
  C   C2064     1.0  0.81452  0.09892  0.35078  1.0000
  C   C2065     1.0  0.82315  0.09953  0.36383  1.0000
  H   H3539     1.0  0.81600  0.06641  0.19179  1.0000
  H   H3540     1.0  0.78875  0.11000  0.14222  1.0000
  H   H3541     1.0  0.99038  0.14022  0.33859  1.0000
  H   H3542     1.0  0.82223  0.09376  0.33910  1.0000
  H   H3543     1.0  0.83745  0.09508  0.36211  1.0000
  H   H3544     1.0  0.86476  0.08863  0.39692  1.0000
  S   S630      1.0  0.82705  0.31091  0.14120  1.0000
  C   C2066     1.0  0.88465  0.08884  0.29711  1.0000
  C   C2067     1.0  0.90169  0.07773  0.29766  1.0000
  C   C2068     1.0  0.91445  0.08279  0.30375  1.0000
  C   C2069     1.0  0.91016  0.09897  0.30943  1.0000
  C   C2070     1.0  0.89323  0.11005  0.30875  1.0000
  C   C2071     1.0  0.88051  0.10501  0.30271  1.0000
  H   H3545     1.0  0.90507  0.06526  0.29321  1.0000
  H   H3546     1.0  0.92766  0.07436  0.30377  1.0000
  H   H3547     1.0  0.88993  0.12269  0.31291  1.0000
  H   H3548     1.0  0.86759  0.11380  0.30219  1.0000
  H   H3549     1.0  0.80128  0.08891  0.13761  1.0000
  H   H3550     1.0  0.94556  0.09472  0.45131  1.0000
  H   H3551     1.0  0.77669  0.08042  0.32152  1.0000
  H   H3552     1.0  0.76979  0.06577  0.17499  1.0000
  H   H3553     1.0  0.99306  0.07499  0.42140  1.0000
  C   C2072     1.0  0.76832  0.32600  0.28475  1.0000
  C   C2073     1.0  0.97783  0.11030  0.39001  1.0000
  H   H3554     1.0  0.86843  0.17911  0.48859  1.0000
  N   N149      1.0  0.91492  0.31389  0.06266  1.0000
  N   N150      1.0  0.92023  0.31321  0.13852  1.0000
  S   S631      1.0  0.76402  0.30182  0.31643  1.0000
  C   C2074     1.0  0.87594  0.16507  0.29413  1.0000
  C   C2075     1.0  0.86179  0.17971  0.29665  1.0000
  C   C2076     1.0  0.84589  0.18124  0.29107  1.0000
  C   C2077     1.0  0.84403  0.16781  0.28362  1.0000
  C   C2078     1.0  0.85826  0.15338  0.28099  1.0000
  C   C2079     1.0  0.87428  0.15225  0.28587  1.0000
  H   H3555     1.0  0.86312  0.18979  0.30282  1.0000
  H   H3556     1.0  0.83491  0.19252  0.29300  1.0000
  H   H3557     1.0  0.85695  0.14302  0.27515  1.0000
  H   H3558     1.0  0.88533  0.14124  0.28345  1.0000
  C   C2080     1.0  0.92848  0.17014  0.38666  1.0000
  C   C2081     1.0  0.93580  0.15644  0.39961  1.0000
  C   C2082     1.0  0.94255  0.16042  0.41242  1.0000
  C   C2083     1.0  0.94199  0.17815  0.41244  1.0000
  C   C2084     1.0  0.93434  0.19193  0.39969  1.0000
  C   C2085     1.0  0.92758  0.18795  0.38680  1.0000
  H   H3559     1.0  0.93688  0.14261  0.39935  1.0000
  H   H3560     1.0  0.94859  0.14971  0.42196  1.0000
  H   H3561     1.0  0.93381  0.20570  0.39969  1.0000
  H   H3562     1.0  0.92189  0.19861  0.37689  1.0000
  C   C2086     1.0  0.84854  0.21129  0.37057  1.0000
  C   C2087     1.0  0.86324  0.20350  0.37872  1.0000
  C   C2088     1.0  0.86123  0.19174  0.39539  1.0000
  C   C2089     1.0  0.84455  0.18756  0.40380  1.0000
  C   C2090     1.0  0.82970  0.19582  0.39597  1.0000
  C   C2091     1.0  0.83169  0.20771  0.37938  1.0000
  H   H3563     1.0  0.87627  0.20629  0.37207  1.0000
  H   H3564     1.0  0.87276  0.18539  0.40134  1.0000
  H   H3565     1.0  0.81670  0.19285  0.40261  1.0000
  H   H3566     1.0  0.82032  0.21355  0.37317  1.0000
  H   H3567     1.0  0.87015  0.08654  0.36541  1.0000
  H   H3568     1.0  0.85602  0.11805  0.46243  1.0000
  S   S632      1.0  0.81388  0.15864  0.39656  1.0000
  C   C2092     1.0  0.95209  0.20900  0.23973  1.0000
  C   C2093     1.0  0.95227  0.22660  0.23968  1.0000
  C   C2094     1.0  0.94684  0.23270  0.25579  1.0000
  C   C2095     1.0  0.94082  0.22133  0.27184  1.0000
  C   C2096     1.0  0.94070  0.20377  0.27176  1.0000
  C   C2097     1.0  0.94662  0.19754  0.25584  1.0000
  H   H3569     1.0  0.95669  0.23549  0.22731  1.0000
  H   H3570     1.0  0.94698  0.24631  0.25575  1.0000
  H   H3571     1.0  0.93606  0.19491  0.28391  1.0000
  H   H3572     1.0  0.94648  0.18395  0.25598  1.0000
  C   C2098     1.0  0.95168  0.30022  0.18875  1.0000
  C   C2099     1.0  0.89143  0.13040  0.47831  1.0000
  C   C2100     1.0  0.81340  0.10649  0.37881  1.0000
  H   H3573     1.0  0.97792  0.12932  0.27463  1.0000
  H   H3574     1.0  0.96782  0.21330  0.32121  1.0000
  C   C2101     1.0  0.94879  0.31882  0.18299  1.0000
  H   H3575     1.0  0.84413  0.15335  0.33695  1.0000
  H   H3576     1.0  0.95106  0.10861  0.28104  1.0000
  H   H3577     1.0  0.88907  0.17604  0.47274  1.0000
  H   H3578     1.0  0.76132  0.06590  0.32876  1.0000
  C   C2102     1.0  0.89244  0.25663  0.11601  1.0000
  C   C2103     1.0  0.90997  0.24979  0.11876  1.0000
  C   C2104     1.0  0.91392  0.24905  0.13524  1.0000
  C   C2105     1.0  0.90024  0.25485  0.14903  1.0000
  C   C2106     1.0  0.88275  0.26150  0.14630  1.0000
  C   C2107     1.0  0.87893  0.26264  0.12977  1.0000
  H   H3579     1.0  0.92047  0.24513  0.10814  1.0000
  H   H3580     1.0  0.92747  0.24387  0.13731  1.0000
  H   H3581     1.0  0.87217  0.26616  0.15687  1.0000
  H   H3582     1.0  0.86544  0.26808  0.12777  1.0000
  H   H3583     1.0  0.81575  0.25438  0.32505  1.0000
  N   N151      1.0  0.78734  0.09613  0.18138  1.0000
  C   C2108     1.0  0.78886  0.08089  0.25050  1.0000
  C   C2109     1.0  0.78225  0.09935  0.24652  1.0000
  C   C2110     1.0  0.76634  0.10593  0.24005  1.0000
  C   C2111     1.0  0.76756  0.07494  0.31684  1.0000
  C   C2112     1.0  0.90799  0.03789  0.35688  1.0000
  H   H3584     1.0  0.80120  0.07568  0.25531  1.0000
  H   H3585     1.0  0.94247  0.31701  0.05556  1.0000
  C   C2113     1.0  0.75943  0.23060  0.41104  1.0000
  C   C2114     1.0  0.79697  0.23071  0.06364  1.0000
  C   C2115     1.0  0.78114  0.24106  0.07159  1.0000
  C   C2116     1.0  0.78170  0.25558  0.07831  1.0000
  C   C2117     1.0  0.79808  0.25988  0.07733  1.0000
  C   C2118     1.0  0.81396  0.24970  0.06917  1.0000
  C   C2119     1.0  0.81338  0.23523  0.06227  1.0000
  C   C2120     1.0  0.87284  0.13775  0.45538  1.0000
  S   S633      1.0  0.76104  0.13857  0.06315  1.0000
  H   H3586     1.0  0.82667  0.25288  0.06834  1.0000
  H   H3587     1.0  0.82570  0.22737  0.05606  1.0000
  H   H3588     1.0  0.88178  0.12803  0.44732  1.0000
  H   H3589     1.0  0.78896  0.20941  0.09760  1.0000
  H   H3590     1.0  0.76676  0.18534  0.01780  1.0000
  H   H3591     1.0  0.77960  0.19430  0.32816  1.0000
  C   C2121     1.0  0.87396  0.09670  0.39760  1.0000
  H   H3592     1.0  0.80655  0.29636  0.34257  1.0000
  C   C2122     1.0  0.89228  0.16895  0.43653  1.0000
  H   H3593     1.0  0.91591  0.29750  0.22358  1.0000
  H   H3594     1.0  0.92651  0.13404  0.28538  1.0000
  C   C2123     1.0  0.96887  0.16430  0.33312  1.0000
  H   H3595     1.0  0.97819  0.10685  0.28620  1.0000
  C   C2124     1.0  0.87518  0.08441  0.35161  1.0000
  H   H3596     1.0  0.77680  0.27348  0.34666  1.0000
  H   H3597     1.0  0.76123  0.09406  0.17940  1.0000
  H   H3598     1.0  0.86450  0.08186  0.34655  1.0000
  H   H3599     1.0  0.76500  0.22739  0.10957  1.0000
  H   H3600     1.0  0.88714  0.09241  0.38902  1.0000
  C   C2125     1.0  0.76560  0.17223  0.01606  1.0000
  H   H3601     1.0  0.76287  0.14122  0.11494  1.0000
  C   C2126     1.0  0.89810  0.15215  0.45056  1.0000
  H   H3602     1.0  0.93788  0.09483  0.47444  1.0000
  H   H3603     1.0  0.76370  0.15771  0.36484  1.0000
  H   H3604     1.0  0.80494  0.09158  0.43154  1.0000
  H   H3605     1.0  0.76106  0.16483  0.02982  1.0000
  H   H3606     1.0  0.90661  0.14182  0.44306  1.0000
  H   H3607     1.0  0.77556  0.07951  0.44439  1.0000
  H   H3608     1.0  0.77481  0.29608  0.20678  1.0000
  H   H3609     1.0  0.96071  0.08601  0.46663  1.0000
  S   S634      1.0  0.76598  0.18491  0.39394  1.0000
  C   C2127     1.0  0.92505  0.30348  0.21225  1.0000
  H   H3610     1.0  0.88514  0.03382  0.33457  1.0000
  H   H3611     1.0  0.79899  0.20071  0.31206  1.0000
  H   H3612     1.0  0.98030  0.06413  0.45160  1.0000
  C   C2128     1.0  0.77947  0.06251  0.30437  1.0000
  H   H3613     1.0  0.98803  0.03863  0.48234  1.0000
  H   H3614     1.0  0.95724  0.15851  0.34167  1.0000
  C   C2129     1.0  0.89218  0.06955  0.34954  1.0000
  H   H3615     1.0  0.89339  0.30558  0.17095  1.0000
  H   H3616     1.0  0.79862  0.19624  0.36358  1.0000
  C   C2130     1.0  0.98329  0.09253  0.39855  1.0000
  C   C2131     1.0  0.82283  0.03878  0.44471  1.0000
  H   H3617     1.0  0.93577  0.32744  0.14661  1.0000
  H   H3618     1.0  0.81631  0.24204  0.12020  1.0000
  H   H3619     1.0  0.98841  0.11108  0.26326  1.0000
  C   C2132     1.0  0.90069  0.11251  0.47263  1.0000
  H   H3620     1.0  0.95924  0.03889  0.42729  1.0000
  H   H3621     1.0  0.87834  0.02736  0.39385  1.0000
  C   C2133     1.0  0.79956  0.08785  0.44616  1.0000
  H   H3622     1.0  0.81680  0.02772  0.44444  1.0000
  C   C2134     1.0  0.81263  0.25778  0.35235  1.0000
  C   C2135     1.0  0.81034  0.24859  0.39229  1.0000
  C   C2136     1.0  0.81356  0.26541  0.33209  1.0000
  H   H3623     1.0  0.80480  0.28197  0.37399  1.0000
  H   H3624     1.0  0.82391  0.26116  0.35582  1.0000
  H   H3625     1.0  0.81598  0.24298  0.35409  1.0000
  H   H3626     1.0  0.82380  0.24533  0.38374  1.0000
  H   H3627     1.0  0.80902  0.26063  0.39751  1.0000
  H   H3628     1.0  0.80956  0.23731  0.40408  1.0000
  H   H3629     1.0  0.82539  0.27167  0.32636  1.0000
  H   H3630     1.0  0.90335  0.07408  0.35199  1.0000
  C   C2137     1.0  0.76778  0.12438  0.19288  1.0000
  N   N152      1.0  0.87797  0.12942  0.38815  1.0000
  C   C2138     1.0  0.88326  0.12765  0.40559  1.0000
  C   C2139     1.0  0.86570  0.11668  0.39168  1.0000
  C   C2140     1.0  0.86781  0.14838  0.38329  1.0000
  C   C2141     1.0  0.89471  0.12550  0.37412  1.0000
  C   C2142     1.0  0.89667  0.13886  0.40500  1.0000
  C   C2143     1.0  0.85824  0.15291  0.36762  1.0000
  C   C2144     1.0  0.89265  0.12120  0.35691  1.0000
  H   H3631     1.0  0.87123  0.13098  0.41618  1.0000
  H   H3632     1.0  0.88974  0.11371  0.41068  1.0000
  H   H3633     1.0  0.86019  0.11774  0.37993  1.0000
  H   H3634     1.0  0.85370  0.12018  0.40221  1.0000
  H   H3635     1.0  0.85725  0.15195  0.39491  1.0000
  H   H3636     1.0  0.87678  0.15798  0.37994  1.0000
  H   H3637     1.0  0.90163  0.13694  0.36976  1.0000
  H   H3638     1.0  0.90455  0.11404  0.38000  1.0000
  H   H3639     1.0  0.89133  0.15343  0.40132  1.0000
  H   H3640     1.0  0.89971  0.13611  0.41840  1.0000
  H   H3641     1.0  0.90964  0.13495  0.39596  1.0000
  H   H3642     1.0  0.85143  0.16725  0.36590  1.0000
  H   H3643     1.0  0.84766  0.14526  0.37020  1.0000
  H   H3644     1.0  0.86774  0.15139  0.35485  1.0000
  H   H3645     1.0  0.89883  0.13032  0.34500  1.0000
  H   H3646     1.0  0.87885  0.12241  0.35562  1.0000
  H   H3647     1.0  0.90018  0.10747  0.35570  1.0000
  N   N153      1.0  0.89293  0.21452  0.23062  1.0000
  C   C2145     1.0  0.90166  0.22150  0.21155  1.0000
  C   C2146     1.0  0.88765  0.22985  0.24018  1.0000
  C   C2147     1.0  0.87653  0.20838  0.23020  1.0000
  C   C2148     1.0  0.90631  0.19916  0.23858  1.0000
  C   C2149     1.0  0.90638  0.20854  0.19867  1.0000
  C   C2150     1.0  0.90326  0.23659  0.24263  1.0000
  C   C2151     1.0  0.86167  0.20727  0.24728  1.0000
  C   C2152     1.0  0.90111  0.19117  0.25866  1.0000
  H   H3648     1.0  0.89294  0.23398  0.20556  1.0000
  H   H3649     1.0  0.91444  0.22520  0.21089  1.0000
  H   H3650     1.0  0.87947  0.22651  0.25379  1.0000
  H   H3651     1.0  0.87888  0.24146  0.23305  1.0000
  H   H3652     1.0  0.86977  0.21749  0.21946  1.0000
  H   H3653     1.0  0.88040  0.19491  0.22683  1.0000
  H   H3654     1.0  0.90928  0.18780  0.23178  1.0000
  H   H3655     1.0  0.91957  0.20271  0.23594  1.0000
  H   H3656     1.0  0.89454  0.20421  0.19767  1.0000
  H   H3657     1.0  0.91177  0.21561  0.18502  1.0000
  H   H3658     1.0  0.91702  0.19678  0.20223  1.0000
  H   H3659     1.0  0.91188  0.22600  0.25075  1.0000
  H   H3660     1.0  0.91151  0.24212  0.22977  1.0000
  H   H3661     1.0  0.89772  0.24761  0.25003  1.0000
  H   H3662     1.0  0.86670  0.19932  0.25930  1.0000
  H   H3663     1.0  0.85167  0.20057  0.24570  1.0000
  H   H3664     1.0  0.85435  0.22078  0.24950  1.0000
  H   H3665     1.0  0.89443  0.17991  0.26076  1.0000
  H   H3666     1.0  0.89260  0.20088  0.26676  1.0000
  H   H3667     1.0  0.91332  0.18605  0.26434  1.0000
  H   H3668     1.0  0.82852  0.07994  0.46131  1.0000
  C   C2153     1.0  0.97764  0.05082  0.47917  1.0000
  H   H3669     1.0  0.78273  0.13809  0.02822  1.0000
  C   C2154     1.0  0.92127  0.29939  0.15562  1.0000
  H   H3670     1.0  0.83611  0.14734  0.32054  1.0000
  C   C2155     1.0  0.89461  0.30132  0.13407  1.0000
  C   C2156     1.0  0.93479  0.30631  0.05841  1.0000
  C   C2157     1.0  0.90732  0.30396  0.17233  1.0000
  H   H3671     1.0  0.94055  0.06343  0.48341  1.0000
  H   H3672     1.0  0.75273  0.28039  0.26459  1.0000
  H   H3673     1.0  0.76037  0.29792  0.24722  1.0000
  N   N154      1.0  0.80566  0.16743  0.34255  1.0000
  C   C2158     1.0  0.92173  0.32202  0.20606  1.0000
  H   H3674     1.0  0.92009  0.28626  0.15403  1.0000
  H   H3675     1.0  0.93455  0.29683  0.15911  1.0000
  H   H3676     1.0  0.88532  0.15954  0.49327  1.0000
  H   H3677     1.0  0.85914  0.12339  0.48150  1.0000
  H   H3678     1.0  0.94422  0.21652  0.32830  1.0000
  H   H3679     1.0  0.88140  0.30626  0.13011  1.0000
  H   H3680     1.0  0.84437  0.13929  0.46822  1.0000
  H   H3681     1.0  0.87437  0.03150  0.36668  1.0000
  H   H3682     1.0  0.90748  0.15543  0.45691  1.0000
  C   C2159     1.0  0.99613  0.19704  0.33655  1.0000
  H   H3683     1.0  0.90950  0.29270  0.18387  1.0000
  N   N155      1.0  0.78347  0.16220  0.00745  1.0000
  C   C2160     1.0  0.98831  0.08869  0.41514  1.0000
  C   C2161     1.0  0.97700  0.12404  0.39837  1.0000
  C   C2162     1.0  0.79503  0.25040  0.38280  1.0000
  C   C2163     1.0  0.79353  0.28167  0.36827  1.0000
  H   H3684     1.0  0.79560  0.23665  0.38154  1.0000
  H   H3685     1.0  0.89563  0.06924  0.33520  1.0000
  H   H3686     1.0  0.79882  0.13508  0.00834  1.0000
  C   C2164     1.0  0.93593  0.14235  0.27647  1.0000
  H   H3687     1.0  0.92731  0.15512  0.27099  1.0000
  H   H3688     1.0  0.93520  0.15324  0.29896  1.0000
  H   H3689     1.0  0.87518  0.09341  0.41174  1.0000
  N   N156      1.0  0.79528  0.26336  0.36496  1.0000
  C   C2165     1.0  0.98133  0.12022  0.41519  1.0000
  C   C2166     1.0  0.93538  0.13013  0.25159  1.0000
  C   C2167     1.0  0.95898  0.11579  0.26875  1.0000
  C   C2168     1.0  0.94549  0.14640  0.28905  1.0000
  H   H3690     1.0  0.97905  0.16614  0.38693  1.0000
  N   N157      1.0  0.89063  0.05128  0.36091  1.0000
  H   H3691     1.0  0.87832  0.09722  0.34323  1.0000
  N   N158      1.0  0.94762  0.13347  0.26155  1.0000
  H   H3692     1.0  0.85984  0.15364  0.48398  1.0000
  N   N159      1.0  0.75353  0.08995  0.30933  1.0000
  H   H3693     1.0  0.96273  0.10690  0.25899  1.0000
  H   H3694     1.0  0.89751  0.05929  0.38198  1.0000
  H   H3695     1.0  0.87412  0.06111  0.38439  1.0000
  C   C2169     1.0  0.93999  0.29259  0.20357  1.0000
  H   H3696     1.0  0.76113  0.12020  0.23699  1.0000
  C   C2170     1.0  0.88747  0.05268  0.38017  1.0000
  C   C2171     1.0  0.87497  0.04520  0.35869  1.0000
  H   H3697     1.0  0.86215  0.05395  0.36392  1.0000
  H   H3698     1.0  0.80701  0.07727  0.16656  1.0000
  Fe  Fe317     1.0  0.81156  0.13036  0.40892  1.0000
  C   C2172     1.0  0.79479  0.11215  0.38115  1.0000
  H   H3699     1.0  0.78224  0.25410  0.39234  1.0000
  H   H3700     1.0  0.78104  0.28507  0.37836  1.0000
  H   H3701     1.0  0.91071  0.04111  0.32749  1.0000
  H   H3702     1.0  0.82880  0.03437  0.45666  1.0000
  H   H3703     1.0  0.95228  0.13394  0.29697  1.0000
  H   H3704     1.0  0.98131  0.25959  0.11980  1.0000
  H   H3705     1.0  0.98304  0.04074  0.45510  1.0000
  H   H3706     1.0  0.97270  0.13773  0.39197  1.0000
  H   H3707     1.0  0.91562  0.32115  0.03418  1.0000
  H   H3708     1.0  0.82058  0.17818  0.10559  1.0000
  C   C2173     1.0  0.77580  0.06702  0.18567  1.0000
  H   H3709     1.0  0.89941  0.27791  0.05855  1.0000
  C   C2174     1.0  0.75722  0.09422  0.23731  1.0000
  C   C2175     1.0  0.79829  0.16092  0.03340  1.0000
  C   C2176     1.0  0.95838  0.14640  0.24860  1.0000
  H   H3710     1.0  0.92685  0.14296  0.24598  1.0000
  C   C2177     1.0  0.75126  0.14860  0.14044  1.0000
  H   H3711     1.0  0.77209  0.09109  0.46241  1.0000
  H   H3712     1.0  0.79054  0.16216  0.36973  1.0000
  H   H3713     1.0  0.88982  0.30534  0.06888  1.0000
  H   H3714     1.0  0.77770  0.23432  0.36617  1.0000
  C   C2178     1.0  0.80006  0.09148  0.16461  1.0000
  H   H3715     1.0  0.77237  0.11982  0.16661  1.0000
  H   H3716     1.0  0.80721  0.16570  0.15275  1.0000
  C   C2179     1.0  0.97082  0.13968  0.23210  1.0000
  H   H3717     1.0  0.91576  0.11473  0.25310  1.0000
  S   S635      1.0  0.75393  0.19315  0.05448  1.0000
  H   H3718     1.0  0.91098  0.11413  0.46013  1.0000
  H   H3719     1.0  0.96675  0.15082  0.25507  1.0000
  H   H3720     1.0  0.97952  0.04597  0.42668  1.0000
  C   C2180     1.0  0.93377  0.30595  0.12345  1.0000
  C   C2181     1.0  0.97520  0.16578  0.36092  1.0000
  Fe  Fe318     1.0  0.88176  0.03003  0.49277  1.0000
  S   S636      1.0  0.90221  0.04700  0.48297  1.0000
  H   H3721     1.0  0.78497  0.33086  0.12802  1.0000
  H   H3722     1.0  0.94326  0.12412  0.23999  1.0000
  C   C2182     1.0  0.77905  0.26296  0.35860  1.0000
  H   H3723     1.0  0.78254  0.29904  0.34499  1.0000
  C   C2183     1.0  0.77176  0.08683  0.18724  1.0000
  H   H3724     1.0  0.94171  0.29667  0.08502  1.0000
  C   C2184     1.0  0.98393  0.14863  0.32754  1.0000
  H   H3725     1.0  0.96436  0.17189  0.32064  1.0000
  C   C2185     1.0  0.97447  0.05266  0.46024  1.0000
  C   C2186     1.0  0.77906  0.24515  0.35411  1.0000
  H   H3726     1.0  0.97910  0.12614  0.23558  1.0000
  C   C2187     1.0  0.78167  0.30357  0.19404  1.0000
  H   H3727     1.0  0.77321  0.24186  0.11823  1.0000
  H   H3728     1.0  0.95573  0.20046  0.31495  1.0000
  Fe  Fe319     1.0  0.75733  0.17773  0.10437  1.0000
  H   H3729     1.0  0.81369  0.07168  0.21283  1.0000
  C   C2188     1.0  0.96524  0.05050  0.42576  1.0000
  H   H3730     1.0  0.78617  0.18914  0.11255  1.0000
  H   H3731     1.0  0.76670  0.26613  0.36883  1.0000
  H   H3732     1.0  0.76726  0.24702  0.34822  1.0000
  C   C2189     1.0  0.78021  0.11610  0.17725  1.0000
  H   H3733     1.0  0.79140  0.12339  0.17186  1.0000
  N   N160      1.0  0.95542  0.05512  0.45848  1.0000
  H   H3734     1.0  0.82121  0.21554  0.10839  1.0000
  H   H3735     1.0  0.84258  0.31637  0.22852  1.0000
  H   H3736     1.0  0.80014  0.16764  0.13265  1.0000
  H   H3737     1.0  0.90136  0.32667  0.12124  1.0000
  C   C2190     1.0  0.80024  0.06503  0.47351  1.0000
  H   H3738     1.0  0.94270  0.01574  0.48576  1.0000
  C   C2191     1.0  0.94710  0.08692  0.46484  1.0000
  S   S637      1.0  0.89145  0.00192  0.48855  1.0000
  C   C2192     1.0  0.80844  0.23169  0.12776  1.0000
  H   H3739     1.0  0.80609  0.19746  0.14743  1.0000
  H   H3740     1.0  0.83362  0.03982  0.43251  1.0000
  H   H3741     1.0  0.80830  0.09993  0.19202  1.0000
  H   H3742     1.0  0.75367  0.23354  0.13029  1.0000
  H   H3743     1.0  0.77852  0.21666  0.14499  1.0000
  H   H3744     1.0  0.86668  0.14859  0.44536  1.0000
  H   H3745     1.0  0.77003  0.09524  0.28257  1.0000
  C   C2193     1.0  0.95369  0.30390  0.12383  1.0000
  S   S638      1.0  0.86082  0.05123  0.48062  1.0000
  C   C2194     1.0  0.77983  0.06916  0.24756  1.0000
  H   H3746     1.0  0.94020  0.06558  0.43761  1.0000
  H   H3747     1.0  0.76703  0.32122  0.15795  1.0000
  C   C2195     1.0  0.94236  0.06839  0.46882  1.0000
  H   H3748     1.0  0.93201  0.29256  0.12315  1.0000
  C   C2196     1.0  0.80649  0.19218  0.13563  1.0000
  C   C2197     1.0  0.80717  0.22096  0.11467  1.0000
  C   C2198     1.0  0.81307  0.18947  0.09705  1.0000
  C   C2199     1.0  0.79914  0.17489  0.14317  1.0000
  H   H3749     1.0  0.80139  0.23063  0.10370  1.0000
  C   C2200     1.0  0.76167  0.32344  0.30321  1.0000
  H   H3750     1.0  0.79728  0.18148  0.00993  1.0000
  S   S639      1.0  0.81839  0.31476  0.09252  1.0000
  H   H3751     1.0  0.92249  0.27877  0.05333  1.0000
  C   C2201     1.0  0.95664  0.20617  0.32590  1.0000
  H   H3752     1.0  0.84173  0.32635  0.25623  1.0000
  C   C2202     1.0  0.76714  0.22996  0.12181  1.0000
  C   C2203     1.0  0.95434  0.06250  0.43909  1.0000
  C   C2204     1.0  0.79598  0.10494  0.35287  1.0000
  H   H3753     1.0  0.89081  0.10572  0.47117  1.0000
  H   H3754     1.0  0.78519  0.05490  0.25034  1.0000
  H   H3755     1.0  0.86156  0.04166  0.33965  1.0000
  H   H3756     1.0  0.79110  0.24075  0.34419  1.0000
  C   C2205     1.0  0.79755  0.09211  0.19607  1.0000
  C   C2206     1.0  0.80620  0.07240  0.20253  1.0000
  H   H3757     1.0  0.75857  0.07422  0.28056  1.0000
  H   H3758     1.0  0.77388  0.10307  0.43994  1.0000
  H   H3759     1.0  0.85323  0.07485  0.43418  1.0000
  N   N161      1.0  0.79678  0.20631  0.12257  1.0000
  C   C2207     1.0  0.79528  0.19873  0.10762  1.0000
  H   H3760     1.0  0.82099  0.18836  0.12964  1.0000
  H   H3761     1.0  0.78631  0.06362  0.47488  1.0000
  S   S640      1.0  0.98188  0.23446  0.17914  1.0000
  H   H3762     1.0  0.90170  0.13481  0.48241  1.0000
  C   C2208     1.0  0.97674  0.11622  0.27325  1.0000
  S   S641      1.0  0.78238  0.13736  0.42078  1.0000
  H   H3763     1.0  0.77586  0.31473  0.27882  1.0000
  Fe  Fe320     1.0  0.98690  0.14882  0.47599  1.0000
  H   H3764     1.0  0.78866  0.09627  0.20827  1.0000
  H   H3765     1.0  0.79592  0.06428  0.20926  1.0000
  H   H3766     1.0  0.77320  0.10634  0.29743  1.0000
  H   H3767     1.0  0.82339  0.17282  0.35627  1.0000
  Fe  Fe321     1.0  0.98145  0.12185  0.45765  1.0000
  H   H3768     1.0  0.99428  0.15348  0.31614  1.0000
  C   C2209     1.0  0.82831  0.07085  0.45284  1.0000
  C   C2210     1.0  0.77197  0.13414  0.00814  1.0000
  C   C2211     1.0  0.85722  0.12926  0.46769  1.0000
  H   H3769     1.0  0.81007  0.18388  0.08699  1.0000
  N   N162      1.0  0.88317  0.14489  0.46442  1.0000
  H   H3770     1.0  0.94521  0.18761  0.34842  1.0000
  H   H3771     1.0  0.84231  0.13089  0.33922  1.0000
  H   H3772     1.0  0.80565  0.32418  0.17187  1.0000
  H   H3773     1.0  0.82299  0.04765  0.48542  1.0000
  H   H3774     1.0  0.78061  0.18191  0.35645  1.0000
  S   S642      1.0  0.99266  0.22132  0.13308  1.0000
  C   C2212     1.0  0.79141  0.11137  0.48615  1.0000
  H   H3775     1.0  0.83828  0.32048  0.16862  1.0000
  H   H3776     1.0  0.90734  0.10341  0.48330  1.0000
  H   H3777     1.0  0.76868  0.16651  0.34132  1.0000
  C   C2213     1.0  0.95810  0.19219  0.34347  1.0000
  C   C2214     1.0  0.93381  0.32971  0.19165  1.0000
  H   H3778     1.0  0.88138  0.12748  0.49088  1.0000
  H   H3779     1.0  0.92868  0.07062  0.46623  1.0000
  H   H3780     1.0  0.92461  0.05206  0.33356  1.0000
  S   S643      1.0  0.99876  0.31670  0.08970  1.0000
  S   S644      1.0  0.99239  0.09778  0.44481  1.0000
  H   H3781     1.0  0.79013  0.31427  0.15698  1.0000
  C   C2215     1.0  0.81632  0.17952  0.34509  1.0000
  H   H3782     1.0  0.82169  0.19910  0.08941  1.0000
  H   H3783     1.0  0.78085  0.14504  0.35067  1.0000
  Fe  Fe322     1.0  0.84578  0.31403  0.07482  1.0000
  H   H3784     1.0  0.81546  0.22318  0.13842  1.0000
  H   H3785     1.0  0.92999  0.10418  0.26863  1.0000
  H   H3786     1.0  0.97804  0.13976  0.32302  1.0000
  C   C2216     1.0  0.77910  0.32635  0.15700  1.0000
  C   C2217     1.0  0.90881  0.28719  0.05405  1.0000
  H   H3787     1.0  0.83649  0.05790  0.45816  1.0000
  H   H3788     1.0  0.87536  0.05759  0.33001  1.0000
  C   C2218     1.0  0.91089  0.32271  0.07834  1.0000
  H   H3789     1.0  0.90572  0.02398  0.36127  1.0000
  C   C2219     1.0  0.90436  0.29941  0.06754  1.0000
  H   H3790     1.0  0.94927  0.15902  0.24347  1.0000
  S   S645      1.0  0.77790  0.12668  0.47204  1.0000
  H   H3791     1.0  0.78493  0.16486  0.04180  1.0000
  C   C2220     1.0  0.88819  0.03486  0.39411  1.0000
  H   H3792     1.0  0.90882  0.31602  0.17588  1.0000
  H   H3793     1.0  0.79820  0.16129  0.32062  1.0000
  N   N163      1.0  0.97363  0.17634  0.34234  1.0000
  C   C2221     1.0  0.94960  0.03748  0.46393  1.0000
  S   S646      1.0  0.82495  0.10817  0.39413  1.0000
  H   H3794     1.0  0.90567  0.29075  0.08090  1.0000
  C   C2222     1.0  0.78604  0.11099  0.36836  1.0000
  H   H3795     1.0  0.76512  0.08739  0.20136  1.0000
  H   H3796     1.0  0.78680  0.06972  0.29182  1.0000
  H   H3797     1.0  0.99995  0.27991  0.12906  1.0000
  C   C2223     1.0  0.77476  0.15869  0.35287  1.0000
  H   H3798     1.0  0.99581  0.28070  0.09467  1.0000
  H   H3799     1.0  0.95907  0.02766  0.45630  1.0000
  H   H3800     1.0  0.76921  0.05912  0.19828  1.0000
  C   C2224     1.0  0.84332  0.33030  0.22795  1.0000
  C   C2225     1.0  0.76523  0.21279  0.40897  1.0000
  C   C2226     1.0  0.80605  0.19781  0.34945  1.0000
  C   C2227     1.0  0.77816  0.21335  0.13232  1.0000
  H   H3801     1.0  0.93640  0.03914  0.46050  1.0000
  Fe  Fe323     1.0  0.78519  0.16590  0.41042  1.0000
  Fe  Fe324     1.0  0.77320  0.19803  0.06841  1.0000
  S   S647      1.0  0.99139  0.14749  0.44697  1.0000
  C   C2228     1.0  0.76407  0.07578  0.24080  1.0000
  H   H3802     1.0  0.81607  0.17205  0.31427  1.0000
  H   H3803     1.0  0.82705  0.18220  0.33302  1.0000
  H   H3804     1.0  0.78713  0.11736  0.39280  1.0000
  H   H3805     1.0  0.79499  0.05245  0.44869  1.0000
  H   H3806     1.0  0.88477  0.03786  0.40766  1.0000
  C   C2229     1.0  0.79815  0.16676  0.01326  1.0000
  H   H3807     1.0  0.77166  0.11552  0.37010  1.0000
  C   C2230     1.0  0.91866  0.04008  0.33736  1.0000
  H   H3808     1.0  0.79517  0.23892  0.13386  1.0000
  C   C2231     1.0  0.81640  0.14847  0.34608  1.0000
  H   H3809     1.0  0.96483  0.05834  0.41196  1.0000
  H   H3810     1.0  0.98009  0.14894  0.22531  1.0000
  H   H3811     1.0  0.95880  0.07539  0.43405  1.0000
  H   H3812     1.0  0.96314  0.13990  0.22217  1.0000
  C   C2232     1.0  0.98704  0.10254  0.42363  1.0000
  H   H3813     1.0  0.99099  0.18521  0.31734  1.0000
  H   H3814     1.0  0.76935  0.26344  0.08450  1.0000
  H   H3815     1.0  0.76840  0.23801  0.07241  1.0000
  C   C2233     1.0  0.87044  0.15928  0.47338  1.0000
  C   C2234     1.0  0.87452  0.04466  0.33956  1.0000
  H   H3816     1.0  0.95673  0.28618  0.06799  1.0000
  H   H3817     1.0  0.83744  0.07072  0.42394  1.0000
  H   H3818     1.0  0.79002  0.06022  0.18346  1.0000
  H   H3819     1.0  0.80925  0.06261  0.42958  1.0000
  H   H3820     1.0  0.81588  0.20613  0.34786  1.0000
  H   H3821     1.0  0.95807  0.19966  0.35343  1.0000
  H   H3822     1.0  0.79487  0.30407  0.19600  1.0000
  C   C2235     1.0  0.76984  0.32235  0.18956  1.0000
  S   S648      1.0  0.75769  0.16919  0.13354  1.0000
  H   H3823     1.0  0.89218  0.29263  0.14751  1.0000
  C   C2236     1.0  0.78812  0.16805  0.35596  1.0000
  H   H3824     1.0  0.78507  0.17753  0.15064  1.0000
  H   H3825     1.0  0.81733  0.14392  0.36042  1.0000
  C   C2237     1.0  0.80303  0.17194  0.32366  1.0000
  H   H3826     1.0  0.80163  0.09828  0.45200  1.0000
  C   C2238     1.0  0.94233  0.29145  0.07318  1.0000
  H   H3827     1.0  0.95609  0.30430  0.13680  1.0000
  C   C2239     1.0  0.99958  0.30298  0.13878  1.0000
  C   C2240     1.0  0.75891  0.20703  0.39704  1.0000
  H   H3828     1.0  0.80753  0.16754  0.03648  1.0000
  C   C2241     1.0  0.99393  0.25478  0.11152  1.0000
  H   H3829     1.0  0.75657  0.11748  0.19965  1.0000
  H   H3830     1.0  0.80977  0.13897  0.34348  1.0000
  H   H3831     1.0  0.79677  0.20540  0.34055  1.0000
  H   H3832     1.0  0.98544  0.15319  0.36048  1.0000
  C   C2242     1.0  0.80828  0.05626  0.44404  1.0000
  H   H3833     1.0  0.77533  0.12476  0.20269  1.0000
  C   C2243     1.0  0.90184  0.31740  0.13440  1.0000
  C   C2244     1.0  0.79100  0.19015  0.31755  1.0000
  H   H3834     1.0  0.78488  0.18915  0.30685  1.0000
  H   H3835     1.0  0.81160  0.16084  0.00596  1.0000
  C   C2245     1.0  0.78498  0.14223  0.01344  1.0000
  H   H3836     1.0  0.95796  0.32475  0.17169  1.0000
  H   H3837     1.0  0.90344  0.29334  0.12432  1.0000
  H   H3838     1.0  0.97102  0.18778  0.37526  1.0000
  C   C2246     1.0  0.83578  0.14511  0.33498  1.0000
  H   H3839     1.0  0.93561  0.27996  0.07730  1.0000
  H   H3840     1.0  0.95966  0.31418  0.11318  1.0000
  H   H3841     1.0  0.96144  0.29086  0.12059  1.0000
  H   H3842     1.0  0.90182  0.02621  0.39264  1.0000
  H   H3843     1.0  0.90697  0.29487  0.04057  1.0000
  H   H3844     1.0  0.78363  0.29579  0.18369  1.0000
  C   C2247     1.0  0.99102  0.18150  0.33190  1.0000
  H   H3845     1.0  0.96244  0.16146  0.36798  1.0000
  H   H3846     1.0  0.78987  0.05307  0.31129  1.0000
  H   H3847     1.0  0.80330  0.14629  0.03738  1.0000
  H   H3848     1.0  0.98570  0.20389  0.34628  1.0000
  H   H3849     1.0  0.76176  0.13851  0.18755  1.0000
  C   C2248     1.0  0.75541  0.13735  0.12836  1.0000
  H   H3850     1.0  0.91370  0.31255  0.09048  1.0000
  H   H3851     1.0  0.99903  0.20737  0.32426  1.0000
  H   H3852     1.0  0.98475  0.30577  0.14249  1.0000
  H   H3853     1.0  0.75814  0.13775  0.01581  1.0000
  H   H3854     1.0  0.98408  0.08179  0.39222  1.0000
  H   H3855     1.0  0.77582  0.11933  0.01194  1.0000
  H   H3856     1.0  0.96159  0.02294  0.48721  1.0000
  Fe  Fe325     1.0  0.75843  0.16501  0.07078  1.0000
  C   C2249     1.0  0.80901  0.04787  0.48521  1.0000
  C   C2250     1.0  0.94825  0.02780  0.48368  1.0000
  C   C2251     1.0  0.98013  0.17488  0.37338  1.0000
  H   H3857     1.0  0.77172  0.05418  0.30155  1.0000
  H   H3858     1.0  0.85777  0.33062  0.22468  1.0000
  C   C2252     1.0  0.87904  0.16891  0.48241  1.0000
  H   H3859     1.0  0.82105  0.33087  0.25012  1.0000
  C   C2253     1.0  0.90980  0.32703  0.04625  1.0000
  H   H3860     1.0  0.99423  0.17637  0.36909  1.0000
  H   H3861     1.0  0.75339  0.11227  0.12426  1.0000
  H   H3862     1.0  0.76434  0.23497  0.42032  1.0000
  H   H3863     1.0  0.89184  0.32459  0.14423  1.0000
  H   H3864     1.0  0.88523  0.32700  0.09735  1.0000
  S   S649      1.0  0.75349  0.06068  0.23666  1.0000
  H   H3865     1.0  0.75799  0.12567  0.27253  1.0000
  C   C2254     1.0  0.82053  0.09456  0.49206  1.0000
  H   H3866     1.0  0.75669  0.32026  0.18887  1.0000
  H   H3867     1.0  0.76685  0.32863  0.20130  1.0000
  H   H3868     1.0  0.98303  0.06229  0.47953  1.0000
  C   C2255     1.0  0.76266  0.10211  0.29358  1.0000
  S   S650      1.0  0.97935  0.12194  0.48661  1.0000
  Fe  Fe326     1.0  0.95130  0.13730  0.48530  1.0000
  C   C2256     1.0  0.92383  0.33018  0.14065  1.0000
  H   H3869     1.0  0.83497  0.09196  0.48816  1.0000
  H   H3870     1.0  0.93899  0.03587  0.49312  1.0000
  C   C2257     1.0  0.84347  0.32835  0.15585  1.0000
  H   H3871     1.0  0.96580  0.04988  0.49016  1.0000
  H   H3872     1.0  0.80154  0.04730  0.49927  1.0000
  H   H3873     1.0  0.86477  0.00100  0.54767  1.0000
  S   S651      1.0  0.87303  0.03686  0.51973  1.0000
  C   C2258     1.0  0.95351  0.18520  0.52029  1.0000
  H   H3874     1.0  0.79937  0.15817  0.98153  1.0000
  C   C2259     1.0  0.96422  0.13354  0.53402  1.0000
  N   N164      1.0  0.94963  0.16739  0.53125  1.0000
  H   H3875     1.0  0.92203  0.16116  0.56918  1.0000
  H   H3876     1.0  0.96903  0.15458  0.51110  1.0000
  S   S652      1.0  0.91401  0.05572  0.52188  1.0000
  C   C2260     1.0  0.94674  0.16753  0.55080  1.0000
  H   H3877     1.0  0.88344  0.02029  0.55407  1.0000
  H   H3878     1.0  0.90434  0.00117  0.54100  1.0000
  S   S653      1.0  0.92623  0.13427  0.50616  1.0000
  H   H3879     1.0  0.77893  0.19633  0.98605  1.0000
  C   C2261     1.0  0.93345  0.16491  0.52630  1.0000
  C   C2262     1.0  0.97068  0.18988  0.52186  1.0000
  H   H3880     1.0  0.91328  0.18239  0.54300  1.0000
  C   C2263     1.0  0.79350  0.08783  0.51274  1.0000
  S   S654      1.0  0.87175  0.07918  0.49882  1.0000
  H   H3881     1.0  0.93552  0.14246  0.55954  1.0000
  Fe  Fe327     1.0  0.85361  0.05967  0.50690  1.0000
  Fe  Fe328     1.0  0.89200  0.05557  0.50904  1.0000
  H   H3882     1.0  0.97160  0.18836  0.53589  1.0000
  C   C2264     1.0  0.91737  0.07741  0.51867  1.0000
  C   C2265     1.0  0.90278  0.09170  0.52098  1.0000
  C   C2266     1.0  0.90564  0.10908  0.51789  1.0000
  H   H3883     1.0  0.95286  0.12997  0.53103  1.0000
  H   H3884     1.0  0.88931  0.08931  0.52532  1.0000
  H   H3885     1.0  0.89435  0.12009  0.51982  1.0000
  H   H3886     1.0  0.94196  0.14883  0.57634  1.0000
  C   C2267     1.0  0.96564  0.15314  0.52588  1.0000
  H   H3887     1.0  0.93646  0.16441  0.51191  1.0000
  H   H3888     1.0  0.94610  0.06945  0.51187  1.0000
  C   C2268     1.0  0.92301  0.11228  0.51171  1.0000
  H   H3889     1.0  0.95983  0.16515  0.55472  1.0000
  H   H3890     1.0  0.93945  0.18104  0.55326  1.0000
  H   H3891     1.0  0.87642  0.01105  0.57750  1.0000
  H   H3892     1.0  0.98018  0.10249  0.59696  1.0000
  H   H3893     1.0  0.97767  0.15467  0.52956  1.0000
  C   C2269     1.0  0.93594  0.15417  0.56432  1.0000
  H   H3894     1.0  0.97648  0.12476  0.52793  1.0000
  H   H3895     1.0  0.95452  0.18602  0.50580  1.0000
  H   H3896     1.0  0.85630  0.00564  0.51237  1.0000
  H   H3897     1.0  0.98661  0.12884  0.61009  1.0000
  H   H3898     1.0  0.77617  0.16490  0.98213  1.0000
  H   H3899     1.0  0.94240  0.19640  0.52401  1.0000
  H   H3900     1.0  0.95104  0.10035  0.50493  1.0000
  H   H3901     1.0  0.78760  0.18993  0.96483  1.0000
  C   C2270     1.0  0.91631  0.17944  0.52951  1.0000
  H   H3902     1.0  0.78700  0.07992  0.52481  1.0000
  H   H3903     1.0  0.90479  0.17468  0.52824  1.0000
  S   S655      1.0  0.82475  0.06608  0.52033  1.0000
  H   H3904     1.0  0.91718  0.19192  0.51921  1.0000
  H   H3905     1.0  0.96388  0.13016  0.54855  1.0000
  H   H3906     1.0  0.92977  0.15196  0.53333  1.0000
  H   H3907     1.0  0.76868  0.10378  0.50583  1.0000
  C   C2271     1.0  0.81218  0.08420  0.50762  1.0000
  C   C2272     1.0  0.78314  0.10134  0.50201  1.0000
  H   H3908     1.0  0.80264  0.18810  0.97882  1.0000
  H   H3909     1.0  0.98280  0.18183  0.51480  1.0000
  C   C2273     1.0  0.93760  0.09798  0.50952  1.0000
  H   H3910     1.0  0.97077  0.20406  0.51514  1.0000
  C   C2274     1.0  0.78907  0.18653  0.97896  1.0000
  H   H3911     1.0  0.86030  0.02391  0.56446  1.0000
  C   C2275     1.0  0.93479  0.08051  0.51340  1.0000
  C   C2276     1.0  0.87314  0.01388  0.56414  1.0000
  H   H3912     1.0  0.98568  0.06804  0.63793  1.0000
  H   H3913     1.0  0.98607  0.09835  0.62372  1.0000
  H   H3914     1.0  0.99671  0.13314  0.66269  1.0000
  H   H3915     1.0  0.99044  0.10439  0.57386  1.0000
  C   C2277     1.0  0.99170  0.10658  0.58670  1.0000
  H   H3916     1.0  0.99403  0.12298  0.63087  1.0000
  H   H3917     1.0  0.99102  0.12107  0.58474  1.0000
  C   C2278     1.0  0.78695  0.16708  0.98733  1.0000
  H   H3918     1.0  0.99488  0.06762  0.61493  1.0000
  H   H3919     1.0  0.99698  0.00745  0.65918  1.0000
  C   C2279     1.0  0.99741  0.07033  0.62694  1.0000
  C   C2280     1.0  0.99808  0.12736  0.61618  1.0000
  H   H3920     1.0  0.00034  0.10018  0.67199  1.0000
  C   C2281     1.0  0.99953  0.08971  0.62426  1.0000
  H   H3921     1.0  0.77232  0.13752  0.99362  1.0000
  H   H3922     1.0  0.75180  0.18711  0.99398  1.0000
  C   C2282     1.0  0.95313  0.51391  0.09102  1.0000
  H   H3923     1.0  0.93171  0.34404  0.18738  1.0000
  S   S656      1.0  0.92037  0.57840  0.01200  1.0000
  H   H3924     1.0  0.97830  0.53703  0.06879  1.0000
  H   H3925     1.0  0.93984  0.65923  0.99756  1.0000
  H   H3926     1.0  0.96491  0.35253  0.18222  1.0000
  H   H3927     1.0  0.81032  0.45251  0.14837  1.0000
  C   C2283     1.0  0.92618  0.34488  0.12352  1.0000
  N   N165      1.0  0.98828  0.36373  0.16808  1.0000
  H   H3928     1.0  0.96060  0.38022  0.14722  1.0000
  H   H3929     1.0  0.79323  0.44277  0.03847  1.0000
  Fe  Fe329     1.0  0.90729  0.42854  0.03784  1.0000
  S   S657      1.0  0.90089  0.41919  0.06766  1.0000
  H   H3930     1.0  0.83475  0.35050  0.08381  1.0000
  Fe  Fe330     1.0  0.87490  0.45875  0.03764  1.0000
  S   S658      1.0  0.86596  0.45166  0.06725  1.0000
  S   S659      1.0  0.85634  0.48249  0.02506  1.0000
  Fe  Fe331     1.0  0.89476  0.44832  0.06801  1.0000
  S   S660      1.0  0.90127  0.45942  0.08842  1.0000
  Fe  Fe332     1.0  0.87299  0.42341  0.06367  1.0000
  S   S661      1.0  0.85343  0.40592  0.07889  1.0000
  S   S662      1.0  0.90330  0.45744  0.03848  1.0000
  S   S663      1.0  0.87974  0.43072  0.03382  1.0000
  C   C2284     1.0  0.98632  0.37460  0.19666  1.0000
  Fe  Fe333     1.0  0.89265  0.35920  0.19570  1.0000
  S   S664      1.0  0.90669  0.36505  0.16695  1.0000
  Fe  Fe334     1.0  0.86163  0.38971  0.19108  1.0000
  S   S665      1.0  0.87274  0.39818  0.16223  1.0000
  S   S666      1.0  0.83541  0.40501  0.20361  1.0000
  Fe  Fe335     1.0  0.87953  0.36935  0.16130  1.0000
  S   S667      1.0  0.87712  0.36289  0.13633  1.0000
  Fe  Fe336     1.0  0.89893  0.39345  0.16995  1.0000
  S   S668      1.0  0.91442  0.41358  0.15211  1.0000
  S   S669      1.0  0.86597  0.36100  0.18974  1.0000
  S   S670      1.0  0.88725  0.38741  0.19936  1.0000
  C   C2285     1.0  0.76468  0.35250  0.17133  1.0000
  S   S671      1.0  0.98999  0.46909  0.12880  1.0000
  S   S672      1.0  0.98122  0.42848  0.16987  1.0000
  C   C2286     1.0  0.99299  0.50583  0.08408  1.0000
  S   S673      1.0  0.98100  0.46629  0.08155  1.0000
  H   H3931     1.0  0.95170  0.52574  0.07993  1.0000
  H   H3932     1.0  0.81890  0.46693  0.11886  1.0000
  H   H3933     1.0  0.96676  0.54701  0.08720  1.0000
  N   N166      1.0  0.84326  0.43277  0.12437  1.0000
  H   H3934     1.0  0.75265  0.62788  0.45670  1.0000
  H   H3935     1.0  0.97455  0.54452  0.11638  1.0000
  H   H3936     1.0  0.98626  0.50555  0.07353  1.0000
  H   H3937     1.0  0.77226  0.40824  0.20738  1.0000
  H   H3938     1.0  0.86120  0.41550  0.10714  1.0000
  H   H3939     1.0  0.92328  0.36347  0.07028  1.0000
  C   C2287     1.0  0.97048  0.36952  0.10452  1.0000
  H   H3940     1.0  0.81770  0.43475  0.11787  1.0000
  C   C2288     1.0  0.84139  0.40069  0.12420  1.0000
  H   H3941     1.0  0.80241  0.40542  0.05208  1.0000
  C   C2289     1.0  0.75264  0.44471  0.45242  1.0000
  H   H3942     1.0  0.97258  0.37479  0.11517  1.0000
  H   H3943     1.0  0.80635  0.43544  0.01878  1.0000
  H   H3944     1.0  0.78326  0.41717  0.04310  1.0000
  S   S674      1.0  0.88015  0.57345  0.99571  1.0000
  C   C2290     1.0  0.81764  0.40215  0.19611  1.0000
  C   C2291     1.0  0.80010  0.40734  0.20531  1.0000
  C   C2292     1.0  0.85980  0.51564  0.00496  1.0000
  H   H3945     1.0  0.88056  0.42577  0.12919  1.0000
  C   C2293     1.0  0.80641  0.39158  0.17599  1.0000
  C   C2294     1.0  0.82084  0.39415  0.18150  1.0000
  H   H3946     1.0  0.79759  0.41346  0.21665  1.0000
  C   C2295     1.0  0.85701  0.44422  0.11978  1.0000
  H   H3947     1.0  0.80886  0.38540  0.16470  1.0000
  H   H3948     1.0  0.83439  0.38997  0.17443  1.0000
  C   C2296     1.0  0.93165  0.41864  0.15856  1.0000
  C   C2297     1.0  0.93644  0.41045  0.17503  1.0000
  C   C2298     1.0  0.95119  0.41421  0.17900  1.0000
  C   C2299     1.0  0.96126  0.42579  0.16633  1.0000
  C   C2300     1.0  0.95608  0.43425  0.15014  1.0000
  C   C2301     1.0  0.94121  0.43080  0.14636  1.0000
  H   H3949     1.0  0.92888  0.40122  0.18459  1.0000
  H   H3950     1.0  0.95504  0.40787  0.19166  1.0000
  H   H3951     1.0  0.96358  0.44340  0.14043  1.0000
  H   H3952     1.0  0.93731  0.43731  0.13376  1.0000
  H   H3953     1.0  0.83156  0.45874  0.14527  1.0000
  S   S675      1.0  0.99991  0.42876  0.11995  1.0000
  C   C2302     1.0  0.86176  0.34972  0.13834  1.0000
  C   C2303     1.0  0.85792  0.34786  0.12279  1.0000
  H   H3954     1.0  0.79960  0.35518  0.28714  1.0000
  H   H3955     1.0  0.86354  0.35534  0.10995  1.0000
  H   H3956     1.0  0.83610  0.39603  0.13863  1.0000
  C   C2304     1.0  0.92367  0.46049  0.08663  1.0000
  C   C2305     1.0  0.93630  0.45941  0.07069  1.0000
  C   C2306     1.0  0.95385  0.46121  0.06931  1.0000
  C   C2307     1.0  0.95908  0.46338  0.08407  1.0000
  C   C2308     1.0  0.94657  0.46402  0.10015  1.0000
  C   C2309     1.0  0.92885  0.46285  0.10132  1.0000
  H   H3957     1.0  0.93251  0.45734  0.05938  1.0000
  H   H3958     1.0  0.96349  0.46068  0.05684  1.0000
  H   H3959     1.0  0.95044  0.46574  0.11159  1.0000
  H   H3960     1.0  0.91915  0.46358  0.11375  1.0000
  C   C2310     1.0  0.85512  0.38605  0.07205  1.0000
  C   C2311     1.0  0.84354  0.37461  0.08189  1.0000
  C   C2312     1.0  0.84374  0.35926  0.07615  1.0000
  C   C2313     1.0  0.85529  0.35544  0.06035  1.0000
  C   C2314     1.0  0.86684  0.36691  0.05043  1.0000
  C   C2315     1.0  0.86696  0.38205  0.05640  1.0000
  H   H3961     1.0  0.83439  0.37759  0.09404  1.0000
  H   H3962     1.0  0.83133  0.41155  0.01300  1.0000
  H   H3963     1.0  0.87580  0.36400  0.03819  1.0000
  H   H3964     1.0  0.87598  0.39077  0.04873  1.0000
  C   C2316     1.0  0.93923  0.39343  0.03407  1.0000
  C   C2317     1.0  0.95737  0.38508  0.03131  1.0000
  C   C2318     1.0  0.92689  0.38526  0.04773  1.0000
  H   H3965     1.0  0.97731  0.36263  0.04063  1.0000
  H   H3966     1.0  0.91278  0.39124  0.04941  1.0000
  H   H3967     1.0  0.80576  0.36177  0.21730  1.0000
  N   N167      1.0  0.82142  0.43275  0.03875  1.0000
  C   C2319     1.0  0.99712  0.34854  0.15842  1.0000
  C   C2320     1.0  0.78303  0.33863  0.13841  1.0000
  C   C2321     1.0  0.93280  0.36936  0.05933  1.0000
  H   H3968     1.0  0.99038  0.34723  0.19424  1.0000
  H   H3969     1.0  0.95591  0.52574  0.11104  1.0000
  H   H3970     1.0  0.95566  0.61295  0.02547  1.0000
  H   H3971     1.0  0.85745  0.34131  0.16697  1.0000
  H   H3972     1.0  0.91428  0.34917  0.11737  1.0000
  C   C2322     1.0  0.95343  0.60764  0.01518  1.0000
  H   H3973     1.0  0.98916  0.38777  0.18895  1.0000
  C   C2323     1.0  0.96260  0.61217  0.99753  1.0000
  H   H3974     1.0  0.84266  0.44770  0.02851  1.0000
  C   C2324     1.0  0.81745  0.43678  0.05712  1.0000
  Fe  Fe337     1.0  0.99535  0.45711  0.10472  1.0000
  N   N168      1.0  0.98248  0.52015  0.09436  1.0000
  C   C2325     1.0  0.93729  0.59062  0.00622  1.0000
  H   H3975     1.0  0.95745  0.41841  0.04349  1.0000
  C   C2326     1.0  0.85178  0.37623  0.24560  1.0000
  S   S676      1.0  0.90211  0.33536  0.21593  1.0000
  C   C2327     1.0  0.78886  0.39653  0.18541  1.0000
  C   C2328     1.0  0.86793  0.49747  0.00876  1.0000
  C   C2329     1.0  0.99405  0.35987  0.18564  1.0000
  Fe  Fe338     1.0  0.99697  0.44063  0.14353  1.0000
  H   H3976     1.0  0.81297  0.46403  0.09978  1.0000
  H   H3977     1.0  0.92456  0.54162  0.99749  1.0000
  C   C2330     1.0  0.99406  0.54944  0.07834  1.0000
  H   H3978     1.0  0.89082  0.64291  0.00212  1.0000
  H   H3979     1.0  0.77176  0.35019  0.13628  1.0000
  C   C2331     1.0  0.83538  0.41566  0.03813  1.0000
  C   C2332     1.0  0.83008  0.44019  0.11209  1.0000
  C   C2333     1.0  0.96326  0.36896  0.04270  1.0000
  H   H3980     1.0  0.91257  0.35279  0.02877  1.0000
  H   H3981     1.0  0.96516  0.35612  0.14927  1.0000
  C   C2334     1.0  0.82163  0.36741  0.23327  1.0000
  H   H3982     1.0  0.86508  0.43761  0.14583  1.0000
  H   H3983     1.0  0.76924  0.34493  0.25956  1.0000
  H   H3984     1.0  0.80803  0.44987  0.05774  1.0000
  C   C2335     1.0  0.81816  0.46674  0.02505  1.0000
  C   C2336     1.0  0.82402  0.46070  0.10709  1.0000
  H   H3985     1.0  0.84242  0.42214  0.15279  1.0000
  N   N169      1.0  0.83170  0.35457  0.24686  1.0000
  H   H3986     1.0  0.92781  0.35689  0.12710  1.0000
  H   H3987     1.0  0.80814  0.42724  0.08547  1.0000
  H   H3988     1.0  0.79486  0.42400  0.07210  1.0000
  H   H3989     1.0  0.99009  0.33717  0.16411  1.0000
  H   H3990     1.0  0.77271  0.42083  0.46066  1.0000
  H   H3991     1.0  0.79395  0.36291  0.26590  1.0000
  C   C2337     1.0  0.79551  0.33676  0.17301  1.0000
  H   H3992     1.0  0.89154  0.47737  0.00239  1.0000
  C   C2338     1.0  0.94100  0.59671  0.01955  1.0000
  C   C2339     1.0  0.89140  0.33299  0.08353  1.0000
  H   H3993     1.0  0.77459  0.44111  0.46575  1.0000
  C   C2340     1.0  0.87118  0.43847  0.13144  1.0000
  C   C2341     1.0  0.80438  0.36307  0.23124  1.0000
  C   C2342     1.0  0.88526  0.49140  0.99958  1.0000
  H   H3994     1.0  0.99513  0.50559  0.11651  1.0000
  C   C2343     1.0  0.96448  0.51550  0.10341  1.0000
  H   H3995     1.0  0.97356  0.40071  0.05305  1.0000
  H   H3996     1.0  0.99076  0.53285  0.12995  1.0000
  H   H3997     1.0  0.98237  0.39282  0.16136  1.0000
  C   C2344     1.0  0.83356  0.43063  0.14367  1.0000
  H   H3998     1.0  0.96692  0.39133  0.02067  1.0000
  H   H3999     1.0  0.93377  0.59351  0.03321  1.0000
  H   H4000     1.0  0.94508  0.36751  0.16157  1.0000
  H   H4001     1.0  0.88262  0.33294  0.07487  1.0000
  H   H4002     1.0  0.96100  0.37614  0.17904  1.0000
  N   N170      1.0  0.90710  0.51515  0.03794  1.0000
  C   C2345     1.0  0.88805  0.51863  0.03558  1.0000
  C   C2346     1.0  0.91530  0.53023  0.02552  1.0000
  C   C2347     1.0  0.90627  0.51562  0.05703  1.0000
  C   C2348     1.0  0.91682  0.49704  0.03399  1.0000
  C   C2349     1.0  0.87622  0.50604  0.04862  1.0000
  H   H4003     1.0  0.79555  0.34343  0.13608  1.0000
  C   C2350     1.0  0.92422  0.51298  0.06246  1.0000
  C   C2351     1.0  0.93748  0.49385  0.02796  1.0000
  H   H4004     1.0  0.88093  0.53258  0.03669  1.0000
  H   H4005     1.0  0.88782  0.51751  0.02197  1.0000
  H   H4006     1.0  0.92918  0.52917  0.02667  1.0000
  H   H4007     1.0  0.90788  0.54326  0.02919  1.0000
  H   H4008     1.0  0.89779  0.52851  0.06021  1.0000
  H   H4009     1.0  0.89988  0.50485  0.06649  1.0000
  H   H4010     1.0  0.91362  0.48635  0.04588  1.0000
  H   H4011     1.0  0.91201  0.49450  0.02306  1.0000
  H   H4012     1.0  0.88272  0.49176  0.04921  1.0000
  H   H4013     1.0  0.87228  0.50888  0.06224  1.0000
  H   H4014     1.0  0.86358  0.50833  0.04396  1.0000
  H   H4015     1.0  0.95860  0.50157  0.08562  1.0000
  C   C2352     1.0  0.79814  0.41429  0.03998  1.0000
  H   H4016     1.0  0.82448  0.47586  0.01326  1.0000
  H   H4017     1.0  0.93226  0.49925  0.06224  1.0000
  H   H4018     1.0  0.92133  0.51441  0.07654  1.0000
  H   H4019     1.0  0.93206  0.52312  0.05441  1.0000
  H   H4020     1.0  0.94327  0.47960  0.03305  1.0000
  H   H4021     1.0  0.94402  0.50183  0.03275  1.0000
  H   H4022     1.0  0.94158  0.49570  0.01321  1.0000
  N   N171      1.0  0.95399  0.40083  0.08959  1.0000
  C   C2353     1.0  0.94829  0.40897  0.07194  1.0000
  C   C2354     1.0  0.93758  0.39654  0.10327  1.0000
  C   C2355     1.0  0.96796  0.38393  0.08745  1.0000
  C   C2356     1.0  0.96168  0.41425  0.09392  1.0000
  C   C2357     1.0  0.96340  0.41293  0.05554  1.0000
  C   C2358     1.0  0.92254  0.41270  0.10736  1.0000
  H   H4023     1.0  0.98251  0.35900  0.10125  1.0000
  C   C2359     1.0  0.96664  0.40976  0.11227  1.0000
  H   H4024     1.0  0.94120  0.40014  0.06883  1.0000
  H   H4025     1.0  0.93859  0.42192  0.07241  1.0000
  H   H4026     1.0  0.94079  0.38914  0.11637  1.0000
  H   H4027     1.0  0.93171  0.38743  0.09899  1.0000
  H   H4028     1.0  0.96482  0.37698  0.07849  1.0000
  H   H4029     1.0  0.98132  0.38716  0.08081  1.0000
  H   H4030     1.0  0.97421  0.41650  0.08409  1.0000
  H   H4031     1.0  0.95266  0.42766  0.09244  1.0000
  H   H4032     1.0  0.98897  0.38292  0.14288  1.0000
  H   H4033     1.0  0.83274  0.44549  0.01179  1.0000
  H   H4034     1.0  0.89111  0.34714  0.08327  1.0000
  H   H4035     1.0  0.91673  0.42028  0.09569  1.0000
  H   H4036     1.0  0.91143  0.40778  0.11772  1.0000
  H   H4037     1.0  0.92706  0.42189  0.11277  1.0000
  H   H4038     1.0  0.81790  0.47186  0.03687  1.0000
  C   C2360     1.0  0.75227  0.33808  0.31092  1.0000
  H   H4039     1.0  0.95899  0.36276  0.10964  1.0000
  H   H4040     1.0  0.98027  0.40123  0.11206  1.0000
  H   H4041     1.0  0.95671  0.40374  0.12316  1.0000
  H   H4042     1.0  0.96644  0.42247  0.11576  1.0000
  H   H4043     1.0  0.83684  0.33903  0.21698  1.0000
  C   C2361     1.0  0.80397  0.35332  0.27313  1.0000
  H   H4044     1.0  0.80435  0.46782  0.02360  1.0000
  H   H4045     1.0  0.86440  0.44468  0.10569  1.0000
  H   H4046     1.0  0.82115  0.37157  0.26623  1.0000
  H   H4047     1.0  0.82346  0.44486  0.16540  1.0000
  H   H4048     1.0  0.76275  0.35776  0.18352  1.0000
  H   H4049     1.0  0.75783  0.42955  0.47921  1.0000
  H   H4050     1.0  0.83575  0.43586  0.09909  1.0000
  H   H4051     1.0  0.85079  0.45835  0.12044  1.0000
  H   H4052     1.0  0.84727  0.41658  0.04251  1.0000
  H   H4053     1.0  0.97130  0.52429  0.13275  1.0000
  H   H4054     1.0  0.99365  0.49241  0.09311  1.0000
  S   S677      1.0  0.95827  0.34167  0.07165  1.0000
  H   H4055     1.0  0.83031  0.40563  0.11690  1.0000
  C   C2362     1.0  0.84693  0.33628  0.12374  1.0000
  C   C2363     1.0  0.85434  0.34013  0.15494  1.0000
  H   H4056     1.0  0.81101  0.34400  0.18783  1.0000
  H   H4057     1.0  0.86305  0.40813  0.12958  1.0000
  C   C2364     1.0  0.80453  0.43222  0.03361  1.0000
  C   C2365     1.0  0.98136  0.53110  0.12263  1.0000
  H   H4058     1.0  0.84975  0.39630  0.02156  1.0000
  H   H4059     1.0  0.83502  0.46686  0.09790  1.0000
  C   C2366     1.0  0.97965  0.53831  0.08200  1.0000
  H   H4060     1.0  0.84384  0.33513  0.11169  1.0000
  H   H4061     1.0  0.90087  0.65940  0.00576  1.0000
  C   C2367     1.0  0.85312  0.41447  0.12103  1.0000
  C   C2368     1.0  0.91556  0.34505  0.04190  1.0000
  H   H4062     1.0  0.83143  0.34919  0.27509  1.0000
  H   H4063     1.0  0.90632  0.63703  0.01681  1.0000
  H   H4064     1.0  0.83053  0.36880  0.21976  1.0000
  H   H4065     1.0  0.99611  0.35279  0.14410  1.0000
  C   C2369     1.0  0.83392  0.33525  0.24620  1.0000
  H   H4066     1.0  0.91253  0.33638  0.15028  1.0000
  C   C2370     1.0  0.82281  0.35738  0.26550  1.0000
  H   H4067     1.0  0.84984  0.38875  0.11910  1.0000
  S   S678      1.0  0.93227  0.41484  0.02169  1.0000
  H   H4068     1.0  0.85190  0.41862  0.01089  1.0000
  C   C2371     1.0  0.78575  0.40430  0.20013  1.0000
  H   H4069     1.0  0.80024  0.34686  0.16119  1.0000
  H   H4070     1.0  0.79287  0.37440  0.23359  1.0000
  H   H4071     1.0  0.80220  0.40679  0.02904  1.0000
  C   C2372     1.0  0.96831  0.36477  0.17247  1.0000
  H   H4072     1.0  0.84267  0.38771  0.23896  1.0000
  H   H4073     1.0  0.84642  0.52036  0.01212  1.0000
  H   H4074     1.0  0.82290  0.42297  0.14624  1.0000
  S   S679      1.0  0.77090  0.39253  0.17913  1.0000
  H   H4075     1.0  0.87957  0.44867  0.12756  1.0000
  C   C2373     1.0  0.99184  0.38129  0.15628  1.0000
  C   C2374     1.0  0.82418  0.44781  0.15075  1.0000
  C   C2375     1.0  0.75516  0.35767  0.28161  1.0000
  H   H4076     1.0  0.93011  0.34338  0.04090  1.0000
  H   H4077     1.0  0.83079  0.40400  0.04766  1.0000
  C   C2376     1.0  0.80882  0.42343  0.07277  1.0000
  H   H4078     1.0  0.99274  0.37097  0.20837  1.0000
  C   C2377     1.0  0.82962  0.44759  0.02569  1.0000
  C   C2378     1.0  0.95097  0.36123  0.05681  1.0000
  H   H4079     1.0  0.96994  0.42326  0.05655  1.0000
  S   S680      1.0  0.85582  0.33616  0.05303  1.0000
  C   C2379     1.0  0.84229  0.41044  0.01973  1.0000
  C   C2380     1.0  0.76458  0.34304  0.27387  1.0000
  C   C2381     1.0  0.76504  0.43329  0.46526  1.0000
  H   H4080     1.0  0.86564  0.37830  0.23966  1.0000
  H   H4081     1.0  0.84933  0.37637  0.25999  1.0000
  H   H4082     1.0  0.81785  0.38110  0.23608  1.0000
  C   C2382     1.0  0.95960  0.36723  0.15650  1.0000
  H   H4083     1.0  0.85906  0.34754  0.25101  1.0000
  H   H4084     1.0  0.93949  0.51279  0.09897  1.0000
  H   H4085     1.0  0.82995  0.43795  0.06031  1.0000
  H   H4086     1.0  0.99130  0.56137  0.06756  1.0000
  H   H4087     1.0  0.81671  0.40955  0.07380  1.0000
  Fe  Fe339     1.0  0.98820  0.33608  0.06697  1.0000
  H   H4088     1.0  0.92103  0.51947  0.00093  1.0000
  H   H4089     1.0  0.85711  0.35772  0.22870  1.0000
  C   C2383     1.0  0.90324  0.64558  0.00396  1.0000
  H   H4090     1.0  0.90233  0.53807  0.00247  1.0000
  C   C2384     1.0  0.85037  0.35815  0.24281  1.0000
  H   H4091     1.0  0.93823  0.34081  0.11344  1.0000
  H   H4092     1.0  0.99366  0.55451  0.09022  1.0000
  H   H4093     1.0  0.79404  0.33272  0.20204  1.0000
  C   C2385     1.0  0.79702  0.34265  0.18950  1.0000
  C   C2386     1.0  0.91579  0.53224  0.00553  1.0000
  H   H4094     1.0  0.90784  0.35330  0.05181  1.0000
  H   H4095     1.0  0.80039  0.35097  0.24029  1.0000
  H   H4096     1.0  0.75965  0.44174  0.43909  1.0000
  S   S681      1.0  0.75756  0.36181  0.22377  1.0000
  H   H4097     1.0  0.96607  0.50263  0.11341  1.0000
  N   N172      1.0  0.77727  0.33449  0.17272  1.0000
  H   H4098     1.0  0.97174  0.37584  0.20208  1.0000
  C   C2387     1.0  0.99188  0.51953  0.10883  1.0000
  H   H4099     1.0  0.78840  0.35590  0.19083  1.0000
  H   H4100     1.0  0.77039  0.36284  0.16042  1.0000
  H   H4101     1.0  0.80352  0.33936  0.27369  1.0000
  H   H4102     1.0  0.92001  0.33200  0.07608  1.0000
  H   H4103     1.0  0.75266  0.45912  0.45072  1.0000
  C   C2388     1.0  0.77056  0.52197  0.70700  1.0000
  H   H4104     1.0  0.96296  0.65599  0.67621  1.0000
  C   C2389     1.0  0.80595  0.61395  0.92139  1.0000
  Fe  Fe340     1.0  0.97747  0.60053  0.84355  1.0000
  S   S682      1.0  0.96991  0.57654  0.86328  1.0000
  S   S683      1.0  0.97974  0.62348  0.85382  1.0000
  Fe  Fe341     1.0  0.97681  0.58587  0.81198  1.0000
  S   S684      1.0  0.96921  0.56050  0.82931  1.0000
  S   S685      1.0  0.98125  0.59091  0.78206  1.0000
  Fe  Fe342     1.0  0.95036  0.57886  0.84648  1.0000
  S   S686      1.0  0.92211  0.57747  0.86066  1.0000
  H   H4105     1.0  0.97534  0.63140  0.77786  1.0000
  S   S687      1.0  0.95638  0.60420  0.82800  1.0000
  C   C2390     1.0  0.96675  0.66008  0.70146  1.0000
  Fe  Fe343     1.0  0.87134  0.64655  0.76481  1.0000
  S   S688      1.0  0.88231  0.62118  0.78258  1.0000
  H   H4106     1.0  0.77007  0.61406  0.50293  1.0000
  Fe  Fe344     1.0  0.85102  0.62811  0.74948  1.0000
  S   S689      1.0  0.86175  0.60102  0.76492  1.0000
  S   S690      1.0  0.83128  0.63538  0.73114  1.0000
  Fe  Fe345     1.0  0.85530  0.61506  0.78768  1.0000
  S   S691      1.0  0.84308  0.60007  0.81425  1.0000
  Fe  Fe346     1.0  0.88800  0.60971  0.75835  1.0000
  S   S692      1.0  0.91546  0.59375  0.74913  1.0000
  S   S693      1.0  0.84330  0.64183  0.77268  1.0000
  S   S694      1.0  0.87812  0.63537  0.74026  1.0000
  H   H4107     1.0  0.95133  0.63273  0.71158  1.0000
  C   C2391     1.0  0.92682  0.65050  0.77770  1.0000
  S   S695      1.0  0.91797  0.61280  0.92450  1.0000
  C   C2392     1.0  0.87058  0.65897  0.83138  1.0000
  S   S696      1.0  0.89738  0.53618  0.96526  1.0000
  H   H4108     1.0  0.87605  0.59215  0.82880  1.0000
  C   C2393     1.0  0.84291  0.63723  0.96332  1.0000
  H   H4109     1.0  0.93501  0.63726  0.78087  1.0000
  H   H4110     1.0  0.78755  0.58518  0.79925  1.0000
  H   H4111     1.0  0.78230  0.65008  0.78816  1.0000
  H   H4112     1.0  0.76886  0.56320  0.71481  1.0000
  H   H4113     1.0  0.78990  0.64911  0.76471  1.0000
  N   N173      1.0  0.90162  0.55856  0.82204  1.0000
  H   H4114     1.0  0.91110  0.53317  0.81330  1.0000
  H   H4115     1.0  0.90742  0.49859  0.97873  1.0000
  C   C2394     1.0  0.83322  0.58787  0.95178  1.0000
  H   H4116     1.0  0.82532  0.58130  0.94690  1.0000
  H   H4117     1.0  0.99120  0.58321  0.91706  1.0000
  H   H4118     1.0  0.82012  0.57267  0.78783  1.0000
  H   H4119     1.0  0.91269  0.61158  0.81223  1.0000
  H   H4120     1.0  0.90378  0.66337  0.80679  1.0000
  C   C2395     1.0  0.79664  0.59421  0.79087  1.0000
  C   C2396     1.0  0.96740  0.56680  0.94499  1.0000
  H   H4121     1.0  0.97452  0.63818  0.73332  1.0000
  H   H4122     1.0  0.86968  0.63880  0.96295  1.0000
  C   C2397     1.0  0.94671  0.59477  0.98855  1.0000
  C   C2398     1.0  0.81606  0.62224  0.73164  1.0000
  C   C2399     1.0  0.80177  0.63011  0.72281  1.0000
  C   C2400     1.0  0.78916  0.62032  0.72315  1.0000
  H   H4123     1.0  0.95607  0.53866  0.92092  1.0000
  C   C2401     1.0  0.80520  0.59449  0.74088  1.0000
  C   C2402     1.0  0.81779  0.60432  0.74062  1.0000
  H   H4124     1.0  0.80035  0.64391  0.71571  1.0000
  H   H4125     1.0  0.77825  0.62662  0.71629  1.0000
  H   H4126     1.0  0.82885  0.59800  0.74727  1.0000
  H   H4127     1.0  0.91396  0.56627  0.78290  1.0000
  H   H4128     1.0  0.93255  0.54641  0.79808  1.0000
  C   C2403     1.0  0.85859  0.63172  0.91158  1.0000
  C   C2404     1.0  0.83426  0.61183  0.83157  1.0000
  C   C2405     1.0  0.83515  0.62974  0.82928  1.0000
  C   C2406     1.0  0.82783  0.63858  0.84366  1.0000
  H   H4129     1.0  0.77692  0.55432  0.68948  1.0000
  Fe  Fe347     1.0  0.98964  0.56076  0.84422  1.0000
  H   H4130     1.0  0.84130  0.63678  0.81645  1.0000
  H   H4131     1.0  0.82826  0.65246  0.84193  1.0000
  C   C2407     1.0  0.96255  0.59270  0.77314  1.0000
  C   C2408     1.0  0.94501  0.59717  0.78278  1.0000
  C   C2409     1.0  0.93036  0.59809  0.77537  1.0000
  C   C2410     1.0  0.93324  0.59428  0.75842  1.0000
  C   C2411     1.0  0.95079  0.58996  0.74883  1.0000
  C   C2412     1.0  0.96535  0.58939  0.75605  1.0000
  H   H4132     1.0  0.94282  0.59983  0.79593  1.0000
  H   H4133     1.0  0.91695  0.60117  0.78300  1.0000
  H   H4134     1.0  0.95317  0.58689  0.73579  1.0000
  H   H4135     1.0  0.97887  0.58592  0.74854  1.0000
  C   C2413     1.0  0.91899  0.58841  0.87805  1.0000
  C   C2414     1.0  0.90969  0.58196  0.89513  1.0000
  C   C2415     1.0  0.90938  0.58936  0.90946  1.0000
  C   C2416     1.0  0.91789  0.60355  0.90667  1.0000
  C   C2417     1.0  0.92708  0.61000  0.88950  1.0000
  C   C2418     1.0  0.92755  0.60252  0.87526  1.0000
  H   H4136     1.0  0.90364  0.57060  0.89748  1.0000
  H   H4137     1.0  0.90325  0.58346  0.92269  1.0000
  H   H4138     1.0  0.93465  0.62017  0.88721  1.0000
  H   H4139     1.0  0.93505  0.60740  0.86219  1.0000
  H   H4140     1.0  0.75505  0.64540  0.59834  1.0000
  H   H4141     1.0  0.88582  0.62240  0.87435  1.0000
  C   C2419     1.0  0.82850  0.65989  0.94114  1.0000
  H   H4142     1.0  0.84595  0.57851  0.95415  1.0000
  H   H4143     1.0  0.86112  0.65001  0.83842  1.0000
  H   H4144     1.0  0.95006  0.64206  0.96667  1.0000
  H   H4145     1.0  0.92259  0.62862  0.81377  1.0000
  H   H4146     1.0  0.88572  0.61491  0.85524  1.0000
  H   H4147     1.0  0.81408  0.62303  0.78751  1.0000
  N   N174      1.0  0.84010  0.60705  0.91963  1.0000
  Fe  Fe348     1.0  0.87051  0.59973  0.97797  1.0000
  H   H4148     1.0  0.96553  0.66239  0.90381  1.0000
  H   H4149     1.0  0.82527  0.58905  0.84986  1.0000
  H   H4150     1.0  0.95489  0.60399  0.90858  1.0000
  C   C2420     1.0  0.93743  0.63301  0.95092  1.0000
  H   H4151     1.0  0.78584  0.53205  0.67032  1.0000
  H   H4152     1.0  0.86271  0.54178  0.98903  1.0000
  H   H4153     1.0  0.90786  0.64126  0.76931  1.0000
  C   C2421     1.0  0.99071  0.54793  0.90227  1.0000
  H   H4154     1.0  0.90128  0.54861  0.78924  1.0000
  H   H4155     1.0  0.82381  0.58908  0.91884  1.0000
  C   C2422     1.0  0.91120  0.65270  0.77147  1.0000
  C   C2423     1.0  0.96024  0.64057  0.74014  1.0000
  H   H4156     1.0  0.92135  0.64483  0.89790  1.0000
  C   C2424     1.0  0.90066  0.56285  0.78866  1.0000
  H   H4157     1.0  0.89241  0.65517  0.69124  1.0000
  C   C2425     1.0  0.77071  0.61874  0.79212  1.0000
  H   H4158     1.0  0.79603  0.61104  0.91551  1.0000
  C   C2426     1.0  0.81873  0.61162  0.86229  1.0000
  H   H4159     1.0  0.80490  0.62860  0.91754  1.0000
  H   H4160     1.0  0.81575  0.64007  0.96098  1.0000
  C   C2427     1.0  0.85822  0.64452  0.95692  1.0000
  H   H4161     1.0  0.75374  0.58716  0.56679  1.0000
  N   N175      1.0  0.92195  0.65520  0.97202  1.0000
  H   H4162     1.0  0.88923  0.53612  0.82627  1.0000
  C   C2428     1.0  0.80188  0.62485  0.78221  1.0000
  H   H4163     1.0  0.93132  0.63572  0.99441  1.0000
  C   C2429     1.0  0.96541  0.60126  0.91632  1.0000
  H   H4164     1.0  0.88849  0.65243  0.85730  1.0000
  C   C2430     1.0  0.85750  0.59482  0.91310  1.0000
  C   C2431     1.0  0.85721  0.57510  0.91462  1.0000
  H   H4165     1.0  0.77622  0.51438  0.69612  1.0000
  H   H4166     1.0  0.89203  0.58296  0.80395  1.0000
  C   C2432     1.0  0.89240  0.56839  0.80674  1.0000
  H   H4167     1.0  0.99800  0.62297  0.76822  1.0000
  C   C2433     1.0  0.97817  0.58320  0.91424  1.0000
  H   H4168     1.0  0.90685  0.63584  0.84991  1.0000
  Fe  Fe349     1.0  0.90516  0.59797  0.95087  1.0000
  H   H4169     1.0  0.78183  0.60199  0.82287  1.0000
  S   S697      1.0  0.91861  0.57209  0.96581  1.0000
  C   C2434     1.0  0.99353  0.63000  0.87908  1.0000
  H   H4170     1.0  0.95214  0.64569  0.91295  1.0000
  H   H4171     1.0  0.77789  0.62569  0.76244  1.0000
  C   C2435     1.0  0.99374  0.61758  0.86930  1.0000
  H   H4172     1.0  0.80680  0.62088  0.76906  1.0000
  S   S698      1.0  0.81038  0.63950  0.87872  1.0000
  H   H4173     1.0  0.81223  0.60458  0.87496  1.0000
  H   H4174     1.0  0.80390  0.60606  0.81633  1.0000
  H   H4175     1.0  0.82692  0.60584  0.89947  1.0000
  C   C2436     1.0  0.90654  0.65990  0.96254  1.0000
  H   H4176     1.0  0.96682  0.60870  0.97060  1.0000
  H   H4177     1.0  0.80666  0.58064  0.74780  1.0000
  C   C2437     1.0  0.95411  0.56708  0.92029  1.0000
  H   H4178     1.0  0.82497  0.59050  0.96489  1.0000
  C   C2438     1.0  0.75770  0.60928  0.50731  1.0000
  C   C2439     1.0  0.95963  0.60534  0.98424  1.0000
  H   H4179     1.0  0.79341  0.63814  0.81400  1.0000
  C   C2440     1.0  0.86320  0.66092  0.69360  1.0000
  C   C2441     1.0  0.91598  0.65843  0.90061  1.0000
  S   S699      1.0  0.89492  0.61045  0.97481  1.0000
  H   H4180     1.0  0.81643  0.58043  0.80785  1.0000
  C   C2442     1.0  0.92832  0.65769  0.86122  1.0000
  H   H4181     1.0  0.99527  0.56189  0.94870  1.0000
  H   H4182     1.0  0.95921  0.60206  0.93036  1.0000
  C   C2443     1.0  0.76808  0.61934  0.77332  1.0000
  H   H4183     1.0  0.80411  0.65269  0.77656  1.0000
  C   C2444     1.0  0.84174  0.62604  0.91044  1.0000
  H   H4184     1.0  0.76231  0.60969  0.80183  1.0000
  H   H4185     1.0  0.86797  0.59481  0.92009  1.0000
  H   H4186     1.0  0.95057  0.65040  0.88394  1.0000
  H   H4187     1.0  0.83008  0.63588  0.91593  1.0000
  H   H4188     1.0  0.87813  0.56707  0.81027  1.0000
  H   H4189     1.0  0.85010  0.57380  0.90484  1.0000
  C   C2445     1.0  0.95188  0.65986  0.90610  1.0000
  C   C2446     1.0  0.88984  0.56449  0.83871  1.0000
  C   C2447     1.0  0.90273  0.53876  0.82492  1.0000
  C   C2448     1.0  0.91969  0.56315  0.81900  1.0000
  C   C2449     1.0  0.88513  0.58475  0.83806  1.0000
  C   C2450     1.0  0.91014  0.52713  0.84140  1.0000
  C   C2451     1.0  0.93580  0.55230  0.80765  1.0000
  H   H4190     1.0  0.87692  0.55998  0.84220  1.0000
  H   H4191     1.0  0.89632  0.55836  0.85041  1.0000
  S   S700      1.0  0.98836  0.63617  0.93897  1.0000
  H   H4192     1.0  0.91906  0.57758  0.81288  1.0000
  H   H4193     1.0  0.92350  0.56111  0.83205  1.0000
  H   H4194     1.0  0.89732  0.59028  0.83453  1.0000
  H   H4195     1.0  0.87791  0.58714  0.85153  1.0000
  H   H4196     1.0  0.91342  0.51285  0.84048  1.0000
  H   H4197     1.0  0.92253  0.53050  0.84236  1.0000
  H   H4198     1.0  0.90000  0.52832  0.85393  1.0000
  C   C2452     1.0  0.79073  0.60247  0.73227  1.0000
  H   H4199     1.0  0.94381  0.54167  0.81640  1.0000
  C   C2453     1.0  0.82474  0.60331  0.91429  1.0000
  H   H4200     1.0  0.89207  0.57070  0.77902  1.0000
  C   C2454     1.0  0.82606  0.60285  0.84807  1.0000
  H   H4201     1.0  0.77001  0.58363  0.50045  1.0000
  H   H4202     1.0  0.94399  0.58989  0.97826  1.0000
  H   H4203     1.0  0.87120  0.56754  0.91125  1.0000
  H   H4204     1.0  0.76429  0.63208  0.79518  1.0000
  C   C2455     1.0  0.89421  0.50340  0.98619  1.0000
  C   C2456     1.0  0.98210  0.57095  0.95185  1.0000
  C   C2457     1.0  0.81964  0.62944  0.86020  1.0000
  H   H4205     1.0  0.96487  0.55359  0.95308  1.0000
  Fe  Fe350     1.0  0.99428  0.63327  0.96578  1.0000
  H   H4206     1.0  0.77010  0.63594  0.81942  1.0000
  N   N176      1.0  0.97127  0.56692  0.92528  1.0000
  H   H4207     1.0  0.96000  0.64072  0.75412  1.0000
  H   H4208     1.0  0.94507  0.56120  0.79965  1.0000
  C   C2458     1.0  0.91911  0.64092  0.98871  1.0000
  H   H4209     1.0  0.87117  0.62404  0.90472  1.0000
  H   H4210     1.0  0.93295  0.62150  0.96078  1.0000
  C   C2459     1.0  0.76590  0.55062  0.68593  1.0000
  H   H4211     1.0  0.82547  0.61653  0.94383  1.0000
  H   H4212     1.0  0.86171  0.65786  0.80762  1.0000
  C   C2460     1.0  0.83671  0.60574  0.93947  1.0000
  H   H4213     1.0  0.95519  0.57077  0.90556  1.0000
  H   H4214     1.0  0.75806  0.49885  0.72003  1.0000
  H   H4215     1.0  0.93951  0.64800  0.69622  1.0000
  H   H4216     1.0  0.84171  0.62842  0.89596  1.0000
  C   C2461     1.0  0.78398  0.62907  0.82066  1.0000
  C   C2462     1.0  0.92323  0.64197  0.72209  1.0000
  H   H4217     1.0  0.93383  0.55180  0.92409  1.0000
  S   S701      1.0  0.77468  0.58989  0.73362  1.0000
  H   H4218     1.0  0.85788  0.64600  0.90485  1.0000
  S   S702      1.0  0.84294  0.61744  0.97988  1.0000
  H   H4219     1.0  0.86231  0.65177  0.70700  1.0000
  S   S703      1.0  0.88032  0.58870  0.95319  1.0000
  H   H4220     1.0  0.86277  0.59982  0.89863  1.0000
  C   C2463     1.0  0.82780  0.64535  0.95580  1.0000
  H   H4221     1.0  0.85465  0.65672  0.68716  1.0000
  H   H4222     1.0  0.84817  0.60838  0.94314  1.0000
  H   H4223     1.0  0.79675  0.59435  0.77682  1.0000
  C   C2464     1.0  0.75764  0.59206  0.50581  1.0000
  H   H4224     1.0  0.98563  0.64343  0.87629  1.0000
  H   H4225     1.0  0.85139  0.56844  0.92819  1.0000
  H   H4226     1.0  0.82563  0.59342  0.78647  1.0000
  Fe  Fe351     1.0  0.90556  0.58335  0.99015  1.0000
  H   H4227     1.0  0.80185  0.60992  0.93611  1.0000
  H   H4228     1.0  0.97290  0.61213  0.91067  1.0000
  H   H4229     1.0  0.94535  0.54526  0.94209  1.0000
  H   H4230     1.0  0.99100  0.65017  0.82083  1.0000
  H   H4231     1.0  0.91189  0.65006  0.71576  1.0000
  C   C2465     1.0  0.94126  0.64557  0.71017  1.0000
  Fe  Fe352     1.0  0.89271  0.56368  0.97025  1.0000
  H   H4232     1.0  0.91651  0.65407  0.82341  1.0000
  C   C2466     1.0  0.98547  0.55062  0.92172  1.0000
  H   H4233     1.0  0.94314  0.57773  0.92537  1.0000
  H   H4234     1.0  0.91985  0.64803  0.86901  1.0000
  C   C2467     1.0  0.76416  0.50816  0.72363  1.0000
  C   C2468     1.0  0.94716  0.54957  0.92737  1.0000
  S   S704      1.0  0.97571  0.62823  0.99249  1.0000
  H   H4235     1.0  0.95427  0.62922  0.74070  1.0000
  S   S705      1.0  0.94973  0.66148  0.79072  1.0000
  C   C2469     1.0  0.99370  0.63310  0.79304  1.0000
  H   H4236     1.0  0.85949  0.63061  0.92551  1.0000
  N   N177      1.0  0.88963  0.64879  0.83090  1.0000
  C   C2470     1.0  0.89240  0.64150  0.84977  1.0000
  H   H4237     1.0  0.86736  0.63201  0.86347  1.0000
  C   C2471     1.0  0.89299  0.63404  0.82101  1.0000
  H   H4238     1.0  0.78252  0.52564  0.70880  1.0000
  C   C2472     1.0  0.88206  0.62693  0.86110  1.0000
  H   H4239     1.0  0.77964  0.55424  0.65808  1.0000
  C   C2473     1.0  0.91157  0.62140  0.82035  1.0000
  H   H4240     1.0  0.92313  0.62761  0.72400  1.0000
  C   C2474     1.0  0.79012  0.61151  0.81385  1.0000
  H   H4241     1.0  0.98105  0.58305  0.89978  1.0000
  H   H4242     1.0  0.94267  0.65098  0.85959  1.0000
  H   H4243     1.0  0.95487  0.57653  0.94891  1.0000
  H   H4244     1.0  0.88255  0.62588  0.82652  1.0000
  H   H4245     1.0  0.89181  0.63975  0.80686  1.0000
  C   C2475     1.0  0.88610  0.52156  0.98237  1.0000
  H   H4246     1.0  0.91365  0.61377  0.83378  1.0000
  C   C2476     1.0  0.93874  0.64779  0.95960  1.0000
  H   H4247     1.0  0.97820  0.56916  0.96662  1.0000
  H   H4248     1.0  0.92090  0.64416  0.73575  1.0000
  C   C2477     1.0  0.94937  0.65863  0.73175  1.0000
  H   H4249     1.0  0.75449  0.62717  0.77176  1.0000
  H   H4250     1.0  0.98198  0.53812  0.93078  1.0000
  H   H4251     1.0  0.91720  0.65700  0.91458  1.0000
  C   C2478     1.0  0.88261  0.65619  0.68310  1.0000
  H   H4252     1.0  0.88926  0.65299  0.91082  1.0000
  H   H4253     1.0  0.97918  0.55159  0.89571  1.0000
  S   S706      1.0  0.75944  0.64555  0.55349  1.0000
  C   C2479     1.0  0.75397  0.64500  0.62580  1.0000
  H   H4254     1.0  0.98354  0.58503  0.94657  1.0000
  C   C2480     1.0  0.81580  0.58489  0.79351  1.0000
  C   C2481     1.0  0.85871  0.65939  0.94273  1.0000
  N   N178      1.0  0.78982  0.61283  0.79461  1.0000
  H   H4255     1.0  0.88495  0.64285  0.67986  1.0000
  H   H4256     1.0  0.78424  0.62595  0.83511  1.0000
  C   C2482     1.0  0.86902  0.52776  0.99198  1.0000
  H   H4257     1.0  0.75634  0.56345  0.68228  1.0000
  H   H4258     1.0  0.98573  0.64575  0.79705  1.0000
  C   C2483     1.0  0.76113  0.55365  0.72447  1.0000
  H   H4259     1.0  0.99619  0.53353  0.90215  1.0000
  C   C2484     1.0  0.98917  0.63357  0.77513  1.0000
  H   H4260     1.0  0.90180  0.64768  0.96315  1.0000
  H   H4261     1.0  0.92852  0.63817  0.94120  1.0000
  C   C2485     1.0  0.94639  0.66355  0.88799  1.0000
  S   S707      1.0  0.75318  0.59943  0.69134  1.0000
  H   H4262     1.0  0.76888  0.60575  0.77143  1.0000
  H   H4263     1.0  0.76445  0.53968  0.66343  1.0000
  H   H4264     1.0  0.77036  0.54183  0.73052  1.0000
  H   H4265     1.0  0.98808  0.62222  0.80324  1.0000
  H   H4266     1.0  0.94326  0.65864  0.94846  1.0000
  H   H4267     1.0  0.77580  0.50035  0.72964  1.0000
  H   H4268     1.0  0.97540  0.64654  0.70434  1.0000
  C   C2486     1.0  0.77433  0.54344  0.66861  1.0000
  H   H4269     1.0  0.99815  0.55113  0.92492  1.0000
  H   H4270     1.0  0.76114  0.65566  0.62256  1.0000
  N   N179      1.0  0.75668  0.53822  0.70144  1.0000
  H   H4271     1.0  0.95095  0.62777  0.94344  1.0000
  C   C2487     1.0  0.79368  0.64514  0.77796  1.0000
  H   H4272     1.0  0.98944  0.64684  0.76604  1.0000
  H   H4273     1.0  0.75464  0.51426  0.73442  1.0000
  N   N180      1.0  0.94802  0.66062  0.71270  1.0000
  H   H4274     1.0  0.91706  0.62888  0.98558  1.0000
  H   H4275     1.0  0.00094  0.55568  0.89400  1.0000
  S   S708      1.0  0.99883  0.58472  0.82558  1.0000
  Fe  Fe353     1.0  0.00071  0.66022  0.93081  1.0000
  H   H4276     1.0  0.75325  0.56056  0.73545  1.0000
  H   H4277     1.0  0.89309  0.66298  0.88767  1.0000
  H   H4278     1.0  0.93608  0.66041  0.74073  1.0000
  C   C2488     1.0  0.90271  0.66071  0.82136  1.0000
  H   H4279     1.0  0.92556  0.66187  0.84757  1.0000
  C   C2489     1.0  0.89578  0.66321  0.90062  1.0000
  H   H4280     1.0  0.98273  0.66367  0.67443  1.0000
  Fe  Fe354     1.0  0.75143  0.60221  0.71921  1.0000
  H   H4281     1.0  0.99590  0.87404  0.47562  1.0000
  H   H4282     1.0  0.99735  0.85210  0.48926  1.0000
  H   H4283     1.0  0.89809  0.96412  0.49267  1.0000
  Fe  Fe355     1.0  0.93936  0.71197  0.82261  1.0000
  S   S709      1.0  0.95481  0.68368  0.82766  1.0000
  S   S710      1.0  0.91647  0.71987  0.84466  1.0000
  Fe  Fe356     1.0  0.96313  0.72080  0.78610  1.0000
  S   S711      1.0  0.98088  0.69339  0.78909  1.0000
  S   S712      1.0  0.96528  0.74091  0.76008  1.0000
  Fe  Fe357     1.0  0.95483  0.68431  0.79931  1.0000
  Fe  Fe358     1.0  0.97879  0.69603  0.81713  1.0000
  H   H4284     1.0  0.91103  0.66551  0.94805  1.0000
  S   S713      1.0  0.93725  0.71152  0.79521  1.0000
  S   S714      1.0  0.96341  0.72444  0.81324  1.0000
  H   H4285     1.0  0.81097  0.71008  0.92216  1.0000
  H   H4286     1.0  0.78447  0.80606  0.56700  1.0000
  H   H4287     1.0  0.93221  0.85522  0.55139  1.0000
  H   H4288     1.0  0.91002  0.68555  0.82028  1.0000
  C   C2490     1.0  0.88994  0.67385  0.96890  1.0000
  H   H4289     1.0  0.87178  0.76610  0.62495  1.0000
  Fe  Fe359     1.0  0.81370  0.66710  0.87717  1.0000
  C   C2491     1.0  0.86423  0.93701  0.70080  1.0000
  Fe  Fe360     1.0  0.75318  0.67466  0.55527  1.0000
  H   H4290     1.0  0.86690  0.66945  0.83943  1.0000
  H   H4291     1.0  0.83475  0.91475  0.73448  1.0000
  H   H4292     1.0  0.82537  0.73309  0.96181  1.0000
  H   H4293     1.0  0.76709  0.84364  0.77251  1.0000
  S   S715      1.0  0.98709  0.68532  0.91411  1.0000
  S   S716      1.0  0.81977  0.71316  0.87925  1.0000
  H   H4294     1.0  0.84114  0.94028  0.72207  1.0000
  C   C2492     1.0  0.80960  0.79420  0.51964  1.0000
  H   H4295     1.0  0.93477  0.78459  0.57446  1.0000
  H   H4296     1.0  0.79080  0.76909  0.94280  1.0000
  H   H4297     1.0  0.80499  0.74561  0.53696  1.0000
  C   C2493     1.0  0.77451  0.76722  0.54943  1.0000
  S   S717      1.0  0.84590  0.68425  0.91565  1.0000
  Fe  Fe361     1.0  0.80829  0.76929  0.62987  1.0000
  S   S718      1.0  0.83553  0.77062  0.61287  1.0000
  S   S719      1.0  0.80215  0.77750  0.65631  1.0000
  Fe  Fe362     1.0  0.79807  0.75201  0.60458  1.0000
  S   S720      1.0  0.82478  0.75202  0.58573  1.0000
  S   S721      1.0  0.77445  0.74388  0.59961  1.0000
  Fe  Fe363     1.0  0.83614  0.74302  0.61052  1.0000
  S   S722      1.0  0.86165  0.72276  0.61294  1.0000
  Fe  Fe364     1.0  0.82162  0.77978  0.58987  1.0000
  S   S723      1.0  0.82828  0.80218  0.56650  1.0000
  S   S724      1.0  0.80978  0.74074  0.62924  1.0000
  S   S725      1.0  0.79402  0.78065  0.60704  1.0000
  Fe  Fe365     1.0  0.86625  0.91904  0.54473  1.0000
  S   S726      1.0  0.86180  0.90816  0.57415  1.0000
  H   H4298     1.0  0.95622  0.80888  0.68100  1.0000
  Fe  Fe366     1.0  0.90065  0.89238  0.53803  1.0000
  S   S727      1.0  0.89952  0.87975  0.56701  1.0000
  S   S728      1.0  0.92330  0.88000  0.51848  1.0000
  Fe  Fe367     1.0  0.87081  0.88094  0.56771  1.0000
  S   S729      1.0  0.85981  0.85788  0.58693  1.0000
  Fe  Fe368     1.0  0.89065  0.90783  0.57106  1.0000
  S   S730      1.0  0.89543  0.91700  0.59336  1.0000
  S   S731      1.0  0.87238  0.89171  0.53831  1.0000
  S   S732      1.0  0.89474  0.92052  0.54206  1.0000
  Fe  Fe369     1.0  0.95825  0.72530  0.67384  1.0000
  S   S733      1.0  0.96845  0.74681  0.65181  1.0000
  S   S734      1.0  0.97314  0.70661  0.69418  1.0000
  Fe  Fe370     1.0  0.92128  0.73501  0.66538  1.0000
  S   S735      1.0  0.92807  0.75717  0.64237  1.0000
  S   S736      1.0  0.89311  0.73079  0.67502  1.0000
  Fe  Fe371     1.0  0.95414  0.73827  0.63563  1.0000
  Fe  Fe372     1.0  0.94156  0.76389  0.66039  1.0000
  S   S737      1.0  0.93762  0.79278  0.66092  1.0000
  S   S738      1.0  0.94607  0.71511  0.65699  1.0000
  S   S739      1.0  0.93282  0.74314  0.68412  1.0000
  Fe  Fe373     1.0  0.84938  0.84225  0.69973  1.0000
  S   S740      1.0  0.85452  0.85289  0.67010  1.0000
  S   S741      1.0  0.86402  0.81554  0.71193  1.0000
  Fe  Fe374     1.0  0.81916  0.87302  0.70773  1.0000
  S   S742      1.0  0.82124  0.88609  0.67887  1.0000
  S   S743      1.0  0.79995  0.88382  0.73078  1.0000
  Fe  Fe375     1.0  0.82461  0.85863  0.67419  1.0000
  S   S744      1.0  0.81173  0.85505  0.65356  1.0000
  Fe  Fe376     1.0  0.85092  0.87934  0.67731  1.0000
  S   S745      1.0  0.86489  0.90149  0.66045  1.0000
  S   S746      1.0  0.81969  0.84608  0.70333  1.0000
  S   S747      1.0  0.84867  0.86804  0.70666  1.0000
  H   H4299     1.0  0.90253  0.72964  0.81238  1.0000
  Fe  Fe377     1.0  0.96601  0.94709  0.61369  1.0000
  S   S748      1.0  0.96788  0.91863  0.62846  1.0000
  S   S749      1.0  0.95948  0.95322  0.58645  1.0000
  Fe  Fe378     1.0  0.95430  0.93017  0.65275  1.0000
  S   S750      1.0  0.93461  0.91606  0.67471  1.0000
  S   S751      1.0  0.95050  0.95879  0.63759  1.0000
  C   C2494     1.0  0.83967  0.90610  0.72463  1.0000
  C   C2495     1.0  0.80653  0.75399  0.54545  1.0000
  H   H4300     1.0  0.87528  0.70452  0.71443  1.0000
  N   N181      1.0  0.92089  0.82127  0.55956  1.0000
  S   S752      1.0  0.77621  0.68727  0.55464  1.0000
  C   C2496     1.0  0.98965  0.79094  0.62828  1.0000
  C   C2497     1.0  0.88393  0.90553  0.66508  1.0000
  C   C2498     1.0  0.89170  0.89488  0.67931  1.0000
  C   C2499     1.0  0.90707  0.89844  0.68229  1.0000
  C   C2500     1.0  0.91498  0.91240  0.67086  1.0000
  C   C2501     1.0  0.90705  0.92315  0.65677  1.0000
  C   C2502     1.0  0.89144  0.91984  0.65407  1.0000
  H   H4301     1.0  0.88595  0.88388  0.68797  1.0000
  H   H4302     1.0  0.91307  0.89015  0.69329  1.0000
  H   H4303     1.0  0.91287  0.93407  0.64804  1.0000
  H   H4304     1.0  0.88525  0.92831  0.64326  1.0000
  C   C2503     1.0  0.91679  0.79962  0.67435  1.0000
  C   C2504     1.0  0.90585  0.78733  0.68291  1.0000
  C   C2505     1.0  0.88980  0.79224  0.69470  1.0000
  C   C2506     1.0  0.88413  0.80977  0.69718  1.0000
  C   C2507     1.0  0.89453  0.82245  0.68790  1.0000
  C   C2508     1.0  0.91106  0.81728  0.67666  1.0000
  H   H4305     1.0  0.90951  0.77412  0.68030  1.0000
  H   H4306     1.0  0.88158  0.78254  0.70160  1.0000
  H   H4307     1.0  0.89006  0.83608  0.68981  1.0000
  H   H4308     1.0  0.91938  0.82691  0.66990  1.0000
  C   C2509     1.0  0.91396  0.92630  0.59058  1.0000
  C   C2510     1.0  0.92504  0.93093  0.57388  1.0000
  C   C2511     1.0  0.93917  0.93923  0.57250  1.0000
  C   C2512     1.0  0.94219  0.94268  0.58781  1.0000
  C   C2513     1.0  0.93138  0.93757  0.60442  1.0000
  C   C2514     1.0  0.91731  0.92948  0.60574  1.0000
  H   H4309     1.0  0.92261  0.92834  0.56211  1.0000
  H   H4310     1.0  0.94766  0.94304  0.55962  1.0000
  H   H4311     1.0  0.93360  0.94020  0.61627  1.0000
  H   H4312     1.0  0.90891  0.92571  0.61860  1.0000
  C   C2515     1.0  0.94360  0.88291  0.52092  1.0000
  C   C2516     1.0  0.95918  0.87009  0.51704  1.0000
  C   C2517     1.0  0.94421  0.89736  0.52758  1.0000
  C   C2518     1.0  0.75430  0.87109  0.73445  1.0000
  H   H4313     1.0  0.93223  0.90733  0.53052  1.0000
  C   C2519     1.0  0.77534  0.72774  0.58738  1.0000
  C   C2520     1.0  0.79135  0.71639  0.58127  1.0000
  C   C2521     1.0  0.79137  0.70399  0.57138  1.0000
  C   C2522     1.0  0.77538  0.70246  0.56788  1.0000
  H   H4314     1.0  0.92694  0.68197  0.96316  1.0000
  C   C2523     1.0  0.78328  0.76795  0.93340  1.0000
  H   H4315     1.0  0.80372  0.71717  0.58411  1.0000
  H   H4316     1.0  0.80386  0.69540  0.56652  1.0000
  C   C2524     1.0  0.99950  0.93526  0.55218  1.0000
  H   H4317     1.0  0.88693  0.68777  0.82074  1.0000
  C   C2525     1.0  0.87041  0.72537  0.62999  1.0000
  C   C2526     1.0  0.85904  0.73261  0.64428  1.0000
  C   C2527     1.0  0.86607  0.73411  0.65818  1.0000
  C   C2528     1.0  0.88453  0.72901  0.65748  1.0000
  C   C2529     1.0  0.89596  0.72220  0.64299  1.0000
  C   C2530     1.0  0.88885  0.72009  0.62941  1.0000
  H   H4318     1.0  0.84478  0.73674  0.64480  1.0000
  H   H4319     1.0  0.85718  0.73940  0.66937  1.0000
  H   H4320     1.0  0.91024  0.71825  0.64237  1.0000
  H   H4321     1.0  0.89768  0.71458  0.61832  1.0000
  C   C2531     1.0  0.83601  0.81853  0.57204  1.0000
  C   C2532     1.0  0.83511  0.81843  0.58988  1.0000
  C   C2533     1.0  0.84198  0.83095  0.59419  1.0000
  C   C2534     1.0  0.84985  0.84369  0.58073  1.0000
  C   C2535     1.0  0.85010  0.84436  0.56289  1.0000
  C   C2536     1.0  0.84327  0.83171  0.55854  1.0000
  H   H4322     1.0  0.82896  0.80880  0.60041  1.0000
  H   H4323     1.0  0.84105  0.83082  0.60804  1.0000
  H   H4324     1.0  0.85572  0.85444  0.55246  1.0000
  H   H4325     1.0  0.84377  0.83203  0.54471  1.0000
  C   C2537     1.0  0.80478  0.79910  0.65537  1.0000
  C   C2538     1.0  0.80695  0.80325  0.67068  1.0000
  C   C2539     1.0  0.80923  0.82035  0.67023  1.0000
  C   C2540     1.0  0.80880  0.83355  0.65460  1.0000
  C   C2541     1.0  0.80641  0.82947  0.63932  1.0000
  C   C2542     1.0  0.80470  0.81220  0.63962  1.0000
  H   H4326     1.0  0.80702  0.79315  0.68289  1.0000
  H   H4327     1.0  0.81108  0.82336  0.68206  1.0000
  H   H4328     1.0  0.80619  0.83959  0.62713  1.0000
  H   H4329     1.0  0.80296  0.80911  0.62777  1.0000
  C   C2543     1.0  0.96045  0.89902  0.53029  1.0000
  H   H4330     1.0  0.83296  0.89460  0.73036  1.0000
  C   C2544     1.0  0.87979  0.77660  0.61908  1.0000
  C   C2545     1.0  0.75980  0.74175  0.83954  1.0000
  H   H4331     1.0  0.89249  0.77221  0.62389  1.0000
  H   H4332     1.0  0.86871  0.94346  0.68664  1.0000
  H   H4333     1.0  0.77985  0.80786  0.54564  1.0000
  C   C2546     1.0  0.78123  0.91128  0.70887  1.0000
  C   C2547     1.0  0.78221  0.90191  0.72630  1.0000
  C   C2548     1.0  0.76863  0.90677  0.74059  1.0000
  H   H4334     1.0  0.97301  0.77910  0.66490  1.0000
  H   H4335     1.0  0.77755  0.74089  0.54325  1.0000
  H   H4336     1.0  0.79165  0.90770  0.69779  1.0000
  H   H4337     1.0  0.76940  0.89970  0.75413  1.0000
  C   C2549     1.0  0.85857  0.96059  0.52207  1.0000
  H   H4338     1.0  0.96087  0.91014  0.53555  1.0000
  H   H4339     1.0  0.96184  0.67910  0.67642  1.0000
  H   H4340     1.0  0.94109  0.68192  0.98754  1.0000
  C   C2550     1.0  0.83597  0.91479  0.70565  1.0000
  S   S753      1.0  0.76681  0.72113  0.89130  1.0000
  Fe  Fe379     1.0  0.99754  0.82121  0.55598  1.0000
  H   H4341     1.0  0.99484  0.76778  0.66710  1.0000
  H   H4342     1.0  0.80317  0.74698  0.96441  1.0000
  N   N182      1.0  0.79297  0.77146  0.54414  1.0000
  C   C2551     1.0  0.75935  0.71373  0.57412  1.0000
  C   C2552     1.0  0.89746  0.97831  0.57205  1.0000
  C   C2553     1.0  0.80536  0.93884  0.72716  1.0000
  H   H4343     1.0  0.92959  0.79593  0.59287  1.0000
  H   H4344     1.0  0.79162  0.77472  0.87855  1.0000
  H   H4345     1.0  0.76401  0.77969  0.54789  1.0000
  C   C2554     1.0  0.97063  0.71626  0.71245  1.0000
  C   C2555     1.0  0.97240  0.70523  0.72910  1.0000
  C   C2556     1.0  0.97033  0.71274  0.74384  1.0000
  C   C2557     1.0  0.96709  0.73130  0.74189  1.0000
  C   C2558     1.0  0.96511  0.74234  0.72526  1.0000
  C   C2559     1.0  0.96671  0.73485  0.71057  1.0000
  H   H4346     1.0  0.97530  0.69086  0.73067  1.0000
  H   H4347     1.0  0.97142  0.70410  0.75662  1.0000
  H   H4348     1.0  0.96230  0.75668  0.72382  1.0000
  H   H4349     1.0  0.96529  0.74342  0.69773  1.0000
  H   H4350     1.0  0.92486  0.69385  0.77732  1.0000
  C   C2560     1.0  0.99699  0.87654  0.63540  1.0000
  C   C2561     1.0  0.98364  0.69849  0.86183  1.0000
  C   C2562     1.0  0.98097  0.69864  0.88005  1.0000
  H   H4351     1.0  0.89312  0.97562  0.60077  1.0000
  H   H4352     1.0  0.87611  0.67337  0.80298  1.0000
  H   H4353     1.0  0.95529  0.66947  0.73289  1.0000
  H   H4354     1.0  0.97570  0.70878  0.85339  1.0000
  H   H4355     1.0  0.97103  0.70915  0.88555  1.0000
  H   H4356     1.0  0.79502  0.72530  0.91036  1.0000
  H   H4357     1.0  0.84162  0.74237  0.90010  1.0000
  C   C2563     1.0  0.89588  0.71947  0.84072  1.0000
  C   C2564     1.0  0.88285  0.71327  0.85505  1.0000
  C   C2565     1.0  0.86700  0.71119  0.85197  1.0000
  C   C2566     1.0  0.86386  0.71584  0.83462  1.0000
  C   C2567     1.0  0.87650  0.72291  0.82037  1.0000
  C   C2568     1.0  0.89263  0.72450  0.82340  1.0000
  H   H4358     1.0  0.88523  0.70958  0.86848  1.0000
  H   H4359     1.0  0.85737  0.70570  0.86302  1.0000
  H   H4360     1.0  0.77497  0.75953  0.52436  1.0000
  C   C2569     1.0  0.98903  0.90913  0.57172  1.0000
  N   N183      1.0  0.90587  0.75401  0.74806  1.0000
  C   C2570     1.0  0.91483  0.74628  0.73167  1.0000
  C   C2571     1.0  0.89688  0.77325  0.74225  1.0000
  C   C2572     1.0  0.89193  0.74393  0.76005  1.0000
  C   C2573     1.0  0.91996  0.75255  0.75827  1.0000
  C   C2574     1.0  0.92220  0.72586  0.73510  1.0000
  C   C2575     1.0  0.90948  0.78604  0.73150  1.0000
  C   C2576     1.0  0.87735  0.74243  0.75120  1.0000
  C   C2577     1.0  0.91375  0.76157  0.77450  1.0000
  H   H4361     1.0  0.90564  0.74957  0.72223  1.0000
  H   H4362     1.0  0.92642  0.75245  0.72398  1.0000
  H   H4363     1.0  0.88840  0.77889  0.75391  1.0000
  H   H4364     1.0  0.88743  0.77435  0.73363  1.0000
  H   H4365     1.0  0.89830  0.73019  0.76626  1.0000
  H   H4366     1.0  0.88459  0.75043  0.77148  1.0000
  H   H4367     1.0  0.92577  0.73832  0.76347  1.0000
  H   H4368     1.0  0.93145  0.75815  0.74931  1.0000
  H   H4369     1.0  0.92926  0.72195  0.72219  1.0000
  H   H4370     1.0  0.93211  0.72154  0.74378  1.0000
  H   H4371     1.0  0.91142  0.71826  0.74088  1.0000
  H   H4372     1.0  0.91885  0.78703  0.73921  1.0000
  H   H4373     1.0  0.91709  0.78228  0.71868  1.0000
  H   H4374     1.0  0.90125  0.79970  0.72810  1.0000
  H   H4375     1.0  0.86850  0.73402  0.76112  1.0000
  H   H4376     1.0  0.88291  0.73592  0.73959  1.0000
  H   H4377     1.0  0.86872  0.75566  0.74711  1.0000
  H   H4378     1.0  0.90923  0.77625  0.77060  1.0000
  H   H4379     1.0  0.92532  0.75917  0.78093  1.0000
  H   H4380     1.0  0.90309  0.75590  0.78479  1.0000
  H   H4381     1.0  0.88607  0.84354  0.53694  1.0000
  H   H4382     1.0  0.79221  0.77243  0.57131  1.0000
  C   C2578     1.0  0.76443  0.77868  0.89350  1.0000
  H   H4383     1.0  0.83582  0.95528  0.67606  1.0000
  H   H4384     1.0  0.92236  0.83341  0.58040  1.0000
  C   C2579     1.0  0.97672  0.78629  0.56644  1.0000
  C   C2580     1.0  0.93373  0.70186  0.88627  1.0000
  C   C2581     1.0  0.81279  0.94284  0.70687  1.0000
  H   H4385     1.0  0.77486  0.71491  0.63493  1.0000
  H   H4386     1.0  0.76216  0.77314  0.82150  1.0000
  C   C2582     1.0  0.87530  0.95541  0.51131  1.0000
  H   H4387     1.0  0.94304  0.66858  0.91511  1.0000
  H   H4388     1.0  0.85239  0.70299  0.72174  1.0000
  S   S754      1.0  0.99604  0.83752  0.61204  1.0000
  H   H4389     1.0  0.93248  0.68366  0.86011  1.0000
  H   H4390     1.0  0.91345  0.96447  0.53049  1.0000
  C   C2583     1.0  0.99215  0.86244  0.63152  1.0000
  C   C2584     1.0  0.79412  0.78112  0.55769  1.0000
  Fe  Fe380     1.0  0.99332  0.92138  0.63366  1.0000
  C   C2585     1.0  0.75266  0.92978  0.72001  1.0000
  H   H4391     1.0  0.92670  0.71542  0.88858  1.0000
  H   H4392     1.0  0.94501  0.69739  0.89331  1.0000
  H   H4393     1.0  0.93907  0.70316  0.87171  1.0000
  C   C2586     1.0  0.96448  0.81871  0.67303  1.0000
  H   H4394     1.0  0.81986  0.79046  0.52783  1.0000
  H   H4395     1.0  0.80438  0.74602  0.55939  1.0000
  H   H4396     1.0  0.83868  0.98283  0.53059  1.0000
  C   C2587     1.0  0.87841  0.98636  0.50138  1.0000
  H   H4397     1.0  0.90415  0.80160  0.56753  1.0000
  N   N184      1.0  0.81471  0.90035  0.61618  1.0000
  C   C2588     1.0  0.83310  0.88828  0.61535  1.0000
  C   C2589     1.0  0.80286  0.89057  0.61200  1.0000
  C   C2590     1.0  0.80788  0.90376  0.63490  1.0000
  C   C2591     1.0  0.81657  0.91753  0.60274  1.0000
  C   C2592     1.0  0.84667  0.89391  0.62258  1.0000
  C   C2593     1.0  0.80864  0.88570  0.59343  1.0000
  C   C2594     1.0  0.78742  0.90870  0.64159  1.0000
  C   C2595     1.0  0.79926  0.93160  0.60039  1.0000
  H   H4398     1.0  0.83220  0.87440  0.62275  1.0000
  H   H4399     1.0  0.83954  0.88713  0.60140  1.0000
  H   H4400     1.0  0.78883  0.89815  0.61306  1.0000
  H   H4401     1.0  0.80200  0.87787  0.62207  1.0000
  H   H4402     1.0  0.81236  0.89159  0.64474  1.0000
  H   H4403     1.0  0.81373  0.91435  0.63665  1.0000
  H   H4404     1.0  0.82523  0.92447  0.60626  1.0000
  H   H4405     1.0  0.82390  0.91502  0.58931  1.0000
  H   H4406     1.0  0.85972  0.88432  0.62043  1.0000
  H   H4407     1.0  0.84922  0.90732  0.61553  1.0000
  H   H4408     1.0  0.84255  0.89335  0.63716  1.0000
  H   H4409     1.0  0.80948  0.89763  0.58243  1.0000
  H   H4410     1.0  0.82147  0.87578  0.59208  1.0000
  H   H4411     1.0  0.79848  0.87929  0.59174  1.0000
  H   H4412     1.0  0.78072  0.92016  0.63259  1.0000
  H   H4413     1.0  0.78461  0.91241  0.65476  1.0000
  H   H4414     1.0  0.78128  0.89700  0.64383  1.0000
  H   H4415     1.0  0.79553  0.94017  0.61039  1.0000
  H   H4416     1.0  0.78784  0.92583  0.60092  1.0000
  H   H4417     1.0  0.80151  0.94022  0.58680  1.0000
  N   N185      1.0  0.93701  0.86775  0.61699  1.0000
  C   C2596     1.0  0.94644  0.86789  0.59775  1.0000
  C   C2597     1.0  0.94332  0.84936  0.62765  1.0000
  C   C2598     1.0  0.94299  0.88138  0.62295  1.0000
  C   C2599     1.0  0.91700  0.87251  0.61818  1.0000
  C   C2600     1.0  0.94247  0.88565  0.58422  1.0000
  C   C2601     1.0  0.94028  0.83371  0.62148  1.0000
  C   C2602     1.0  0.93595  0.88286  0.64260  1.0000
  C   C2603     1.0  0.90500  0.86581  0.63633  1.0000
  H   H4418     1.0  0.96123  0.86386  0.59661  1.0000
  H   H4419     1.0  0.94270  0.85799  0.59256  1.0000
  H   H4420     1.0  0.93703  0.84792  0.64202  1.0000
  H   H4421     1.0  0.95792  0.84695  0.62726  1.0000
  H   H4422     1.0  0.95788  0.87877  0.62040  1.0000
  H   H4423     1.0  0.93872  0.89506  0.61519  1.0000
  H   H4424     1.0  0.91239  0.88725  0.61463  1.0000
  H   H4425     1.0  0.91360  0.86708  0.60818  1.0000
  H   H4426     1.0  0.94758  0.89641  0.58648  1.0000
  H   H4427     1.0  0.94942  0.88358  0.57056  1.0000
  H   H4428     1.0  0.83325  0.69611  0.70972  1.0000
  H   H4429     1.0  0.92667  0.83620  0.61885  1.0000
  H   H4430     1.0  0.95049  0.83071  0.60945  1.0000
  H   H4431     1.0  0.94192  0.82148  0.63206  1.0000
  H   H4432     1.0  0.92131  0.88828  0.64531  1.0000
  H   H4433     1.0  0.94214  0.89266  0.64527  1.0000
  H   H4434     1.0  0.93951  0.87017  0.65213  1.0000
  H   H4435     1.0  0.89214  0.87578  0.63800  1.0000
  H   H4436     1.0  0.91042  0.86412  0.64828  1.0000
  H   H4437     1.0  0.90124  0.85327  0.63634  1.0000
  N   N186      1.0  0.86698  0.79724  0.64182  1.0000
  C   C2604     1.0  0.85738  0.78310  0.65429  1.0000
  C   C2605     1.0  0.86895  0.79490  0.62308  1.0000
  C   C2606     1.0  0.85509  0.81520  0.64387  1.0000
  C   C2607     1.0  0.88465  0.79514  0.64682  1.0000
  C   C2608     1.0  0.85336  0.78305  0.67442  1.0000
  C   C2609     1.0  0.86252  0.83180  0.63305  1.0000
  C   C2610     1.0  0.89947  0.80297  0.63215  1.0000
  H   H4438     1.0  0.84444  0.78396  0.65064  1.0000
  H   H4439     1.0  0.86547  0.76956  0.65312  1.0000
  H   H4440     1.0  0.87506  0.80527  0.61284  1.0000
  H   H4441     1.0  0.85549  0.79679  0.62008  1.0000
  H   H4442     1.0  0.84214  0.81637  0.64025  1.0000
  H   H4443     1.0  0.85176  0.81677  0.65793  1.0000
  H   H4444     1.0  0.88249  0.80122  0.65857  1.0000
  H   H4445     1.0  0.89050  0.78067  0.65120  1.0000
  H   H4446     1.0  0.84789  0.77104  0.68199  1.0000
  H   H4447     1.0  0.86558  0.78214  0.67916  1.0000
  H   H4448     1.0  0.84299  0.79472  0.67803  1.0000
  H   H4449     1.0  0.86678  0.83196  0.61861  1.0000
  H   H4450     1.0  0.87361  0.83323  0.63831  1.0000
  H   H4451     1.0  0.85173  0.84389  0.63447  1.0000
  H   H4452     1.0  0.90710  0.80857  0.63848  1.0000
  H   H4453     1.0  0.89478  0.81380  0.62140  1.0000
  H   H4454     1.0  0.90939  0.79225  0.62617  1.0000
  N   N187      1.0  0.99161  0.79656  0.65852  1.0000
  H   H4455     1.0  0.77025  0.71965  0.93710  1.0000
  H   H4456     1.0  0.97196  0.82186  0.68137  1.0000
  H   H4457     1.0  0.89706  0.84194  0.56434  1.0000
  C   C2611     1.0  0.76594  0.74339  0.89170  1.0000
  H   H4458     1.0  0.86456  0.95939  0.58113  1.0000
  H   H4459     1.0  0.95873  0.85885  0.51199  1.0000
  S   S755      1.0  0.84683  0.94428  0.53590  1.0000
  H   H4460     1.0  0.77553  0.74948  0.92338  1.0000
  H   H4461     1.0  0.85381  0.96953  0.56220  1.0000
  C   C2612     1.0  0.75373  0.92045  0.73743  1.0000
  H   H4462     1.0  0.76577  0.93259  0.69227  1.0000
  C   C2613     1.0  0.93167  0.66526  0.78024  1.0000
  C   C2614     1.0  0.80841  0.72801  0.94693  1.0000
  H   H4463     1.0  0.88307  0.77744  0.60442  1.0000
  C   C2615     1.0  0.77092  0.75507  0.53901  1.0000
  N   N188      1.0  0.92681  0.67134  0.88795  1.0000
  H   H4464     1.0  0.90928  0.96727  0.57012  1.0000
  H   H4465     1.0  0.91148  0.84778  0.54393  1.0000
  H   H4466     1.0  0.96494  0.77704  0.69449  1.0000
  S   S756      1.0  0.76461  0.79979  0.89630  1.0000
  H   H4467     1.0  0.83367  0.72232  0.90535  1.0000
  C   C2616     1.0  0.83659  0.94057  0.68033  1.0000
  H   H4468     1.0  0.86012  0.99209  0.57076  1.0000
  H   H4469     1.0  0.90277  0.82449  0.53200  1.0000
  C   C2617     1.0  0.83821  0.68223  0.70747  1.0000
  C   C2618     1.0  0.75641  0.86993  0.71486  1.0000
  C   C2619     1.0  0.86542  0.66760  0.81305  1.0000
  H   H4470     1.0  0.83020  0.76009  0.52502  1.0000
  Fe  Fe381     1.0  0.79421  0.70413  0.88342  1.0000
  H   H4471     1.0  0.91037  0.67552  0.72494  1.0000
  Fe  Fe382     1.0  0.82908  0.69904  0.85649  1.0000
  C   C2620     1.0  0.78045  0.79890  0.55887  1.0000
  H   H4472     1.0  0.97803  0.88749  0.59038  1.0000
  C   C2621     1.0  0.75939  0.72643  0.58360  1.0000
  H   H4473     1.0  0.78839  0.77522  0.91975  1.0000
  H   H4474     1.0  0.80516  0.92444  0.73233  1.0000
  C   C2622     1.0  0.75464  0.78054  0.83216  1.0000
  Fe  Fe383     1.0  0.82917  0.68637  0.89592  1.0000
  C   C2623     1.0  0.78067  0.75131  0.88342  1.0000
  C   C2624     1.0  0.93314  0.81214  0.54501  1.0000
  C   C2625     1.0  0.92408  0.67447  0.86922  1.0000
  C   C2626     1.0  0.93134  0.82825  0.56862  1.0000
  H   H4475     1.0  0.82316  0.92200  0.67505  1.0000
  S   S757      1.0  0.87947  0.67240  0.76214  1.0000
  H   H4476     1.0  0.89681  0.69762  0.76718  1.0000
  C   C2627     1.0  0.96948  0.75557  0.59196  1.0000
  C   C2628     1.0  0.86385  0.70236  0.71017  1.0000
  H   H4477     1.0  0.75640  0.74273  0.82664  1.0000
  H   H4478     1.0  0.98701  0.86105  0.51810  1.0000
  C   C2629     1.0  0.92066  0.68904  0.89374  1.0000
  H   H4479     1.0  0.93540  0.83873  0.52620  1.0000
  C   C2630     1.0  0.99116  0.68532  0.89110  1.0000
  C   C2631     1.0  0.79848  0.72053  0.92377  1.0000
  N   N189      1.0  0.83231  0.93496  0.70047  1.0000
  C   C2632     1.0  0.76658  0.92538  0.70575  1.0000
  H   H4480     1.0  0.81965  0.71622  0.94537  1.0000
  H   H4481     1.0  0.79871  0.77360  0.51554  1.0000
  S   S758      1.0  0.98024  0.93062  0.65923  1.0000
  H   H4482     1.0  0.76517  0.69775  0.61713  1.0000
  C   C2633     1.0  0.90629  0.83624  0.55298  1.0000
  S   S759      1.0  0.99571  0.88648  0.53225  1.0000
  H   H4483     1.0  0.91142  0.69758  0.71239  1.0000
  C   C2634     1.0  0.81416  0.74503  0.91518  1.0000
  C   C2635     1.0  0.90531  0.68450  0.76986  1.0000
  H   H4484     1.0  0.82020  0.75140  0.94454  1.0000
  H   H4485     1.0  0.80409  0.93780  0.70124  1.0000
  H   H4486     1.0  0.81250  0.94350  0.73473  1.0000
  C   C2636     1.0  0.89468  0.83113  0.54304  1.0000
  H   H4487     1.0  0.92583  0.97157  0.54271  1.0000
  S   S760      1.0  0.96566  0.73577  0.60721  1.0000
  H   H4488     1.0  0.97480  0.77249  0.54723  1.0000
  H   H4489     1.0  0.76923  0.77515  0.93736  1.0000
  H   H4490     1.0  0.85059  0.93426  0.67477  1.0000
  S   S761      1.0  0.98158  0.80494  0.54987  1.0000
  C   C2637     1.0  0.99352  0.93305  0.53601  1.0000
  H   H4491     1.0  0.75139  0.92105  0.85231  1.0000
  H   H4492     1.0  0.81698  0.66578  0.93509  1.0000
  H   H4493     1.0  0.79114  0.94606  0.72986  1.0000
  C   C2638     1.0  0.88516  0.96825  0.50099  1.0000
  H   H4494     1.0  0.76690  0.79653  0.56583  1.0000
  H   H4495     1.0  0.95484  0.83124  0.66892  1.0000
  H   H4496     1.0  0.82625  0.66493  0.69808  1.0000
  H   H4497     1.0  0.77149  0.76080  0.56382  1.0000
  C   C2639     1.0  0.82641  0.75514  0.53965  1.0000
  H   H4498     1.0  0.81695  0.79348  0.50575  1.0000
  H   H4499     1.0  0.81138  0.94517  0.67125  1.0000
  H   H4500     1.0  0.88532  0.66592  0.67033  1.0000
  H   H4501     1.0  0.95391  0.66498  0.97570  1.0000
  C   C2640     1.0  0.76285  0.69385  0.63196  1.0000
  H   H4502     1.0  0.91579  0.78191  0.59205  1.0000
  H   H4503     1.0  0.78254  0.79178  0.52306  1.0000
  S   S762      1.0  0.98479  0.84541  0.56754  1.0000
  C   C2641     1.0  0.87077  0.99690  0.55976  1.0000
  S   S763      1.0  0.84087  0.67288  0.87270  1.0000
  H   H4504     1.0  0.97749  0.79669  0.58868  1.0000
  H   H4505     1.0  0.77018  0.86639  0.76411  1.0000
  C   C2642     1.0  0.97163  0.77020  0.59739  1.0000
  N   N190      1.0  0.85663  0.68012  0.69556  1.0000
  H   H4506     1.0  0.86308  0.68356  0.65289  1.0000
  H   H4507     1.0  0.76250  0.80433  0.81409  1.0000
  H   H4508     1.0  0.94418  0.68931  0.70288  1.0000
  H   H4509     1.0  0.92800  0.89012  0.58414  1.0000
  H   H4510     1.0  0.96717  0.81035  0.64910  1.0000
  S   S764      1.0  0.80287  0.67826  0.90202  1.0000
  H   H4511     1.0  0.75736  0.81777  0.76971  1.0000
  H   H4512     1.0  0.82468  0.90969  0.70429  1.0000
  H   H4513     1.0  0.79048  0.69587  0.62830  1.0000
  H   H4514     1.0  0.80886  0.74952  0.90267  1.0000
  H   H4515     1.0  0.88056  0.94148  0.51074  1.0000
  H   H4516     1.0  0.84792  0.90901  0.69625  1.0000
  C   C2643     1.0  0.84379  0.94298  0.70732  1.0000
  C   C2644     1.0  0.93646  0.67857  0.70638  1.0000
  H   H4517     1.0  0.97667  0.91853  0.57680  1.0000
  N   N191      1.0  0.80124  0.73580  0.93007  1.0000
  H   H4518     1.0  0.81088  0.67943  0.71136  1.0000
  H   H4519     1.0  0.92660  0.80271  0.54208  1.0000
  H   H4520     1.0  0.90143  0.81422  0.58386  1.0000
  H   H4521     1.0  0.98193  0.82436  0.64749  1.0000
  H   H4522     1.0  0.98014  0.78971  0.69504  1.0000
  H   H4523     1.0  0.99640  0.95436  0.70580  1.0000
  C   C2645     1.0  0.96833  0.66499  0.68101  1.0000
  C   C2646     1.0  0.97552  0.78551  0.58456  1.0000
  H   H4524     1.0  0.81570  0.75747  0.91791  1.0000
  H   H4525     1.0  0.77879  0.69388  0.65098  1.0000
  H   H4526     1.0  0.98167  0.80404  0.62271  1.0000
  H   H4527     1.0  0.91762  0.68719  0.90854  1.0000
  H   H4528     1.0  0.84787  0.70639  0.67987  1.0000
  C   C2647     1.0  0.83332  0.73393  0.91074  1.0000
  H   H4529     1.0  0.90776  0.69648  0.88976  1.0000
  H   H4530     1.0  0.95231  0.83823  0.54665  1.0000
  C   C2648     1.0  0.91923  0.68519  0.71951  1.0000
  N   N192      1.0  0.88751  0.98252  0.55716  1.0000
  C   C2649     1.0  0.97588  0.88586  0.52692  1.0000
  C   C2650     1.0  0.84407  0.66676  0.93448  1.0000
  H   H4531     1.0  0.88558  0.82262  0.55228  1.0000
  H   H4532     1.0  0.83985  0.72939  0.92238  1.0000
  C   C2651     1.0  0.78372  0.71072  0.93585  1.0000
  H   H4533     1.0  0.83121  0.93764  0.65586  1.0000
  C   C2652     1.0  0.76068  0.85786  0.77238  1.0000
  H   H4534     1.0  0.95461  0.82123  0.52349  1.0000
  H   H4535     1.0  0.94527  0.80349  0.54969  1.0000
  H   H4536     1.0  0.97945  0.85889  0.63838  1.0000
  H   H4537     1.0  0.99504  0.93067  0.58831  1.0000
  C   C2653     1.0  0.82473  0.93600  0.67027  1.0000
  C   C2654     1.0  0.86908  0.68393  0.70499  1.0000
  C   C2655     1.0  0.97405  0.77188  0.56119  1.0000
  C   C2656     1.0  0.93972  0.82421  0.52686  1.0000
  H   H4538     1.0  0.76134  0.85606  0.71272  1.0000
  C   C2657     1.0  0.77734  0.70015  0.63704  1.0000
  C   C2658     1.0  0.78002  0.76880  0.88459  1.0000
  H   H4539     1.0  0.79259  0.74399  0.87613  1.0000
  C   C2659     1.0  0.89959  0.98958  0.53993  1.0000
  H   H4540     1.0  0.93243  0.67881  0.69387  1.0000
  C   C2660     1.0  0.85163  0.97876  0.52229  1.0000
  H   H4541     1.0  0.83014  0.76334  0.54687  1.0000
  H   H4542     1.0  0.91017  0.68163  0.86810  1.0000
  H   H4543     1.0  0.86867  0.92232  0.70230  1.0000
  C   C2661     1.0  0.97075  0.75648  0.57385  1.0000
  H   H4544     1.0  0.97064  0.76953  0.61139  1.0000
  H   H4545     1.0  0.78301  0.70002  0.92960  1.0000
  C   C2662     1.0  0.82325  0.67855  0.70074  1.0000
  C   C2663     1.0  0.86577  0.96035  0.56675  1.0000
  C   C2664     1.0  0.97520  0.87136  0.52044  1.0000
  C   C2665     1.0  0.78329  0.74846  0.93358  1.0000
  C   C2666     1.0  0.91166  0.80768  0.57357  1.0000
  H   H4546     1.0  0.90353  0.98958  0.57176  1.0000
  H   H4547     1.0  0.81999  0.68882  0.68887  1.0000
  H   H4548     1.0  0.80753  0.78394  0.55556  1.0000
  H   H4549     1.0  0.84043  0.95786  0.70338  1.0000
  H   H4550     1.0  0.93527  0.82122  0.51602  1.0000
  C   C2667     1.0  0.90011  0.66963  0.76805  1.0000
  C   C2668     1.0  0.85110  0.68786  0.66304  1.0000
  H   H4551     1.0  0.98806  0.88375  0.64527  1.0000
  H   H4552     1.0  0.81001  0.95765  0.70212  1.0000
  C   C2669     1.0  0.94119  0.84310  0.55718  1.0000
  H   H4553     1.0  0.92398  0.98295  0.52045  1.0000
  H   H4554     1.0  0.98728  0.76609  0.69675  1.0000
  Fe  Fe384     1.0  0.97783  0.95829  0.64191  1.0000
  H   H4555     1.0  0.88747  0.95791  0.59449  1.0000
  H   H4556     1.0  0.92245  0.68885  0.73069  1.0000
  H   H4557     1.0  0.96900  0.74524  0.56964  1.0000
  C   C2670     1.0  0.92388  0.79178  0.58364  1.0000
  H   H4558     1.0  0.94747  0.84740  0.56581  1.0000
  C   C2671     1.0  0.81443  0.74080  0.95471  1.0000
  H   H4559     1.0  0.85418  0.90031  0.72396  1.0000
  C   C2672     1.0  0.79540  0.78243  0.52529  1.0000
  H   H4560     1.0  0.77497  0.74323  0.94665  1.0000
  H   H4561     1.0  0.80304  0.80850  0.51922  1.0000
  H   H4562     1.0  0.89295  0.68739  0.96552  1.0000
  C   C2673     1.0  0.92115  0.68235  0.77576  1.0000
  S   S765      1.0  0.80267  0.69217  0.85901  1.0000
  H   H4563     1.0  0.94204  0.81736  0.57377  1.0000
  H   H4564     1.0  0.88281  0.68324  0.69651  1.0000
  S   S766      1.0  0.84496  0.71136  0.83057  1.0000
  C   C2674     1.0  0.89840  0.67902  0.82637  1.0000
  C   C2675     1.0  0.99560  0.95642  0.69171  1.0000
  H   H4565     1.0  0.87409  0.72651  0.80694  1.0000
  H   H4566     1.0  0.89428  0.95405  0.55752  1.0000
  H   H4567     1.0  0.75821  0.85984  0.78625  1.0000
  H   H4568     1.0  0.95520  0.67181  0.87765  1.0000
  C   C2676     1.0  0.99081  0.89208  0.58639  1.0000
  H   H4569     1.0  0.85390  0.67908  0.81451  1.0000
  C   C2677     1.0  0.85667  0.69326  0.67787  1.0000
  C   C2678     1.0  0.91660  0.97614  0.53330  1.0000
  H   H4570     1.0  0.87139  0.94123  0.70876  1.0000
  H   H4571     1.0  0.97335  0.66924  0.70474  1.0000
  S   S767      1.0  0.98409  0.98119  0.64990  1.0000
  H   H4572     1.0  0.76149  0.72747  0.84654  1.0000
  H   H4573     1.0  0.99256  0.94589  0.52606  1.0000
  C   C2679     1.0  0.88318  0.96580  0.55507  1.0000
  H   H4574     1.0  0.76463  0.77932  0.84029  1.0000
  H   H4575     1.0  0.76602  0.67893  0.63526  1.0000
  H   H4576     1.0  0.89553  0.67815  0.84096  1.0000
  H   H4577     1.0  0.76601  0.83773  0.74472  1.0000
  H   H4578     1.0  0.79813  0.72229  0.95785  1.0000
  H   H4579     1.0  0.86092  0.71352  0.69882  1.0000
  C   C2680     1.0  0.98472  0.78015  0.66946  1.0000
  H   H4580     1.0  0.83868  0.67336  0.72091  1.0000
  C   C2681     1.0  0.97652  0.81265  0.65608  1.0000
  H   H4581     1.0  0.78666  0.70411  0.94922  1.0000
  H   H4582     1.0  0.84311  0.69988  0.65562  1.0000
  H   H4583     1.0  0.99854  0.78560  0.61664  1.0000
  H   H4584     1.0  0.83473  0.74147  0.54272  1.0000
  H   H4585     1.0  0.97999  0.92992  0.53993  1.0000
  H   H4586     1.0  0.99790  0.96997  0.68469  1.0000
  H   H4587     1.0  0.88922  0.67638  0.90414  1.0000
  H   H4588     1.0  0.87049  0.67364  0.71749  1.0000
  S   S768      1.0  0.99279  0.94895  0.61676  1.0000
  C   C2682     1.0  0.88699  0.97249  0.59118  1.0000
  C   C2683     1.0  0.92488  0.67176  0.97581  1.0000
  H   H4589     1.0  0.98162  0.95649  0.69142  1.0000
  H   H4590     1.0  0.77300  0.74532  0.83723  1.0000
  H   H4591     1.0  0.88200  0.96710  0.54108  1.0000
  H   H4592     1.0  0.87289  0.97976  0.59361  1.0000
  C   C2684     1.0  0.75110  0.84008  0.74748  1.0000
  H   H4593     1.0  0.76658  0.87765  0.70634  1.0000
  H   H4594     1.0  0.99319  0.89432  0.59865  1.0000
  H   H4595     1.0  0.98614  0.90514  0.56056  1.0000
  H   H4596     1.0  0.87036  0.69596  0.67197  1.0000
  H   H4597     1.0  0.76818  0.86793  0.73666  1.0000
  H   H4598     1.0  0.89212  0.99467  0.52886  1.0000
  H   H4599     1.0  0.86562  0.94692  0.56513  1.0000
  H   H4600     1.0  0.75634  0.75531  0.54220  1.0000
  C   C2685     1.0  0.86162  0.99165  0.51207  1.0000
  C   C2686     1.0  0.97913  0.77844  0.68996  1.0000
  H   H4601     1.0  0.87931  0.67472  0.96175  1.0000
  C   C2687     1.0  0.99712  0.68547  0.85439  1.0000
  H   H4602     1.0  0.84285  0.67764  0.66762  1.0000
  H   H4603     1.0  0.98846  0.94485  0.55884  1.0000
  H   H4604     1.0  0.99881  0.80546  0.67903  1.0000
  H   H4605     1.0  0.98065  0.78157  0.63533  1.0000
  H   H4606     1.0  0.88413  0.67036  0.98329  1.0000
  H   H4607     1.0  0.91297  0.67833  0.98453  1.0000
  C   C2688     1.0  0.94087  0.66903  0.98465  1.0000
  H   H4608     1.0  0.87066  0.66484  0.93781  1.0000
