data_image0
_chemical_formula_structural       SHCH4C3SHCHSC3HCH6SFeHSHFeSFeSH2CFeS2FeS2FeSFeS3C6H4C5H2NH3C4HCH4CHC6HCH2FeHNH4SHNC4H2CH4C7H4CH3CSHSHCHC2H3C2H4CFeH12CH4CH3CHFeH2CH7SNH2C4HCFeCH3CH13SH3SC2NC4H2CHSC2H3CH3CSHCH8CHCHCSH4CHCHCH3SFeSFeS2FeS2FeSFeS3FeS2FeS2FeSFeS3FeHFeHSFeSHS2CSHCH8CH2C4HCH3C6H4C6H4C6H4CHCFeHC2H3CHC6H2CHC4HCH2CH2FeH6CHCH2CH2CSCH6CH3CHCHC2H5C2HSH3SFeHCNH4CHC2SH4CH2C2H8FeH4FeH2S2H5FeHCNC4H2C2H9SHC3H5CNCSC3HC2H4NH10CHCH3C2HC2SCH9CHCHCHCH3NC8HCSC2HNH5SH3FeH3SHFeH4C3H6C2H2CHC2H2NCHC3NHCHCH6SHSH2FeH2SH2CSHCHCHCH2C2HCH3NCH7C2H3SC2H4CNCHC2H2CHCH6NHSH2SHCHC2HCH3CH2C2H2SH6CH2FeS2FeS2FeSFeS3FeS2H2CFeSHSHFeHSC2HCH4SHCHC2H2CH2C8H6SH2C4HSHC6H4C7H5FeC2HCHC2HCSCNCH2CHCHCH2CH2CH8CHCHCSHCH2C3HC2H2FeCH3SHCH2CH5C4NC8H20S2CH4C2H4CHCH4CHC2HCHCSFe2H4CHNHCHCH4C2H3CH4CH6NH3C2FeH3FeCH2SCHNCH4C2HCH3NFeH5CSCH4CSHCH2NHNC2HC2H5NCHSHS2CH2CH3SFeSCSHSHCSH3FeS2FeS2FeSFeS3HCHCSNFeSFeSC8H4C6H4C2HC3HCH2FeC2H4FeSHC2H2C2HC2H3C6H4C7H3CH2SH3NHC4SH6CHSCHCHCH2NH3CH3NH4NHSHCH4CHSCFeHCH2SH2CHC2HFeC2HSCHCHCHNC8H2CH13CH3CH2FeCH3CSCH2CH2CH4C2H2C2H3C2NH2C2H3CH2CH3C2H5SCSC2H2CH2CHCH4C2HCH2CH7FeSFeHCHC3H4C2FeCSH2C2HCHSFeH4NCSFeS2C2H6CHFeCSHCH3NH4C2H3CH2CHFeCH2CH2SH2CH2FeHCSH2S2H6FeCH2CH5CHCH2CH2CHCH4CHCH10FeS2FeS2FeSFeCS2CSHFeS2FeS2FeSFeHS2H2C2SHCH2FeS2FeSHFeSFeS3H4CSC6H3CH2C3H4C4NC2H3C3HCH5C6H4C2SCHCH3C6H4C6H2SH2CH2C7H4NC8H12CH6C3H3C2SCHC2H2CH2NHCH4CH2FeH3NC8H20C3S2HC2H8CHC2HCHCH3C3HCH2CHCHSH2CH2CH3C2H4CH4C2H4FeSH5SCH3CHC2HCH5CHCFeH2CNC8H13CH6NC4HC3H8C3H3FeH4S2CHFeH3SH2CHFe2CH3CH3SH3C5H2SCHSH3CH2Fe2C3H2CHNCHCSHC3H3C3FeHCHNH2SHFeHCHNHCHSHFeSH5NC2H5C2H5CHCH3SH2SCH2SH5CHCSH5SH3NHCH3CHSH13CH2S2HCH3C2H2FeS2FeSCFeHFeS3H3SHC2H2NCH3CHFeS2FeS2FeSFeS3CH3CH2C4H4C2HC4HCH2CH3C3H3CHNH4CHSCH3CHC3H3C6H5NC2HCH3C2H2CH5CH2CNH3C3HC2HC2HCNH5C2H6CHCH2C2H2FeH6CH4NHCH2CH2SCHCH3CHCH6CH6C3HCH7C2HCH4C2HC3H4SHCH5CH4CHCSH2SHCH4C3H4C2H2CHC2SHCNHCHNH2C3HC2HC4HCH2CH4SCH2SFeHC3SFeS4FeS2FeSFeSHNFeS2FeCHSH5SFeSFeS2FeSHFe2S3CS2C5H2C6FeCH2C4H4C2H4SFeH3CH3C6H4C2HC3FeHCHCHC6H3SHC6H5CHFe2H2CH2C2NCHCH3CH5C2H2C2FeNH3CHC2H3CSH2NHCHC2HC4HCHC2HSHCNC5HC2H2CH10SH9CHCHSH2C2FeH2CHCHNHCSCH5CH6SH2CH2CSHNC5HNH11C2HC2HCHSH4SHNHSHCH3FeH2CHCS2HSC2H2CSCSH4C2H2CH2CHSH5CH12CHFe2H3C2H2CN2HSHSCHNC8H20C2SH2CHCH2C6HCFeHFeH2CSH3CH2CNC2FeH2CH11SCH6SC3HCH4SHFeC2HFeCHSHCHNCFeHC4FeSH3C2HSC2FeHC3FeSHFeCH3SHC2HCSCHSH3SCSC2SHFeHC3HCHCH3CH5CH5C4H5CH3SH3CH4NH3SH2C2H4C2H2FeH2CH4SFeCH4C2H5CHSH2SHCHFeHSCS2FeS2FeS2FeSFeS3HS2FeSHSFeSHFeSHCFeS2FeSFeHFeS2CSH2SCS3HCHC2H2CHFeH3C3SHNCHC2SCH2C2H3C6H4C3H3C2HS2HC2H3C6H4C6H6SC6H4C7H3FeNCSH3CSH3C2H8C2FeHCH6C3NC2H3CH7C2HFeHFeHCH3C2H2NH2CH2C3SH2C2H2SCH3CHFe2HC7H3CH5CH2NC8H20NC4HSC2H4CH6SH3CH5CH2NH3SH3C2SH4CH6S3NC8H4FeC2HFeNH2SH2CH2CHFeH2CH5CH4SCH3CNHCFeH3CH7CHCHC3H9SH8CH3SHSH2CH2CH5CH2SHCH4FeCHC4HSHSCHCH2C2HCH3CHCSHCHC2H2CFeS2HCHFeSH2SHFeS2HSFeSFeSCSC3SH3CH2C6H6CHC2H2NHC2HCHFeH3C2H2CHCH2C2H2NC2H2SH2C3HCH2C2H2CH2SH4CHC4H4CHC3H2CH2SFeH4CH4CNHCH2CH2C2H2CH2CH3CH2CH6C2H3CH5C2H11CNH2CH4NH2CH3NH2CH2C3FeH2FeS2FeH2S2FeS2HCHCSFeHCSH2SHFeS2FeS2FeSFeS3HC4H4SC6H4FeCH2CH2C6H4C6H4NC3HC6H5SCH5CFeCSNH5CH3CNCH3C2H8CHNCH3SC2H3CH2SCH4C2H2SCSFeHSH3C3H2C2H2C4H5CHS2H3C2HC2S2C2H7FeHCH2CNC5HCHFeH5NC8H21SH2FeCFeSH4S2CH4NCH3C2H4CHNC2H2CH5CH3FeHSCH2CHSH6C2H2NC2HSH2SC3SCNHNHC3H2CHCH2CHC2H2FeH4FeH4CH10C2HC2H5C2HCHC2H2C2HCH3C2HC2FeH2CSHCH2C2HC4H2CH3CH3C2HCH2C2HCH2CH2SCH3C2FeCHCSH2CH4C3HCFeS2FeSH2FeS2CHNSH3CFeH5C2H4SH4Fe2H6C2HC6H6CHCH3CHSCH4C2HSC4H2CSH4C2H10SNCFeS2FeHCSHSHC2FeSCSCFeS2FeSHFeSFeS3FeS2FeS2FeSFeS3C6H4C6H4CH7CHC4SCH2C7H5CHCH4C3SH4SH3CH3C2H3N2C2H2C2SHSH3CH3CSH9C3H7C3H2CH5CFeNHSH5C2H5C2H3NHSCHCH3CH2CHC2HC2H2CHFeSHNC5HNHC2H11CSH3CH2NH4CH5CHC2H5CSHCH4C2H2CH2CHCNCHC2HFeCH2CH6C2H4SH3CH2CH2CH2C2HSC2HCH6CHC2HFeH4CH2C2HCH2FeNC2H3NH2CH2C3HCHCFeHCH5FeH3CHCH3NSH2C3HCH2SH2CHCHC4H2CHC6SH4CH5CHCHFeH2C2H5CH4CH5C2H6C2H2FeC2HCH2CS2CNH5CH2NHN2FeS2FeS2FeSFeS4H5CH4FeC2FeCH3CS4CHSHC2HC2HCH3C3HCHSH2C2H6C7H8SFeHCFeHC2HFeC9H5CHC6H7C2NH7CH8C2H5SH2CH2CNSH3CH3FeCHNHC2H2CH2SFeHC2H5CH5CH3CH3CH6CH2SH4SCHCH3CH2C2HC2H5C2H2SCHC2H2CSH3CH2CHCFeHSH2SFeH4SFeS2FeS2FeSFeS3CH2FeSHSFeSH2CH3FeCS2H4C8H6SC6H2C4H2C6H4C6H5CSH2CHFeHC6H7C2NH3S2HC3H2CHCFeNHC3H2FeH7CH8FeCH2CNC8H2FeH8CH3CHCH3CH2CH2SH3CHFeH3SCHCH3CH3C2HNH4CHCH2CSCHCHCNC7H17NCHC3H2CH3FeCH2CHCHSH4S2C2S2HCH2CH2C2SCNCH2CH2C2H6CHCSH6C2H2C2H9CHSCH7CNHC2NCH2SHCSCHFeHCHSH2SFeH2CHC3SC3H3SH2S2H2CH2C2H5Fe2H4C2H4CH3C4HCHC3HSCFeCHC2H3CH6CH9CHFeHFeHSHFeCSFeSHFeS2Fe2SHSFeS2FeS2FeSFeS3C6H4C6H4CHC4H3C6H6CHC4HCH2CHCHCHCH2SHSCH3CH3CH4CH3FeSH2CNSFeC5H3NCHC2HCSC2FeC2HCH3CH4SH2CH3C4HCH3NH3CHCH2C4H3SH2SH9NC3HC4HCH5CSHCH10CHCHSH2CHC4H3CH5C2H6SH2CH2SH3CNH4NH3C2H2NC3H9CHCSCH4C2H4CHCHSCH2C2H4C2HS2CHFeS2FeS2FeHFeS3H4CH4CSFeS2FeSHFeHFeS3H2C4H4CH2CH3CH3C8H8CHCH2FeH4CH5CHCHCHSHSC2HCHCHC3H2C4H3CHCH3CH2NH4CH3CH2CNH2C2H2CH6NCH2CH2CHCH3C3HCNC4HCH4CH18NHCH8SFeS2FeS2FeSFeHS2FeSHFeS2FeSFeS3FeS2FeSHFeSFeS3HCH5C2H3C3SC2HCHCHSH2SH4C3HC2HFeCHC2NC3HC2HCH2C2HC3H2C6H4C6H4C3H2CH2C2H3CHCH2SC2H2CH6C4HCNH2CH4CSHNCHCHCHSH3C2H2CH4NHC2HNCH2C4H2CHCNC8H24CH2CH4CFeH2SH2CH3C2H2CHFeCHCH5C3H2C2SHCHC2H2C2HCH2CSNCH2NH5CH2CH6SH2SH2CH3CHC5SHC2HC3H2CNHCSH6FeH2SCH2C5H4SHCHCH2C3HC3SFeH3C2FeHFeHC3H2C2FeH3CHC2HSHCNCHCH2SH12C2HC3H4CSH3NH2CH4FeS2HCH2Fe2H2C3HCSH2NH7C2NH11CH2CHSH9SNH5CSC3FeC2H3CSH3S2HCHFe2S2FeSFeSFeS2CHFe2S3FeS2HCFeS2FeSFeSFeS5FeSC5H2C5HCH3C6H4CFeHC3H2SC9HSH4CH4CH2C7H3C2FeH2C6H2SHC3H2NC8H20NC8H9SH12FeH2CNC6HCH12C4HNHCHCH13CHSNH2CSH2SCHSHFeCHCH2NH2SFeH5SCNC8H16NC7H17C2HCH2SCHCH6CSH2CH3NC3H6S2HFeCH4CH2S3HCFeS2H2Fe2C2SHSCHC2HCFeHC2HCSFe3HC4HCHS5CSHFeHS2H2SCHCFeCSH4CH2FeH2FeH5CH6CFeH2CHSHCHSCH2CHCHS2CH4CH4C4H2CH3SCHNC4H2C2H4CHC2HCH2CSC2SH3CHSHCH4NCHCSCH8Fe2CH3CSC2FeHCHC2H2C2H7CH3CH3CHCH2CSH2C2H2SHNC2H3CH8NCH2CH2CH2CHCFeC2HSHCH3CH2NH3CHCH7C2H2CHSC2H2CH3SCH2NH3C2H6C2H2SH3CHSC2HCH2C3H2C3HCH4C2SHC2HC2H2C3HCH2FeC2H5CH5C2HSCFeSH2CHFeS2FeS2FeSH2SCH2SC3HSH3C3SC2HC2HCH3NCH2C2HCHSCH2C3H2CH4NH4C2H2C3H6C7H17C2H3NH6C3H8CSH4C2HCH8C2NC2HCH3CH2CNC4HCH4NC2HSFeC2H3SH2CHC2HSH4CFeSFeSHFeSFeHSFeS2FeSFeH8SHCHFeS2FeS2FeSFeS3HFeS2FeS2C6H4C3HC2H2CHCH2C6H6SC5H2C2HC3H2CSHS2H2C2H3CSHSC6H5S2HFeC6H2CHCFeHSH4C2HSHFeHCNC8H20NHC2SH2CNCH2C2HSH4CSH3SHCHCHCHCH3CH2SNH2NH4CSHCSCH2CH3NH3SHCHCHCHCH3FeH2CH5NCHC3HFeCHCH2SH7SHCHCH3CNC8H22CH6CSCH3SHCSH6FeHCH3CH6CHSH3C2HFeC2FeHC2H2CH2CHCFeHCHC3HSCHCFeCH2CHC3H6CH2CHCH2NH3C2H3CHC2H4C2HSHSCHCHFeCHNHCHCH3Fe2S2CSH2FeS2HCH4CH6CH2SNCH5Fe2HSCH3NC2H2C6H4CH2SCH2CHCHNC6HSH6CH2CH2CH2CH2C3H3C2H4CH4C2H8CFeHC2H2C2H2CHCH5CHCFeS2C2Fe2S3H2CHCHCHC3HC2FeS3FeS2H2FeS2FeS2FeSFeS3C2HCH2CHC2H2C2H4C6H4CSHC7H9Fe2HFeHCSHC6H6C3H5CH2C3HC2H2CH9CH3CHSH2FeNH3FeCHSCNHCH2C2H2CH4C2HCH8CHC2H2CH2CHSH5SHCH3SCH3CH2C2HNC10H7CSHCH3CFeCHCH2C2HCHCHSHFeH3CHFeCHC3HCSHCH2NHSCH3SH8SHC2HC2H2FeHC3H2FeSC2SCHC2SH3CSC2HFeH4C2HNH2C2H2CH7SHCSH4CH4C2HCH4CHC2HCFeHCHCHS2HCH2NHNC2HCH7C2H5CHCH2NH8CH5CHCH2SCH3C2HC
_chemical_formula_sum              "S768 H4608 C2688 Fe384 N192"
_cell_length_a       67.415
_cell_length_b       67.0085
_cell_length_c       67.0469
_cell_angle_alpha    75.3438
_cell_angle_beta     75.4894
_cell_angle_gamma    75.4764

_space_group_name_H-M_alt    "P 1"
_space_group_IT_number       1

loop_
  _space_group_symop_operation_xyz
  'x, y, z'

loop_
  _atom_site_type_symbol
  _atom_site_label
  _atom_site_symmetry_multiplicity
  _atom_site_fract_x
  _atom_site_fract_y
  _atom_site_fract_z
  _atom_site_occupancy
  S   S1        1.0  0.17430  0.08967  0.40374  1.0000
  H   H1        1.0  0.02518  0.08971  0.47658  1.0000
  C   C1        1.0  0.00214  0.12498  0.27316  1.0000
  H   H2        1.0  0.07227  0.11231  0.42048  1.0000
  H   H3        1.0  0.01391  0.03557  0.33665  1.0000
  H   H4        1.0  0.21181  0.20246  0.48387  1.0000
  H   H5        1.0  0.22065  0.05709  0.35031  1.0000
  C   C2        1.0  0.02550  0.12689  0.38953  1.0000
  C   C3        1.0  0.17310  0.30900  0.05043  1.0000
  C   C4        1.0  0.17104  0.02180  0.33006  1.0000
  S   S2        1.0  0.17851  0.02844  0.40748  1.0000
  H   H6        1.0  0.22036  0.06586  0.31323  1.0000
  C   C5        1.0  0.02816  0.02351  0.33270  1.0000
  H   H7        1.0  0.11856  0.01207  0.42315  1.0000
  S   S3        1.0  0.23060  0.99989  0.37883  1.0000
  C   C6        1.0  0.12959  0.01609  0.40817  1.0000
  C   C7        1.0  0.14826  0.29399  0.00654  1.0000
  C   C8        1.0  0.16117  0.12132  0.48015  1.0000
  H   H8        1.0  0.17062  0.00680  0.32608  1.0000
  C   C9        1.0  0.07984  0.01938  0.46247  1.0000
  H   H9        1.0  0.23309  0.02457  0.33530  1.0000
  H   H10       1.0  0.07308  0.00740  0.40011  1.0000
  H   H11       1.0  0.99994  0.01453  0.36898  1.0000
  H   H12       1.0  0.10366  0.01352  0.47982  1.0000
  H   H13       1.0  0.10825  0.31324  0.07964  1.0000
  H   H14       1.0  0.00442  0.19933  0.12030  1.0000
  S   S4        1.0  0.06645  0.29738  0.07904  1.0000
  Fe  Fe1       1.0  0.18561  0.05550  0.41645  1.0000
  H   H15       1.0  0.10764  0.02749  0.38728  1.0000
  S   S5        1.0  0.05664  0.28525  0.03773  1.0000
  H   H16       1.0  0.19549  0.11990  0.44837  1.0000
  Fe  Fe2       1.0  0.03913  0.29085  0.06960  1.0000
  S   S6        1.0  0.01860  0.26847  0.09008  1.0000
  Fe  Fe3       1.0  0.08284  0.29466  0.04600  1.0000
  S   S7        1.0  0.11712  0.28045  0.03849  1.0000
  H   H17       1.0  0.01289  0.18471  0.17812  1.0000
  H   H18       1.0  0.03302  0.14848  0.45526  1.0000
  C   C10       1.0  0.06094  0.12519  0.42740  1.0000
  Fe  Fe4       1.0  0.10446  0.09324  0.33137  1.0000
  S   S8        1.0  0.10243  0.05955  0.34556  1.0000
  S   S9        1.0  0.13409  0.10525  0.32437  1.0000
  Fe  Fe5       1.0  0.05825  0.10712  0.33065  1.0000
  S   S10       1.0  0.05203  0.07478  0.34484  1.0000
  S   S11       1.0  0.03192  0.13417  0.32340  1.0000
  Fe  Fe6       1.0  0.07327  0.07311  0.36624  1.0000
  S   S12       1.0  0.06346  0.05897  0.40023  1.0000
  Fe  Fe7       1.0  0.08158  0.06434  0.32281  1.0000
  S   S13       1.0  0.08232  0.03850  0.30721  1.0000
  S   S14       1.0  0.07696  0.10651  0.35416  1.0000
  S   S15       1.0  0.08617  0.09685  0.30648  1.0000
  C   C11       1.0  0.09340  0.07621  0.44574  1.0000
  C   C12       1.0  0.07286  0.07307  0.45155  1.0000
  C   C13       1.0  0.06388  0.06786  0.43737  1.0000
  C   C14       1.0  0.07504  0.06655  0.41703  1.0000
  C   C15       1.0  0.09532  0.07054  0.41078  1.0000
  C   C16       1.0  0.10463  0.07502  0.42529  1.0000
  H   H19       1.0  0.13121  0.03250  0.40681  1.0000
  H   H20       1.0  0.04840  0.06444  0.44227  1.0000
  H   H21       1.0  0.10400  0.06964  0.39500  1.0000
  H   H22       1.0  0.12048  0.07768  0.42070  1.0000
  C   C17       1.0  0.22052  0.14901  0.48138  1.0000
  C   C18       1.0  0.07492  0.13854  0.43098  1.0000
  C   C19       1.0  0.12378  0.31065  0.08373  1.0000
  C   C20       1.0  0.01920  0.17138  0.13931  1.0000
  C   C21       1.0  0.20332  0.06042  0.35438  1.0000
  H   H23       1.0  0.06344  0.02725  0.46185  1.0000
  H   H24       1.0  0.03461  0.04081  0.38309  1.0000
  N   N1        1.0  0.04490  0.13622  0.41385  1.0000
  H   H25       1.0  0.05473  0.16633  0.40371  1.0000
  H   H26       1.0  0.01957  0.09307  0.27838  1.0000
  H   H27       1.0  0.08964  0.02733  0.44826  1.0000
  C   C22       1.0  0.01629  0.10833  0.28252  1.0000
  C   C23       1.0  0.02608  0.11128  0.29742  1.0000
  C   C24       1.0  0.02175  0.13092  0.30298  1.0000
  C   C25       1.0  0.00823  0.14777  0.29301  1.0000
  H   H28       1.0  0.19543  0.00174  0.48393  1.0000
  C   C26       1.0  0.18753  0.11742  0.43686  1.0000
  H   H29       1.0  0.03677  0.09826  0.30478  1.0000
  H   H30       1.0  0.12704  0.01640  0.34475  1.0000
  H   H31       1.0  0.15829  0.32498  0.02445  1.0000
  H   H32       1.0  0.01800  0.04631  0.36456  1.0000
  C   C27       1.0  0.01112  0.09812  0.47090  1.0000
  H   H33       1.0  0.13399  0.29645  0.07839  1.0000
  C   C28       1.0  0.10806  0.02724  0.29699  1.0000
  C   C29       1.0  0.11229  0.00723  0.29234  1.0000
  C   C30       1.0  0.16346  0.12445  0.44238  1.0000
  C   C31       1.0  0.14939  0.00705  0.28391  1.0000
  C   C32       1.0  0.14517  0.02748  0.28758  1.0000
  C   C33       1.0  0.12451  0.03746  0.29454  1.0000
  H   H34       1.0  0.16418  0.06436  0.32611  1.0000
  C   C34       1.0  0.23830  0.05045  0.47275  1.0000
  H   H35       1.0  0.15790  0.03531  0.28548  1.0000
  H   H36       1.0  0.12130  0.05306  0.29788  1.0000
  Fe  Fe8       1.0  0.04531  0.31996  0.02712  1.0000
  H   H37       1.0  0.03060  0.13859  0.37537  1.0000
  N   N2        1.0  0.03181  0.00676  0.35198  1.0000
  H   H38       1.0  0.09740  0.30101  0.00383  1.0000
  H   H39       1.0  0.07134  0.99473  0.42715  1.0000
  H   H40       1.0  0.05447  0.02241  0.35664  1.0000
  H   H41       1.0  0.08467  0.12856  0.44237  1.0000
  S   S16       1.0  0.17848  0.04258  0.45100  1.0000
  H   H42       1.0  0.01736  0.16214  0.15567  1.0000
  N   N3        1.0  0.15272  0.11518  0.46422  1.0000
  C   C35       1.0  0.12951  0.12335  0.46549  1.0000
  C   C36       1.0  0.13294  0.99700  0.28619  1.0000
  C   C37       1.0  0.23618  0.03283  0.31868  1.0000
  C   C38       1.0  0.19995  0.16485  0.48684  1.0000
  H   H43       1.0  0.99725  0.10536  0.33688  1.0000
  H   H44       1.0  0.03913  0.16281  0.38835  1.0000
  C   C39       1.0  0.12713  0.29263  0.01285  1.0000
  H   H45       1.0  0.08113  0.13211  0.38586  1.0000
  H   H46       1.0  0.03577  0.10657  0.41703  1.0000
  H   H47       1.0  0.15901  0.28589  0.01693  1.0000
  H   H48       1.0  0.06692  0.14737  0.36564  1.0000
  C   C40       1.0  0.99668  0.24499  0.99571  1.0000
  C   C41       1.0  0.16246  0.09395  0.38216  1.0000
  C   C42       1.0  0.16482  0.11164  0.36608  1.0000
  C   C43       1.0  0.15614  0.11496  0.34831  1.0000
  C   C44       1.0  0.14440  0.10105  0.34694  1.0000
  C   C45       1.0  0.14170  0.08352  0.36319  1.0000
  C   C46       1.0  0.15101  0.07980  0.38066  1.0000
  H   H49       1.0  0.17375  0.12255  0.36715  1.0000
  H   H50       1.0  0.15832  0.12847  0.33571  1.0000
  H   H51       1.0  0.13280  0.07265  0.36211  1.0000
  H   H52       1.0  0.14902  0.06622  0.39312  1.0000
  C   C47       1.0  0.10863  0.99595  0.36974  1.0000
  H   H53       1.0  0.06603  0.15248  0.43751  1.0000
  H   H54       1.0  0.00059  0.08939  0.36176  1.0000
  H   H55       1.0  0.01259  0.02639  0.30687  1.0000
  C   C48       1.0  0.99693  0.19417  0.18201  1.0000
  S   S17       1.0  0.17516  0.99332  0.27809  1.0000
  H   H56       1.0  0.19593  0.02734  0.30313  1.0000
  S   S18       1.0  0.10518  0.08133  0.46397  1.0000
  H   H57       1.0  0.04003  0.01812  0.30047  1.0000
  C   C49       1.0  0.12338  0.00052  0.34820  1.0000
  H   H58       1.0  0.00853  0.28196  0.04827  1.0000
  C   C50       1.0  0.04053  0.01576  0.36575  1.0000
  C   C51       1.0  0.02498  0.15800  0.44235  1.0000
  H   H59       1.0  0.02448  0.11303  0.38383  1.0000
  H   H60       1.0  0.08600  0.14358  0.41632  1.0000
  H   H61       1.0  0.06404  0.07402  0.46715  1.0000
  C   C52       1.0  0.08171  0.00230  0.41317  1.0000
  C   C53       1.0  0.04579  0.25966  0.99089  1.0000
  H   H62       1.0  0.15847  0.03393  0.32359  1.0000
  H   H63       1.0  0.17772  0.05720  0.28809  1.0000
  H   H64       1.0  0.00951  0.13302  0.39774  1.0000
  H   H65       1.0  0.17343  0.20395  0.48105  1.0000
  C   C54       1.0  0.00343  0.25957  0.07746  1.0000
  Fe  Fe9       1.0  0.17451  0.01411  0.44189  1.0000
  H   H66       1.0  0.00527  0.16313  0.29684  1.0000
  H   H67       1.0  0.05331  0.11706  0.44306  1.0000
  H   H68       1.0  0.21901  0.05142  0.29536  1.0000
  H   H69       1.0  0.22398  0.14897  0.46428  1.0000
  H   H70       1.0  0.17732  0.04673  0.35581  1.0000
  H   H71       1.0  0.00542  0.24181  0.00853  1.0000
  H   H72       1.0  0.12005  0.11593  0.48019  1.0000
  H   H73       1.0  0.09963  0.99946  0.29392  1.0000
  H   H74       1.0  0.01304  0.15419  0.41719  1.0000
  H   H75       1.0  0.17447  0.08521  0.46370  1.0000
  H   H76       1.0  0.02399  0.99982  0.31630  1.0000
  H   H77       1.0  0.15700  0.12088  0.43019  1.0000
  C   C55       1.0  0.02557  0.03360  0.37606  1.0000
  H   H78       1.0  0.06775  0.30147  0.99464  1.0000
  H   H79       1.0  0.20108  0.17943  0.47477  1.0000
  H   H80       1.0  0.08180  0.15926  0.37651  1.0000
  H   H81       1.0  0.18336  0.32027  0.04828  1.0000
  C   C56       1.0  0.05189  0.15404  0.39694  1.0000
  H   H82       1.0  0.01555  0.27200  0.00836  1.0000
  H   H83       1.0  0.14456  0.30666  0.04319  1.0000
  H   H84       1.0  0.07695  0.99858  0.34149  1.0000
  C   C57       1.0  0.12184  0.01487  0.38881  1.0000
  H   H85       1.0  0.18711  0.15896  0.48388  1.0000
  Fe  Fe10      1.0  0.21254  0.02800  0.44705  1.0000
  H   H86       1.0  0.02873  0.29092  0.99148  1.0000
  H   H87       1.0  0.24237  0.09982  0.44451  1.0000
  C   C58       1.0  0.00505  0.09145  0.45534  1.0000
  H   H88       1.0  0.19336  0.07690  0.28359  1.0000
  H   H89       1.0  0.04121  0.03225  0.32710  1.0000
  H   H90       1.0  0.13392  0.01968  0.37489  1.0000
  H   H91       1.0  0.16560  0.08349  0.29071  1.0000
  H   H92       1.0  0.01689  0.13127  0.43694  1.0000
  H   H93       1.0  0.19717  0.07702  0.34751  1.0000
  H   H94       1.0  0.12434  0.11899  0.45289  1.0000
  S   S19       1.0  0.02596  0.32503  0.05852  1.0000
  N   N4        1.0  0.11774  0.99378  0.38875  1.0000
  H   H95       1.0  0.19347  0.12693  0.42132  1.0000
  H   H96       1.0  0.16045  0.14191  0.43978  1.0000
  C   C59       1.0  0.23585  0.06860  0.45700  1.0000
  C   C60       1.0  0.04127  0.11956  0.40436  1.0000
  C   C61       1.0  0.02432  0.14448  0.42719  1.0000
  C   C62       1.0  0.07148  0.14766  0.38036  1.0000
  H   H97       1.0  0.01192  0.20388  0.14189  1.0000
  C   C63       1.0  0.11352  0.30247  0.99909  1.0000
  Fe  Fe11      1.0  0.21248  0.01447  0.40664  1.0000
  C   C64       1.0  0.99929  0.11605  0.47851  1.0000
  H   H98       1.0  0.16371  0.13779  0.47450  1.0000
  H   H99       1.0  0.22797  0.06909  0.44462  1.0000
  H   H100      1.0  0.99756  0.21103  0.17678  1.0000
  C   C65       1.0  0.14855  0.07863  0.48766  1.0000
  H   H101      1.0  0.08433  0.01635  0.41718  1.0000
  H   H102      1.0  0.12118  0.30721  0.10118  1.0000
  H   H103      1.0  0.12655  0.15603  0.44729  1.0000
  H   H104      1.0  0.05611  0.11165  0.39546  1.0000
  H   H105      1.0  0.01349  0.02748  0.38920  1.0000
  H   H106      1.0  0.01442  0.07802  0.44903  1.0000
  H   H107      1.0  0.08679  0.03842  0.48034  1.0000
  H   H108      1.0  0.20426  0.01323  0.32656  1.0000
  H   H109      1.0  0.18274  0.08039  0.32031  1.0000
  H   H110      1.0  0.99520  0.23584  0.10434  1.0000
  H   H111      1.0  0.14519  0.00590  0.40910  1.0000
  H   H112      1.0  0.10465  0.15102  0.46773  1.0000
  H   H113      1.0  0.19239  0.10081  0.43496  1.0000
  S   S20       1.0  0.20813  0.99800  0.44066  1.0000
  H   H114      1.0  0.03568  0.17347  0.13400  1.0000
  H   H115      1.0  0.24032  0.02090  0.30866  1.0000
  H   H116      1.0  0.01659  0.16212  0.12893  1.0000
  S   S21       1.0  0.14637  0.00028  0.45972  1.0000
  C   C66       1.0  0.15301  0.31939  0.04164  1.0000
  C   C67       1.0  0.02615  0.01615  0.31334  1.0000
  N   N5        1.0  0.19622  0.04699  0.32439  1.0000
  C   C68       1.0  0.18017  0.06585  0.31707  1.0000
  C   C69       1.0  0.19408  0.04478  0.34778  1.0000
  C   C70       1.0  0.19282  0.02710  0.32029  1.0000
  C   C71       1.0  0.21764  0.05036  0.31247  1.0000
  H   H117      1.0  0.00871  0.16406  0.45008  1.0000
  H   H118      1.0  0.18228  0.29661  0.04154  1.0000
  C   C72       1.0  0.17945  0.07082  0.29348  1.0000
  H   H119      1.0  0.15161  0.06195  0.48628  1.0000
  S   S22       1.0  0.22871  0.02797  0.47300  1.0000
  C   C73       1.0  0.00439  0.19317  0.13739  1.0000
  C   C74       1.0  0.12203  0.14736  0.46362  1.0000
  H   H120      1.0  0.15160  0.08744  0.45393  1.0000
  H   H121      1.0  0.12765  0.15347  0.47463  1.0000
  H   H122      1.0  0.19899  0.05872  0.37173  1.0000
  C   C75       1.0  0.15737  0.09162  0.46628  1.0000
  H   H123      1.0  0.08263  0.00285  0.46087  1.0000
  H   H124      1.0  0.09474  0.00906  0.36925  1.0000
  H   H125      1.0  0.06767  0.99983  0.31800  1.0000
  C   C76       1.0  0.99832  0.14477  0.27824  1.0000
  S   S23       1.0  0.22014  0.04292  0.41282  1.0000
  H   H126      1.0  0.20121  0.02865  0.35519  1.0000
  C   C77       1.0  0.01165  0.00055  0.36470  1.0000
  H   H127      1.0  0.04969  0.25443  0.00681  1.0000
  H   H128      1.0  0.16971  0.30111  0.06720  1.0000
  H   H129      1.0  0.16774  0.01944  0.34745  1.0000
  H   H130      1.0  0.04600  0.00320  0.37880  1.0000
  H   H131      1.0  0.03211  0.17183  0.43409  1.0000
  H   H132      1.0  0.99374  0.00099  0.34118  1.0000
  H   H133      1.0  0.23412  0.15317  0.48471  1.0000
  H   H134      1.0  0.11542  0.00016  0.33572  1.0000
  C   C78       1.0  0.00043  0.26943  0.05709  1.0000
  H   H135      1.0  0.17692  0.11140  0.48159  1.0000
  C   C79       1.0  0.02482  0.27559  0.99213  1.0000
  H   H136      1.0  0.00006  0.31648  0.99262  1.0000
  C   C80       1.0  0.08693  0.02145  0.48184  1.0000
  S   S24       1.0  0.06750  0.12573  0.48898  1.0000
  H   H137      1.0  0.21936  0.13264  0.48970  1.0000
  H   H138      1.0  0.99565  0.22946  0.99342  1.0000
  H   H139      1.0  0.99380  0.12765  0.36219  1.0000
  H   H140      1.0  0.23691  0.18917  0.48977  1.0000
  C   C81       1.0  0.14620  0.24411  0.65645  1.0000
  H   H141      1.0  0.12816  0.12703  0.64498  1.0000
  C   C82       1.0  0.15298  0.24878  0.67266  1.0000
  H   H142      1.0  0.07652  0.99437  0.59932  1.0000
  C   C83       1.0  0.01765  0.06149  0.55860  1.0000
  H   H143      1.0  0.11419  0.10908  0.68378  1.0000
  H   H144      1.0  0.22020  0.15413  0.77065  1.0000
  H   H145      1.0  0.17517  0.10517  0.62505  1.0000
  S   S25       1.0  0.19928  0.05733  0.71616  1.0000
  Fe  Fe12      1.0  0.17555  0.04239  0.71082  1.0000
  S   S26       1.0  0.14087  0.05348  0.72125  1.0000
  Fe  Fe13      1.0  0.16821  0.13556  0.77944  1.0000
  S   S27       1.0  0.13369  0.14035  0.79109  1.0000
  S   S28       1.0  0.18900  0.10432  0.78724  1.0000
  Fe  Fe14      1.0  0.16601  0.17844  0.75072  1.0000
  S   S29       1.0  0.13107  0.18717  0.75988  1.0000
  S   S30       1.0  0.18733  0.19726  0.72651  1.0000
  Fe  Fe15      1.0  0.13627  0.17267  0.79267  1.0000
  S   S31       1.0  0.11985  0.18479  0.82214  1.0000
  Fe  Fe16      1.0  0.13200  0.15408  0.75734  1.0000
  S   S32       1.0  0.11078  0.14495  0.74160  1.0000
  S   S33       1.0  0.17129  0.16660  0.78374  1.0000
  S   S34       1.0  0.16649  0.14682  0.74550  1.0000
  Fe  Fe17      1.0  0.16757  0.21050  0.57640  1.0000
  S   S35       1.0  0.13255  0.21627  0.58574  1.0000
  S   S36       1.0  0.18223  0.22014  0.54247  1.0000
  Fe  Fe18      1.0  0.17345  0.18732  0.62004  1.0000
  S   S37       1.0  0.13918  0.19052  0.63290  1.0000
  S   S38       1.0  0.19740  0.17158  0.63985  1.0000
  Fe  Fe19      1.0  0.13756  0.18246  0.60266  1.0000
  S   S39       1.0  0.11993  0.15739  0.60325  1.0000
  Fe  Fe20      1.0  0.13772  0.22376  0.61478  1.0000
  S   S40       1.0  0.11950  0.25179  0.62883  1.0000
  S   S41       1.0  0.17237  0.17627  0.59154  1.0000
  S   S42       1.0  0.17231  0.22098  0.60373  1.0000
  Fe  Fe21      1.0  0.04430  0.29918  0.87620  1.0000
  H   H146      1.0  0.18431  0.01698  0.77546  1.0000
  Fe  Fe22      1.0  0.08795  0.29386  0.84879  1.0000
  H   H147      1.0  0.01123  0.29632  0.94422  1.0000
  S   S43       1.0  0.11123  0.28104  0.82203  1.0000
  Fe  Fe23      1.0  0.07986  0.30537  0.89187  1.0000
  S   S44       1.0  0.09380  0.30061  0.92026  1.0000
  H   H148      1.0  0.19188  0.04994  0.75904  1.0000
  S   S45       1.0  0.07490  0.27794  0.88154  1.0000
  S   S46       1.0  0.23149  0.29416  0.52070  1.0000
  C   C84       1.0  0.14171  0.00925  0.60589  1.0000
  S   S47       1.0  0.09254  0.08920  0.52211  1.0000
  H   H149      1.0  0.15906  0.07229  0.65273  1.0000
  C   C85       1.0  0.22033  0.19507  0.49677  1.0000
  H   H150      1.0  0.13360  0.07998  0.66717  1.0000
  H   H151      1.0  0.15644  0.07910  0.50013  1.0000
  H   H152      1.0  0.14164  0.13632  0.50613  1.0000
  H   H153      1.0  0.13882  0.03917  0.79097  1.0000
  H   H154      1.0  0.05859  0.26691  0.97999  1.0000
  H   H155      1.0  0.10998  0.32195  0.96886  1.0000
  H   H156      1.0  0.14730  0.28534  0.94988  1.0000
  H   H157      1.0  0.17637  0.24429  0.77293  1.0000
  C   C86       1.0  0.99817  0.05632  0.56104  1.0000
  H   H158      1.0  0.23122  0.17034  0.59994  1.0000
  H   H159      1.0  0.14453  0.30083  0.91507  1.0000
  C   C87       1.0  0.11322  0.15438  0.58031  1.0000
  C   C88       1.0  0.10209  0.13868  0.58190  1.0000
  C   C89       1.0  0.09619  0.13603  0.56411  1.0000
  C   C90       1.0  0.10139  0.14908  0.54450  1.0000
  H   H160      1.0  0.10050  0.17509  0.67937  1.0000
  C   C91       1.0  0.11872  0.16721  0.56062  1.0000
  H   H161      1.0  0.09772  0.12870  0.59705  1.0000
  H   H162      1.0  0.08736  0.12411  0.56564  1.0000
  H   H163      1.0  0.12716  0.17944  0.55918  1.0000
  C   C92       1.0  0.11678  0.21179  0.82135  1.0000
  C   C93       1.0  0.10611  0.21977  0.83938  1.0000
  C   C94       1.0  0.10407  0.24108  0.83958  1.0000
  C   C95       1.0  0.11294  0.25446  0.82182  1.0000
  C   C96       1.0  0.12368  0.24649  0.80375  1.0000
  C   C97       1.0  0.12541  0.22521  0.80342  1.0000
  H   H164      1.0  0.09935  0.20944  0.85324  1.0000
  H   H165      1.0  0.09577  0.24708  0.85354  1.0000
  H   H166      1.0  0.13048  0.25684  0.78994  1.0000
  H   H167      1.0  0.13359  0.21914  0.78945  1.0000
  C   C98       1.0  0.18876  0.19287  0.70142  1.0000
  C   C99       1.0  0.17237  0.18649  0.69697  1.0000
  C   C100      1.0  0.17434  0.18156  0.67732  1.0000
  C   C101      1.0  0.19313  0.18186  0.66257  1.0000
  C   C102      1.0  0.20934  0.18864  0.66689  1.0000
  C   C103      1.0  0.20697  0.19460  0.68609  1.0000
  H   H168      1.0  0.15829  0.18516  0.70877  1.0000
  H   H169      1.0  0.16166  0.17679  0.67388  1.0000
  H   H170      1.0  0.22385  0.18902  0.65553  1.0000
  H   H171      1.0  0.21968  0.19950  0.68946  1.0000
  C   C104      1.0  0.13251  0.07828  0.72834  1.0000
  C   C105      1.0  0.14604  0.08744  0.73429  1.0000
  C   C106      1.0  0.13919  0.10753  0.73922  1.0000
  C   C107      1.0  0.11894  0.11885  0.73768  1.0000
  C   C108      1.0  0.10532  0.10956  0.73201  1.0000
  C   C109      1.0  0.11200  0.08925  0.72760  1.0000
  H   H172      1.0  0.16170  0.07903  0.73536  1.0000
  H   H173      1.0  0.14975  0.11428  0.74390  1.0000
  H   H174      1.0  0.08959  0.11811  0.73092  1.0000
  H   H175      1.0  0.10138  0.08221  0.72315  1.0000
  C   C110      1.0  0.13855  0.25960  0.94233  1.0000
  H   H176      1.0  0.16546  0.23785  0.67956  1.0000
  C   C111      1.0  0.07651  0.31084  0.94132  1.0000
  Fe  Fe24      1.0  0.07563  0.12281  0.52041  1.0000
  H   H177      1.0  0.13529  0.06082  0.81936  1.0000
  C   C112      1.0  0.12956  0.25782  0.64799  1.0000
  C   C113      1.0  0.11994  0.27625  0.65568  1.0000
  H   H178      1.0  0.14299  0.09567  0.64193  1.0000
  H   H179      1.0  0.09772  0.13148  0.67108  1.0000
  H   H180      1.0  0.14329  0.12365  0.69614  1.0000
  C   C114      1.0  0.06578  0.30917  0.97893  1.0000
  H   H181      1.0  0.22680  0.07661  0.79560  1.0000
  C   C115      1.0  0.22203  0.08731  0.80639  1.0000
  C   C116      1.0  0.20350  0.10238  0.80608  1.0000
  C   C117      1.0  0.19715  0.11593  0.82032  1.0000
  C   C118      1.0  0.20984  0.11480  0.83445  1.0000
  C   C119      1.0  0.17485  0.01418  0.50995  1.0000
  C   C120      1.0  0.22362  0.21342  0.75927  1.0000
  H   H182      1.0  0.18257  0.12729  0.82035  1.0000
  H   H183      1.0  0.22052  0.20787  0.50450  1.0000
  C   C121      1.0  0.21891  0.27271  0.52699  1.0000
  H   H184      1.0  0.23690  0.06044  0.62689  1.0000
  C   C122      1.0  0.20843  0.24142  0.55077  1.0000
  C   C123      1.0  0.19650  0.24015  0.53692  1.0000
  C   C124      1.0  0.19609  0.25492  0.51805  1.0000
  C   C125      1.0  0.20693  0.27137  0.51329  1.0000
  H   H185      1.0  0.18739  0.02181  0.51079  1.0000
  C   C126      1.0  0.16126  0.30056  0.90764  1.0000
  H   H186      1.0  0.18691  0.25399  0.50731  1.0000
  H   H187      1.0  0.18064  0.13026  0.61132  1.0000
  C   C127      1.0  0.11285  0.16455  0.54283  1.0000
  H   H188      1.0  0.09225  0.01918  0.57796  1.0000
  H   H189      1.0  0.15686  0.07278  0.81659  1.0000
  Fe  Fe25      1.0  0.21494  0.05573  0.68312  1.0000
  H   H190      1.0  0.18225  0.10601  0.69013  1.0000
  H   H191      1.0  0.17005  0.24817  0.81608  1.0000
  H   H192      1.0  0.15352  0.22966  0.65088  1.0000
  H   H193      1.0  0.04089  0.01703  0.58832  1.0000
  H   H194      1.0  0.16172  0.17621  0.87245  1.0000
  H   H195      1.0  0.18328  0.13948  0.51880  1.0000
  C   C128      1.0  0.10468  0.18938  0.68137  1.0000
  H   H196      1.0  0.12144  0.18514  0.68238  1.0000
  C   C129      1.0  0.18209  0.23376  0.81971  1.0000
  H   H197      1.0  0.10227  0.20169  0.66714  1.0000
  H   H198      1.0  0.00458  0.05709  0.49361  1.0000
  C   C130      1.0  0.10632  0.02059  0.58291  1.0000
  H   H199      1.0  0.22047  0.26141  0.67953  1.0000
  H   H200      1.0  0.15869  0.04534  0.84584  1.0000
  C   C131      1.0  0.07545  0.03654  0.63549  1.0000
  S   S48       1.0  0.22378  0.08565  0.66345  1.0000
  C   C132      1.0  0.24252  0.13100  0.75469  1.0000
  H   H201      1.0  0.20502  0.25549  0.76627  1.0000
  H   H202      1.0  0.15604  0.26046  0.96433  1.0000
  H   H203      1.0  0.24105  0.09635  0.71108  1.0000
  H   H204      1.0  0.19404  0.23276  0.80509  1.0000
  H   H205      1.0  0.11786  0.02041  0.63038  1.0000
  H   H206      1.0  0.16592  0.00918  0.52598  1.0000
  C   C133      1.0  0.21389  0.25173  0.69469  1.0000
  H   H207      1.0  0.14712  0.16427  0.86154  1.0000
  H   H208      1.0  0.15950  0.23861  0.75957  1.0000
  H   H209      1.0  0.17177  0.01847  0.85105  1.0000
  C   C134      1.0  0.17356  0.18321  0.51269  1.0000
  H   H210      1.0  0.02216  0.24608  0.96927  1.0000
  C   C135      1.0  0.08315  0.03632  0.61182  1.0000
  H   H211      1.0  0.10027  0.05497  0.57036  1.0000
  C   C136      1.0  0.19723  0.30178  0.57575  1.0000
  C   C137      1.0  0.14772  0.12025  0.50272  1.0000
  H   H212      1.0  0.16783  0.32474  0.60168  1.0000
  H   H213      1.0  0.06139  0.04931  0.63749  1.0000
  H   H214      1.0  0.17567  0.28666  0.55470  1.0000
  H   H215      1.0  0.21559  0.14682  0.57619  1.0000
  H   H216      1.0  0.12893  0.14867  0.65453  1.0000
  C   C138      1.0  0.22246  0.14806  0.75615  1.0000
  C   C139      1.0  0.18826  0.27956  0.94083  1.0000
  H   H217      1.0  0.14687  0.01191  0.58856  1.0000
  S   S49       1.0  0.09399  0.14670  0.52167  1.0000
  H   H218      1.0  0.20554  0.17227  0.87793  1.0000
  H   H219      1.0  0.20760  0.06399  0.76569  1.0000
  H   H220      1.0  0.08591  0.21022  0.73999  1.0000
  S   S50       1.0  0.05290  0.08019  0.50784  1.0000
  Fe  Fe26      1.0  0.06119  0.08120  0.53777  1.0000
  H   H221      1.0  0.09199  0.28824  0.96455  1.0000
  C   C140      1.0  0.03323  0.04719  0.56814  1.0000
  N   N6        1.0  0.07501  0.01290  0.50325  1.0000
  H   H222      1.0  0.02211  0.02542  0.52741  1.0000
  H   H223      1.0  0.18464  0.12268  0.64786  1.0000
  H   H224      1.0  0.11683  0.17481  0.52777  1.0000
  H   H225      1.0  0.16703  0.23236  0.92259  1.0000
  C   C141      1.0  0.23469  0.30453  0.88239  1.0000
  H   H226      1.0  0.15430  0.12743  0.61867  1.0000
  C   C142      1.0  0.20717  0.26951  0.61602  1.0000
  C   C143      1.0  0.17045  0.20490  0.49781  1.0000
  S   S51       1.0  0.18959  0.04377  0.67661  1.0000
  H   H227      1.0  0.13818  0.22563  0.71730  1.0000
  H   H228      1.0  0.18611  0.03762  0.83429  1.0000
  H   H229      1.0  0.04764  0.22269  0.74487  1.0000
  H   H230      1.0  0.20139  0.27653  0.63024  1.0000
  C   C144      1.0  0.16706  0.01885  0.77870  1.0000
  H   H231      1.0  0.06310  0.22644  0.68110  1.0000
  H   H232      1.0  0.24172  0.11998  0.77030  1.0000
  C   C145      1.0  0.15465  0.26888  0.94802  1.0000
  C   C146      1.0  0.14349  0.26740  0.68015  1.0000
  H   H233      1.0  0.23245  0.26266  0.70959  1.0000
  H   H234      1.0  0.07875  0.03601  0.51910  1.0000
  H   H235      1.0  0.22158  0.12945  0.70407  1.0000
  H   H236      1.0  0.16625  0.14627  0.64145  1.0000
  H   H237      1.0  0.22874  0.12822  0.62996  1.0000
  H   H238      1.0  0.05664  0.19962  0.73398  1.0000
  H   H239      1.0  0.17450  0.12778  0.70308  1.0000
  H   H240      1.0  0.18750  0.13182  0.67627  1.0000
  Fe  Fe27      1.0  0.19676  0.31989  0.69857  1.0000
  H   H241      1.0  0.14979  0.09220  0.68593  1.0000
  H   H242      1.0  0.11600  0.03950  0.55205  1.0000
  H   H243      1.0  0.17975  0.21526  0.50024  1.0000
  H   H244      1.0  0.14262  0.19211  0.85688  1.0000
  Fe  Fe28      1.0  0.08248  0.09168  0.49202  1.0000
  H   H245      1.0  0.11342  0.22794  0.73490  1.0000
  H   H246      1.0  0.19044  0.27835  0.90126  1.0000
  S   S52       1.0  0.15052  0.27208  0.70193  1.0000
  S   S53       1.0  0.05678  0.31274  0.84253  1.0000
  H   H247      1.0  0.17351  0.09096  0.66716  1.0000
  H   H248      1.0  0.22046  0.27645  0.60583  1.0000
  H   H249      1.0  0.23050  0.15326  0.69257  1.0000
  H   H250      1.0  0.14003  0.24255  0.94939  1.0000
  H   H251      1.0  0.12197  0.04000  0.60735  1.0000
  Fe  Fe29      1.0  0.15926  0.30362  0.69658  1.0000
  H   H252      1.0  0.20690  0.20419  0.84459  1.0000
  C   C147      1.0  0.01001  0.02216  0.58184  1.0000
  N   N7        1.0  0.18545  0.19333  0.83254  1.0000
  C   C148      1.0  0.17135  0.21457  0.82740  1.0000
  C   C149      1.0  0.17197  0.17703  0.83824  1.0000
  C   C150      1.0  0.20176  0.19023  0.81292  1.0000
  C   C151      1.0  0.19544  0.19354  0.85024  1.0000
  H   H253      1.0  0.16431  0.28633  0.63819  1.0000
  H   H254      1.0  0.24100  0.15457  0.63637  1.0000
  C   C152      1.0  0.21378  0.16760  0.81164  1.0000
  C   C153      1.0  0.20746  0.17236  0.86096  1.0000
  H   H255      1.0  0.17972  0.29594  0.94152  1.0000
  H   H256      1.0  0.09295  0.32332  0.75170  1.0000
  H   H257      1.0  0.18126  0.16076  0.84008  1.0000
  H   H258      1.0  0.16391  0.17849  0.82518  1.0000
  H   H259      1.0  0.19447  0.19590  0.79878  1.0000
  H   H260      1.0  0.21374  0.19982  0.81046  1.0000
  H   H261      1.0  0.19084  0.23753  0.90426  1.0000
  H   H262      1.0  0.18372  0.20071  0.86278  1.0000
  H   H263      1.0  0.04775  0.28370  0.92706  1.0000
  S   S54       1.0  0.23724  0.28279  0.81410  1.0000
  H   H264      1.0  0.12010  0.31639  0.74148  1.0000
  C   C154      1.0  0.15909  0.30240  0.62941  1.0000
  C   C155      1.0  0.19413  0.26995  0.96261  1.0000
  C   C156      1.0  0.10756  0.01322  0.51731  1.0000
  H   H265      1.0  0.20372  0.15809  0.80910  1.0000
  H   H266      1.0  0.22078  0.15934  0.82546  1.0000
  H   H267      1.0  0.22691  0.16823  0.79780  1.0000
  H   H268      1.0  0.15736  0.31334  0.64001  1.0000
  H   H269      1.0  0.20179  0.15839  0.86063  1.0000
  C   C157      1.0  0.21995  0.25750  0.54560  1.0000
  N   N8        1.0  0.19471  0.16879  0.50892  1.0000
  C   C158      1.0  0.19308  0.14781  0.52373  1.0000
  S   S55       1.0  0.01525  0.28569  0.88608  1.0000
  C   C159      1.0  0.09819  0.99786  0.61754  1.0000
  C   C160      1.0  0.21138  0.17729  0.51366  1.0000
  C   C161      1.0  0.18383  0.14855  0.54712  1.0000
  H   H270      1.0  0.21513  0.22172  0.77212  1.0000
  C   C162      1.0  0.07938  0.30155  0.96180  1.0000
  C   C163      1.0  0.99447  0.03645  0.57214  1.0000
  H   H271      1.0  0.20330  0.30929  0.90030  1.0000
  H   H272      1.0  0.20873  0.13715  0.52333  1.0000
  H   H273      1.0  0.16294  0.21474  0.81502  1.0000
  H   H274      1.0  0.04339  0.01681  0.54044  1.0000
  N   N9        1.0  0.17588  0.26771  0.93365  1.0000
  H   H275      1.0  0.16976  0.18674  0.52875  1.0000
  H   H276      1.0  0.20572  0.18304  0.52866  1.0000
  H   H277      1.0  0.22506  0.16439  0.51647  1.0000
  H   H278      1.0  0.16659  0.15415  0.54986  1.0000
  H   H279      1.0  0.18684  0.13242  0.55686  1.0000
  H   H280      1.0  0.19091  0.15865  0.55286  1.0000
  H   H281      1.0  0.17747  0.26454  0.73507  1.0000
  H   H282      1.0  0.23633  0.03113  0.78902  1.0000
  H   H283      1.0  0.16257  0.01790  0.76415  1.0000
  H   H284      1.0  0.22376  0.16170  0.74281  1.0000
  C   C164      1.0  0.08355  0.01877  0.51939  1.0000
  H   H285      1.0  0.20429  0.27779  0.74596  1.0000
  C   C165      1.0  0.23048  0.15150  0.56750  1.0000
  H   H286      1.0  0.17025  0.99345  0.68500  1.0000
  H   H287      1.0  0.22938  0.09616  0.75850  1.0000
  H   H288      1.0  0.21457  0.15035  0.71839  1.0000
  C   C166      1.0  0.22320  0.22693  0.73688  1.0000
  C   C167      1.0  0.17448  0.27803  0.91112  1.0000
  H   H289      1.0  0.03221  0.26407  0.93475  1.0000
  C   C168      1.0  0.21247  0.26103  0.74978  1.0000
  C   C169      1.0  0.02290  0.28808  0.95430  1.0000
  S   S56       1.0  0.04451  0.11468  0.53833  1.0000
  C   C170      1.0  0.14133  0.31705  0.97372  1.0000
  H   H290      1.0  0.22444  0.17023  0.85395  1.0000
  H   H291      1.0  0.07710  0.01106  0.53565  1.0000
  H   H292      1.0  0.09848  0.99504  0.63458  1.0000
  H   H293      1.0  0.16767  0.26898  0.90377  1.0000
  H   H294      1.0  0.17916  0.32069  0.55151  1.0000
  H   H295      1.0  0.16704  0.31174  0.91331  1.0000
  H   H296      1.0  0.18419  0.24020  0.72676  1.0000
  H   H297      1.0  0.20909  0.22980  0.56522  1.0000
  H   H298      1.0  0.14885  0.02401  0.82545  1.0000
  C   C171      1.0  0.12702  0.28115  0.67154  1.0000
  H   H299      1.0  0.23544  0.03355  0.63761  1.0000
  C   C172      1.0  0.18682  0.24820  0.73820  1.0000
  H   H300      1.0  0.11800  0.31823  0.77703  1.0000
  C   C173      1.0  0.23529  0.26107  0.75016  1.0000
  H   H301      1.0  0.18898  0.31025  0.61373  1.0000
  C   C174      1.0  0.22732  0.14198  0.70769  1.0000
  H   H302      1.0  0.11078  0.13479  0.68971  1.0000
  H   H303      1.0  0.20499  0.24469  0.93062  1.0000
  H   H304      1.0  0.12901  0.09551  0.79915  1.0000
  N   N10       1.0  0.15246  0.12129  0.66333  1.0000
  C   C175      1.0  0.15434  0.12939  0.68173  1.0000
  C   C176      1.0  0.13087  0.13121  0.65887  1.0000
  C   C177      1.0  0.16857  0.12879  0.64466  1.0000
  C   C178      1.0  0.15640  0.09755  0.66898  1.0000
  C   C179      1.0  0.17601  0.12321  0.68787  1.0000
  C   C180      1.0  0.11253  0.12616  0.67707  1.0000
  C   C181      1.0  0.16938  0.12236  0.62395  1.0000
  C   C182      1.0  0.14729  0.08627  0.65684  1.0000
  H   H305      1.0  0.14974  0.14684  0.67889  1.0000
  C   C183      1.0  0.03804  0.01554  0.52661  1.0000
  S   S57       1.0  0.05802  0.05318  0.56427  1.0000
  C   C184      1.0  0.18377  0.23215  0.92104  1.0000
  C   C185      1.0  0.18400  0.99595  0.49803  1.0000
  H   H306      1.0  0.21452  0.14298  0.61042  1.0000
  N   N11       1.0  0.20969  0.24871  0.73500  1.0000
  H   H307      1.0  0.23601  0.12365  0.66220  1.0000
  H   H308      1.0  0.05164  0.26337  0.94950  1.0000
  H   H309      1.0  0.03049  0.30047  0.95567  1.0000
  H   H310      1.0  0.16397  0.02636  0.50110  1.0000
  H   H311      1.0  0.19158  0.21547  0.92567  1.0000
  S   S58       1.0  0.18984  0.30607  0.67456  1.0000
  H   H312      1.0  0.11939  0.29536  0.67745  1.0000
  H   H313      1.0  0.10695  0.28681  0.64935  1.0000
  H   H314      1.0  0.15588  0.05213  0.77008  1.0000
  Fe  Fe30      1.0  0.20838  0.01179  0.68693  1.0000
  H   H315      1.0  0.21847  0.21756  0.72801  1.0000
  H   H316      1.0  0.21892  0.08626  0.72778  1.0000
  H   H317      1.0  0.15898  0.21803  0.84126  1.0000
  S   S59       1.0  0.00702  0.12641  0.49656  1.0000
  H   H318      1.0  0.21025  0.30438  0.58160  1.0000
  Fe  Fe31      1.0  0.21736  0.02451  0.72431  1.0000
  H   H319      1.0  0.12259  0.26782  0.94858  1.0000
  H   H320      1.0  0.21695  0.19928  0.76132  1.0000
  H   H321      1.0  0.21592  0.11360  0.59650  1.0000
  H   H322      1.0  0.16208  0.30652  0.89048  1.0000
  C   C186      1.0  0.15521  0.30684  0.98724  1.0000
  C   C187      1.0  0.19159  0.06075  0.76910  1.0000
  C   C188      1.0  0.22904  0.10058  0.83380  1.0000
  H   H323      1.0  0.12705  0.21201  0.69325  1.0000
  H   H324      1.0  0.10321  0.23286  0.67397  1.0000
  H   H325      1.0  0.19629  0.26174  0.59218  1.0000
  H   H326      1.0  0.07435  0.19701  0.70021  1.0000
  H   H327      1.0  0.18487  0.23619  0.95159  1.0000
  H   H328      1.0  0.20465  0.28982  0.56592  1.0000
  C   C189      1.0  0.03956  0.27369  0.94097  1.0000
  C   C190      1.0  0.09047  0.23462  0.68798  1.0000
  H   H329      1.0  0.22919  0.25842  0.55625  1.0000
  H   H330      1.0  0.20643  0.27721  0.71103  1.0000
  C   C191      1.0  0.05221  0.02345  0.50560  1.0000
  H   H331      1.0  0.17573  0.01425  0.81573  1.0000
  C   C192      1.0  0.11587  0.21239  0.70860  1.0000
  C   C193      1.0  0.09063  0.19610  0.70148  1.0000
  H   H332      1.0  0.12025  0.19671  0.71880  1.0000
  H   H333      1.0  0.09341  0.18276  0.71493  1.0000
  N   N12       1.0  0.18075  0.29395  0.59384  1.0000
  C   C194      1.0  0.16146  0.29370  0.58647  1.0000
  H   H334      1.0  0.18271  0.21996  0.76304  1.0000
  C   C195      1.0  0.12035  0.02325  0.61292  1.0000
  C   C196      1.0  0.02917  0.02778  0.58030  1.0000
  C   C197      1.0  0.16502  0.28078  0.56934  1.0000
  N   N13       1.0  0.09355  0.21604  0.70591  1.0000
  H   H335      1.0  0.08633  0.05228  0.60416  1.0000
  C   C198      1.0  0.12102  0.22881  0.71809  1.0000
  H   H336      1.0  0.17119  0.26388  0.57498  1.0000
  C   C199      1.0  0.11291  0.04089  0.56875  1.0000
  H   H337      1.0  0.14338  0.30406  0.62613  1.0000
  H   H338      1.0  0.14981  0.28187  0.56514  1.0000
  H   H339      1.0  0.13144  0.08323  0.49243  1.0000
  H   H340      1.0  0.20257  0.28053  0.96614  1.0000
  H   H341      1.0  0.07806  0.23699  0.72759  1.0000
  H   H342      1.0  0.23514  0.27055  0.76164  1.0000
  S   S60       1.0  0.23518  0.02394  0.69121  1.0000
  H   H343      1.0  0.20835  0.14192  0.75742  1.0000
  S   S61       1.0  0.19233  0.00921  0.72103  1.0000
  H   H344      1.0  0.07086  0.31464  0.78381  1.0000
  H   H345      1.0  0.04499  0.02199  0.49311  1.0000
  Fe  Fe32      1.0  0.03828  0.11407  0.50686  1.0000
  H   H346      1.0  0.07221  0.24802  0.66359  1.0000
  H   H347      1.0  0.11144  0.01560  0.53158  1.0000
  S   S62       1.0  0.22940  0.01695  0.75465  1.0000
  H   H348      1.0  0.23973  0.22779  0.72909  1.0000
  H   H349      1.0  0.14985  0.28691  0.59980  1.0000
  C   C200      1.0  0.18779  0.24519  0.93506  1.0000
  S   S63       1.0  0.22718  0.30971  0.71000  1.0000
  H   H350      1.0  0.04843  0.22497  0.71764  1.0000
  C   C201      1.0  0.21592  0.26091  0.71290  1.0000
  H   H351      1.0  0.11657  0.24510  0.70944  1.0000
  C   C202      1.0  0.16442  0.02862  0.81975  1.0000
  H   H352      1.0  0.18105  0.07582  0.76457  1.0000
  C   C203      1.0  0.18960  0.27180  0.60412  1.0000
  H   H353      1.0  0.15263  0.09184  0.78059  1.0000
  H   H354      1.0  0.21459  0.11557  0.74184  1.0000
  C   C204      1.0  0.17062  0.03305  0.83866  1.0000
  C   C205      1.0  0.23493  0.08661  0.82003  1.0000
  H   H355      1.0  0.05777  0.25128  0.68948  1.0000
  C   C206      1.0  0.15562  0.04008  0.78492  1.0000
  H   H356      1.0  0.03655  0.99912  0.52800  1.0000
  H   H357      1.0  0.06976  0.03509  0.60558  1.0000
  H   H358      1.0  0.21521  0.10253  0.62328  1.0000
  N   N14       1.0  0.10200  0.01953  0.60631  1.0000
  C   C207      1.0  0.07926  0.22045  0.72629  1.0000
  H   H359      1.0  0.09201  0.24919  0.69201  1.0000
  H   H360      1.0  0.20602  0.28311  0.49893  1.0000
  H   H361      1.0  0.17707  0.26416  0.61529  1.0000
  H   H362      1.0  0.13923  0.26225  0.92525  1.0000
  H   H363      1.0  0.19777  0.03526  0.79431  1.0000
  H   H364      1.0  0.21205  0.31734  0.83953  1.0000
  H   H365      1.0  0.15343  0.31002  0.58050  1.0000
  C   C208      1.0  0.06955  0.24021  0.68051  1.0000
  C   C209      1.0  0.05677  0.21671  0.73056  1.0000
  H   H366      1.0  0.11857  0.00699  0.57846  1.0000
  H   H367      1.0  0.15376  0.01304  0.61222  1.0000
  H   H368      1.0  0.18986  0.05996  0.80168  1.0000
  S   S64       1.0  0.23048  0.28497  0.87166  1.0000
  C   C210      1.0  0.18605  0.05031  0.79242  1.0000
  C   C211      1.0  0.12066  0.31433  0.97937  1.0000
  H   H369      1.0  0.21334  0.25250  0.62151  1.0000
  H   H370      1.0  0.18918  0.23615  0.83196  1.0000
  H   H371      1.0  0.07078  0.02164  0.64472  1.0000
  H   H372      1.0  0.13176  0.07846  0.78193  1.0000
  C   C212      1.0  0.14932  0.06553  0.80796  1.0000
  N   N15       1.0  0.16403  0.04643  0.80073  1.0000
  C   C213      1.0  0.14050  0.08354  0.79110  1.0000
  H   H373      1.0  0.12742  0.04357  0.57160  1.0000
  C   C214      1.0  0.15504  0.17775  0.85850  1.0000
  C   C215      1.0  0.21823  0.31381  0.89660  1.0000
  H   H374      1.0  0.20328  0.28094  0.92942  1.0000
  H   H375      1.0  0.22279  0.23539  0.69497  1.0000
  C   C216      1.0  0.17624  0.23707  0.75986  1.0000
  H   H376      1.0  0.20488  0.25440  0.96295  1.0000
  C   C217      1.0  0.17487  0.30855  0.60909  1.0000
  H   H377      1.0  0.17129  0.30876  0.98282  1.0000
  H   H378      1.0  0.13437  0.11233  0.50625  1.0000
  H   H379      1.0  0.20525  0.12541  0.84528  1.0000
  H   H380      1.0  0.23949  0.09831  0.60543  1.0000
  H   H381      1.0  0.11543  0.02378  0.50368  1.0000
  H   H382      1.0  0.22909  0.16856  0.56660  1.0000
  N   N16       1.0  0.01221  0.27782  0.97574  1.0000
  H   H383      1.0  0.05046  0.04070  0.50372  1.0000
  S   S65       1.0  0.09590  0.31927  0.85979  1.0000
  H   H384      1.0  0.02044  0.07674  0.54963  1.0000
  H   H385      1.0  0.16106  0.17531  0.51205  1.0000
  S   S66       1.0  0.16738  0.31477  0.72197  1.0000
  H   H386      1.0  0.08916  0.32327  0.80388  1.0000
  C   C218      1.0  0.22509  0.11015  0.60899  1.0000
  H   H387      1.0  0.18024  0.26866  0.97547  1.0000
  C   C219      1.0  0.23404  0.09013  0.72757  1.0000
  C   C220      1.0  0.00776  0.25713  0.97482  1.0000
  H   H388      1.0  0.00707  0.00705  0.59096  1.0000
  C   C221      1.0  0.23045  0.10570  0.74217  1.0000
  H   H389      1.0  0.23261  0.14924  0.55125  1.0000
  H   H390      1.0  0.08733  0.03988  0.64235  1.0000
  H   H391      1.0  0.15767  0.11164  0.51438  1.0000
  C   C222      1.0  0.18987  0.32251  0.56074  1.0000
  H   H392      1.0  0.99872  0.32326  0.96493  1.0000
  H   H393      1.0  0.17130  0.99392  0.49151  1.0000
  C   C223      1.0  0.22868  0.13067  0.61299  1.0000
  C   C224      1.0  0.99544  0.29522  0.90593  1.0000
  H   H394      1.0  0.06359  0.00240  0.62386  1.0000
  H   H395      1.0  0.19735  0.25263  0.69422  1.0000
  S   S67       1.0  0.04833  0.32545  0.88885  1.0000
  H   H396      1.0  0.11417  0.99657  0.51619  1.0000
  H   H397      1.0  0.04539  0.24502  0.98643  1.0000
  H   H398      1.0  0.15384  0.21292  0.50188  1.0000
  H   H399      1.0  0.99794  0.25969  0.96289  1.0000
  H   H400      1.0  0.24004  0.20765  0.76151  1.0000
  H   H401      1.0  0.16238  0.00544  0.79110  1.0000
  C   C225      1.0  0.07768  0.99267  0.61584  1.0000
  H   H402      1.0  0.99324  0.03562  0.50966  1.0000
  H   H403      1.0  0.00229  0.32590  0.83021  1.0000
  Fe  Fe33      1.0  0.11544  0.45535  0.09819  1.0000
  S   S68       1.0  0.11382  0.43564  0.13081  1.0000
  S   S69       1.0  0.08926  0.47936  0.08585  1.0000
  Fe  Fe34      1.0  0.15934  0.43349  0.08274  1.0000
  S   S70       1.0  0.16147  0.41144  0.11378  1.0000
  S   S71       1.0  0.18361  0.43530  0.05305  1.0000
  Fe  Fe35      1.0  0.12863  0.40853  0.11424  1.0000
  S   S72       1.0  0.11744  0.37742  0.12264  1.0000
  Fe  Fe36      1.0  0.14662  0.44065  0.12728  1.0000
  S   S73       1.0  0.15768  0.44793  0.15377  1.0000
  S   S74       1.0  0.12826  0.42813  0.08198  1.0000
  S   S75       1.0  0.14662  0.46271  0.09597  1.0000
  Fe  Fe37      1.0  0.22369  0.52395  0.17033  1.0000
  S   S76       1.0  0.20964  0.55847  0.16385  1.0000
  S   S77       1.0  0.22211  0.50652  0.14570  1.0000
  H   H404      1.0  0.11205  0.32860  0.04555  1.0000
  H   H405      1.0  0.19026  0.61141  0.22994  1.0000
  C   C226      1.0  0.05813  0.52571  0.11287  1.0000
  Fe  Fe38      1.0  0.19655  0.55372  0.19832  1.0000
  S   S78       1.0  0.16384  0.57127  0.20651  1.0000
  H   H406      1.0  0.07355  0.39654  0.06926  1.0000
  S   S79       1.0  0.20862  0.51879  0.20468  1.0000
  H   H407      1.0  0.12968  0.40980  0.01260  1.0000
  Fe  Fe39      1.0  0.14611  0.63834  0.28171  1.0000
  H   H408      1.0  0.08613  0.45850  0.01786  1.0000
  S   S80       1.0  0.14853  0.60349  0.29068  1.0000
  C   C227      1.0  0.21605  0.64931  0.17519  1.0000
  C   C228      1.0  0.13363  0.33038  0.07506  1.0000
  H   H409      1.0  0.99704  0.34429  0.17256  1.0000
  C   C229      1.0  0.03449  0.57788  0.07881  1.0000
  H   H410      1.0  0.05091  0.38399  0.12375  1.0000
  H   H411      1.0  0.05146  0.42379  0.00458  1.0000
  H   H412      1.0  0.99366  0.36485  0.05677  1.0000
  H   H413      1.0  0.22795  0.56746  0.10925  1.0000
  S   S81       1.0  0.06578  0.60084  0.01341  1.0000
  H   H414      1.0  0.22242  0.39710  0.09848  1.0000
  C   C230      1.0  0.19312  0.37481  0.04742  1.0000
  H   H415      1.0  0.00244  0.42861  0.99712  1.0000
  C   C231      1.0  0.20330  0.63228  0.31108  1.0000
  C   C232      1.0  0.21401  0.61279  0.32059  1.0000
  H   H416      1.0  0.20302  0.59876  0.26157  1.0000
  H   H417      1.0  0.10480  0.35617  0.01561  1.0000
  C   C233      1.0  0.19632  0.64734  0.16869  1.0000
  H   H418      1.0  0.18665  0.63476  0.31210  1.0000
  H   H419      1.0  0.20561  0.60030  0.32879  1.0000
  C   C234      1.0  0.10035  0.44575  0.01803  1.0000
  C   C235      1.0  0.02339  0.51011  0.10460  1.0000
  C   C236      1.0  0.15977  0.57996  0.22999  1.0000
  C   C237      1.0  0.17092  0.56861  0.24571  1.0000
  C   C238      1.0  0.16707  0.57555  0.26466  1.0000
  C   C239      1.0  0.15266  0.59420  0.26751  1.0000
  C   C240      1.0  0.14194  0.60576  0.25156  1.0000
  C   C241      1.0  0.14518  0.59841  0.23299  1.0000
  H   H420      1.0  0.18215  0.55427  0.24346  1.0000
  H   H421      1.0  0.17541  0.56664  0.27699  1.0000
  H   H422      1.0  0.13075  0.62012  0.25373  1.0000
  H   H423      1.0  0.13652  0.60715  0.22088  1.0000
  H   H424      1.0  0.22939  0.63641  0.17124  1.0000
  H   H425      1.0  0.06202  0.50887  0.11158  1.0000
  S   S82       1.0  0.22332  0.56190  0.20632  1.0000
  H   H426      1.0  0.18190  0.61967  0.13632  1.0000
  H   H427      1.0  0.20086  0.39784  0.99552  1.0000
  C   C242      1.0  0.18909  0.41258  0.04271  1.0000
  C   C243      1.0  0.19409  0.41423  0.02090  1.0000
  C   C244      1.0  0.19760  0.39632  0.01234  1.0000
  C   C245      1.0  0.18859  0.39287  0.05602  1.0000
  H   H428      1.0  0.19482  0.42943  0.01062  1.0000
  S   S83       1.0  0.03650  0.64524  0.99191  1.0000
  H   H429      1.0  0.03061  0.35927  0.15236  1.0000
  C   C246      1.0  0.17482  0.46513  0.15125  1.0000
  C   C247      1.0  0.18174  0.46582  0.16913  1.0000
  C   C248      1.0  0.19575  0.47883  0.16779  1.0000
  C   C249      1.0  0.20317  0.49119  0.14845  1.0000
  C   C250      1.0  0.19622  0.49054  0.13054  1.0000
  C   C251      1.0  0.18187  0.47785  0.13199  1.0000
  H   H430      1.0  0.17642  0.45603  0.18410  1.0000
  H   H431      1.0  0.20120  0.47889  0.18164  1.0000
  H   H432      1.0  0.20186  0.50002  0.11550  1.0000
  H   H433      1.0  0.17630  0.47787  0.11822  1.0000
  C   C252      1.0  0.08023  0.34951  0.10329  1.0000
  C   C253      1.0  0.04484  0.44217  0.07751  1.0000
  C   C254      1.0  0.04542  0.46245  0.06543  1.0000
  C   C255      1.0  0.05880  0.47411  0.06827  1.0000
  C   C256      1.0  0.07144  0.46555  0.08327  1.0000
  C   C257      1.0  0.07057  0.44543  0.09553  1.0000
  C   C258      1.0  0.05722  0.43384  0.09270  1.0000
  H   H434      1.0  0.03619  0.46875  0.05335  1.0000
  H   H435      1.0  0.05985  0.48946  0.05846  1.0000
  H   H436      1.0  0.08029  0.43865  0.10712  1.0000
  H   H437      1.0  0.05671  0.41827  0.10210  1.0000
  H   H438      1.0  0.14656  0.64547  0.21185  1.0000
  Fe  Fe40      1.0  0.23758  0.56399  0.17226  1.0000
  C   C259      1.0  0.05656  0.53465  0.07567  1.0000
  C   C260      1.0  0.21502  0.59576  0.24724  1.0000
  H   H439      1.0  0.21325  0.62252  0.14105  1.0000
  C   C261      1.0  0.14953  0.35537  0.04578  1.0000
  H   H440      1.0  0.08136  0.54499  0.05014  1.0000
  C   C262      1.0  0.20703  0.61155  0.22849  1.0000
  C   C263      1.0  0.13855  0.65710  0.20052  1.0000
  H   H441      1.0  0.07523  0.33459  0.10769  1.0000
  C   C264      1.0  0.22890  0.56964  0.28565  1.0000
  S   S84       1.0  0.07306  0.32887  0.03235  1.0000
  C   C265      1.0  0.22723  0.44876  0.09276  1.0000
  N   N17       1.0  0.11937  0.45466  0.01584  1.0000
  C   C266      1.0  0.20855  0.42713  0.12277  1.0000
  H   H442      1.0  0.22259  0.61376  0.27454  1.0000
  H   H443      1.0  0.03328  0.52113  0.14129  1.0000
  C   C267      1.0  0.04374  0.38692  0.13977  1.0000
  H   H444      1.0  0.21073  0.65586  0.04115  1.0000
  C   C268      1.0  0.14139  0.41991  0.00542  1.0000
  H   H445      1.0  0.03136  0.59405  0.08183  1.0000
  C   C269      1.0  0.09507  0.42945  0.03846  1.0000
  H   H446      1.0  0.02606  0.44146  0.00560  1.0000
  H   H447      1.0  0.20159  0.64135  0.10592  1.0000
  C   C270      1.0  0.12327  0.46882  0.99446  1.0000
  H   H448      1.0  0.20798  0.62782  0.22815  1.0000
  H   H449      1.0  0.24167  0.44997  0.08062  1.0000
  C   C271      1.0  0.21589  0.64290  0.11021  1.0000
  H   H450      1.0  0.01386  0.41335  0.11968  1.0000
  H   H451      1.0  0.13342  0.37315  0.07078  1.0000
  H   H452      1.0  0.19356  0.45962  0.09102  1.0000
  H   H453      1.0  0.02740  0.36916  0.03414  1.0000
  H   H454      1.0  0.00558  0.34111  0.14574  1.0000
  H   H455      1.0  0.05816  0.38044  0.01575  1.0000
  H   H456      1.0  0.07358  0.53031  0.10955  1.0000
  H   H457      1.0  0.08054  0.55327  0.07340  1.0000
  C   C272      1.0  0.04818  0.52687  0.13601  1.0000
  H   H458      1.0  0.19325  0.43392  0.11793  1.0000
  C   C273      1.0  0.03400  0.39512  0.99569  1.0000
  H   H459      1.0  0.04698  0.54264  0.06368  1.0000
  C   C274      1.0  0.02392  0.53358  0.10174  1.0000
  S   S85       1.0  0.17455  0.64726  0.25905  1.0000
  H   H460      1.0  0.05904  0.51649  0.14614  1.0000
  C   C275      1.0  0.11529  0.46674  0.03307  1.0000
  H   H461      1.0  0.99985  0.38850  0.05879  1.0000
  H   H462      1.0  0.00341  0.57129  0.04449  1.0000
  C   C276      1.0  0.11823  0.55276  0.00363  1.0000
  C   C277      1.0  0.20607  0.40591  0.13799  1.0000
  C   C278      1.0  0.09344  0.35363  0.11449  1.0000
  H   H463      1.0  0.15500  0.35961  0.02845  1.0000
  C   C279      1.0  0.99999  0.37273  0.10499  1.0000
  C   C280      1.0  0.00488  0.51142  0.05905  1.0000
  H   H464      1.0  0.09878  0.34169  0.12732  1.0000
  H   H465      1.0  0.00837  0.36743  0.09017  1.0000
  Fe  Fe41      1.0  0.23721  0.52754  0.20937  1.0000
  C   C281      1.0  0.12841  0.65076  0.18791  1.0000
  H   H466      1.0  0.02663  0.35833  0.11952  1.0000
  H   H467      1.0  0.04564  0.54302  0.13879  1.0000
  H   H468      1.0  0.08782  0.41773  0.03524  1.0000
  S   S86       1.0  0.04315  0.54985  0.02268  1.0000
  H   H469      1.0  0.13130  0.34293  0.00953  1.0000
  C   C282      1.0  0.10005  0.37299  0.10896  1.0000
  H   H470      1.0  0.08405  0.43732  0.05073  1.0000
  H   H471      1.0  0.21020  0.43771  0.13244  1.0000
  C   C283      1.0  0.19693  0.37659  0.02557  1.0000
  H   H472      1.0  0.01275  0.41728  0.03952  1.0000
  H   H473      1.0  0.10236  0.54916  0.00730  1.0000
  H   H474      1.0  0.03099  0.50399  0.09010  1.0000
  H   H475      1.0  0.13934  0.42989  0.03426  1.0000
  H   H476      1.0  0.12488  0.36878  0.01610  1.0000
  C   C284      1.0  0.00387  0.55464  0.04834  1.0000
  C   C285      1.0  0.02165  0.51924  0.04492  1.0000
  C   C286      1.0  0.20923  0.46047  0.08115  1.0000
  C   C287      1.0  0.11863  0.34285  0.04333  1.0000
  N   N18       1.0  0.14147  0.53103  0.17874  1.0000
  C   C288      1.0  0.14758  0.55066  0.16394  1.0000
  C   C289      1.0  0.12033  0.53775  0.19209  1.0000
  C   C290      1.0  0.14008  0.51642  0.16551  1.0000
  C   C291      1.0  0.15819  0.52119  0.19161  1.0000
  C   C292      1.0  0.16685  0.54713  0.14605  1.0000
  C   C293      1.0  0.11951  0.55268  0.20654  1.0000
  C   C294      1.0  0.12762  0.49882  0.17631  1.0000
  C   C295      1.0  0.15411  0.50263  0.21011  1.0000
  H   H477      1.0  0.13439  0.56027  0.15627  1.0000
  H   H478      1.0  0.15105  0.56108  0.17263  1.0000
  H   H479      1.0  0.11392  0.52416  0.20245  1.0000
  H   H480      1.0  0.10868  0.54567  0.18189  1.0000
  H   H481      1.0  0.13262  0.52552  0.15197  1.0000
  H   H482      1.0  0.15599  0.50861  0.15846  1.0000
  H   H483      1.0  0.17317  0.51527  0.18146  1.0000
  H   H484      1.0  0.16226  0.53311  0.19792  1.0000
  H   H485      1.0  0.16385  0.53964  0.13441  1.0000
  H   H486      1.0  0.17062  0.56265  0.13742  1.0000
  H   H487      1.0  0.18093  0.53769  0.15204  1.0000
  H   H488      1.0  0.10348  0.55578  0.21618  1.0000
  H   H489      1.0  0.13028  0.54564  0.21770  1.0000
  H   H490      1.0  0.12286  0.56820  0.19750  1.0000
  H   H491      1.0  0.13337  0.48843  0.19018  1.0000
  H   H492      1.0  0.12940  0.48861  0.16497  1.0000
  H   H493      1.0  0.11062  0.50524  0.18056  1.0000
  H   H494      1.0  0.16084  0.48735  0.20511  1.0000
  H   H495      1.0  0.13752  0.50316  0.21770  1.0000
  H   H496      1.0  0.16184  0.50306  0.22279  1.0000
  S   S87       1.0  0.03034  0.42633  0.07246  1.0000
  S   S88       1.0  0.04361  0.63543  0.05372  1.0000
  C   C296      1.0  0.09299  0.38825  0.09240  1.0000
  H   H497      1.0  0.02680  0.38422  0.10528  1.0000
  H   H498      1.0  0.21531  0.60696  0.21329  1.0000
  H   H499      1.0  0.13542  0.49026  0.01850  1.0000
  H   H500      1.0  0.21981  0.39857  0.14543  1.0000
  C   C297      1.0  0.21407  0.63931  0.13419  1.0000
  C   C298      1.0  0.02582  0.41072  0.02763  1.0000
  H   H501      1.0  0.12875  0.63422  0.18941  1.0000
  H   H502      1.0  0.09099  0.48491  0.99094  1.0000
  H   H503      1.0  0.19489  0.63061  0.17478  1.0000
  H   H504      1.0  0.23635  0.55458  0.29481  1.0000
  C   C299      1.0  0.13284  0.47785  0.03283  1.0000
  H   H505      1.0  0.10878  0.42039  0.04523  1.0000
  C   C300      1.0  0.05971  0.65323  0.05209  1.0000
  H   H506      1.0  0.05714  0.56573  0.09889  1.0000
  H   H507      1.0  0.03039  0.50002  0.11795  1.0000
  H   H508      1.0  0.09764  0.40328  0.08813  1.0000
  H   H509      1.0  0.04637  0.57764  0.06398  1.0000
  C   C301      1.0  0.07947  0.38432  0.08156  1.0000
  H   H510      1.0  0.03504  0.50852  0.03825  1.0000
  C   C302      1.0  0.10627  0.48871  0.99019  1.0000
  C   C303      1.0  0.07313  0.36495  0.08679  1.0000
  H   H511      1.0  0.10443  0.49948  0.00094  1.0000
  C   C304      1.0  0.12035  0.35327  0.01979  1.0000
  H   H512      1.0  0.11666  0.56955  0.00370  1.0000
  C   C305      1.0  0.23567  0.60925  0.31884  1.0000
  S   S89       1.0  0.01425  0.60937  0.02688  1.0000
  Fe  Fe42      1.0  0.05497  0.33115  0.06477  1.0000
  Fe  Fe43      1.0  0.04010  0.58497  0.01382  1.0000
  H   H513      1.0  0.18502  0.39149  0.07290  1.0000
  H   H514      1.0  0.22606  0.58166  0.29525  1.0000
  H   H515      1.0  0.14769  0.32788  0.08194  1.0000
  H   H516      1.0  0.22642  0.64914  0.06043  1.0000
  C   C306      1.0  0.23573  0.64490  0.29891  1.0000
  H   H517      1.0  0.20577  0.41927  0.08739  1.0000
  N   N19       1.0  0.04530  0.53896  0.09700  1.0000
  H   H518      1.0  0.15697  0.40950  0.00594  1.0000
  C   C307      1.0  0.23593  0.61319  0.26088  1.0000
  H   H519      1.0  0.00420  0.41458  0.15959  1.0000
  C   C308      1.0  0.22203  0.41378  0.09023  1.0000
  H   H520      1.0  0.09078  0.52605  0.07195  1.0000
  H   H521      1.0  0.20269  0.39465  0.13032  1.0000
  H   H522      1.0  0.15310  0.44418  0.01178  1.0000
  H   H523      1.0  0.11260  0.45617  0.04872  1.0000
  C   C309      1.0  0.06984  0.65085  0.06874  1.0000
  C   C310      1.0  0.04243  0.56190  0.09760  1.0000
  H   H524      1.0  0.03105  0.56569  0.11200  1.0000
  H   H525      1.0  0.10635  0.35346  0.05251  1.0000
  H   H526      1.0  0.00585  0.49469  0.06408  1.0000
  C   C311      1.0  0.02122  0.54085  0.03951  1.0000
  H   H527      1.0  0.15503  0.63073  0.14463  1.0000
  H   H528      1.0  0.24311  0.42741  0.06139  1.0000
  H   H529      1.0  0.17129  0.62154  0.16361  1.0000
  H   H530      1.0  0.19243  0.40886  0.15097  1.0000
  C   C312      1.0  0.03646  0.42922  0.01493  1.0000
  H   H531      1.0  0.12826  0.48566  0.04655  1.0000
  H   H532      1.0  0.22853  0.65408  0.00422  1.0000
  H   H533      1.0  0.10127  0.43887  0.00426  1.0000
  H   H534      1.0  0.03681  0.39958  0.03726  1.0000
  H   H535      1.0  0.12237  0.34315  0.08196  1.0000
  H   H536      1.0  0.19324  0.35952  0.05776  1.0000
  N   N20       1.0  0.23659  0.59573  0.25011  1.0000
  H   H537      1.0  0.14777  0.46652  0.03445  1.0000
  H   H538      1.0  0.22776  0.45822  0.10407  1.0000
  H   H539      1.0  0.23807  0.63698  0.23036  1.0000
  C   C313      1.0  0.13865  0.43749  0.01758  1.0000
  C   C314      1.0  0.05570  0.38218  0.99964  1.0000
  Fe  Fe44      1.0  0.99740  0.44325  0.07228  1.0000
  H   H540      1.0  0.21007  0.47740  0.07590  1.0000
  H   H541      1.0  0.21416  0.57996  0.24533  1.0000
  H   H542      1.0  0.21068  0.45440  0.06681  1.0000
  Fe  Fe45      1.0  0.03987  0.62655  0.02447  1.0000
  C   C315      1.0  0.21420  0.64835  0.30031  1.0000
  H   H543      1.0  0.23587  0.63802  0.03747  1.0000
  H   H544      1.0  0.22840  0.41103  0.05748  1.0000
  S   S90       1.0  0.05500  0.36159  0.07344  1.0000
  C   C316      1.0  0.22704  0.65255  0.04320  1.0000
  H   H545      1.0  0.10045  0.47867  0.03314  1.0000
  N   N21       1.0  0.22637  0.42628  0.10391  1.0000
  C   C317      1.0  0.01634  0.37419  0.11675  1.0000
  H   H546      1.0  0.21281  0.64782  0.19249  1.0000
  H   H547      1.0  0.16378  0.35099  0.05255  1.0000
  H   H548      1.0  0.20789  0.64846  0.35067  1.0000
  H   H549      1.0  0.01399  0.53902  0.11609  1.0000
  C   C318      1.0  0.13676  0.37555  0.05339  1.0000
  C   C319      1.0  0.07857  0.54001  0.06757  1.0000
  H   H550      1.0  0.21820  0.64520  0.25169  1.0000
  C   C320      1.0  0.23415  0.63584  0.24753  1.0000
  H   H551      1.0  0.12604  0.54342  0.01679  1.0000
  H   H552      1.0  0.05806  0.36606  0.99674  1.0000
  H   H553      1.0  0.00681  0.50841  0.10801  1.0000
  N   N22       1.0  0.00774  0.38258  0.13676  1.0000
  Fe  Fe46      1.0  0.01385  0.62499  0.99295  1.0000
  H   H554      1.0  0.00919  0.36966  0.01910  1.0000
  H   H555      1.0  0.03979  0.40411  0.13929  1.0000
  H   H556      1.0  0.23216  0.65462  0.35001  1.0000
  H   H557      1.0  0.22936  0.64097  0.13638  1.0000
  H   H558      1.0  0.05873  0.51775  0.07542  1.0000
  C   C321      1.0  0.02455  0.37660  0.14958  1.0000
  S   S91       1.0  0.19984  0.35425  0.01511  1.0000
  C   C322      1.0  0.17103  0.62958  0.14704  1.0000
  H   H559      1.0  0.22271  0.54245  0.11008  1.0000
  H   H560      1.0  0.12192  0.38148  0.04763  1.0000
  H   H561      1.0  0.14614  0.38808  0.04735  1.0000
  H   H562      1.0  0.05589  0.38001  0.14950  1.0000
  C   C323      1.0  0.23705  0.41284  0.06881  1.0000
  S   S92       1.0  0.03264  0.33559  0.99760  1.0000
  H   H563      1.0  0.01821  0.38010  0.16560  1.0000
  C   C324      1.0  0.00098  0.40614  0.13071  1.0000
  H   H564      1.0  0.04022  0.43685  0.02606  1.0000
  H   H565      1.0  0.06905  0.63726  0.08148  1.0000
  N   N23       1.0  0.13868  0.33703  0.05147  1.0000
  H   H566      1.0  0.22892  0.63080  0.10398  1.0000
  N   N24       1.0  0.01795  0.39972  0.01496  1.0000
  C   C325      1.0  0.17552  0.65200  0.14206  1.0000
  C   C326      1.0  0.99859  0.41401  0.00814  1.0000
  H   H567      1.0  0.01969  0.57532  0.07647  1.0000
  C   C327      1.0  0.23429  0.55278  0.10303  1.0000
  C   C328      1.0  0.01324  0.37912  0.02841  1.0000
  H   H568      1.0  0.01535  0.54214  0.08893  1.0000
  H   H569      1.0  0.23528  0.55634  0.08579  1.0000
  H   H570      1.0  0.21378  0.56731  0.28383  1.0000
  H   H571      1.0  0.18242  0.65647  0.17780  1.0000
  H   H572      1.0  0.13819  0.47423  0.99166  1.0000
  N   N25       1.0  0.19629  0.65368  0.14545  1.0000
  C   C329      1.0  0.99569  0.38087  0.04802  1.0000
  H   H573      1.0  0.17375  0.65911  0.12553  1.0000
  S   S93       1.0  0.11121  0.65781  0.15307  1.0000
  H   H574      1.0  0.21984  0.65844  0.10206  1.0000
  S   S94       1.0  0.14572  0.65797  0.30440  1.0000
  S   S95       1.0  0.18553  0.53501  0.91175  1.0000
  C   C330      1.0  0.23323  0.33614  0.58751  1.0000
  H   H575      1.0  0.22071  0.38057  0.87335  1.0000
  H   H576      1.0  0.19749  0.36989  0.85662  1.0000
  C   C331      1.0  0.05371  0.63418  0.93206  1.0000
  H   H577      1.0  0.00203  0.54438  0.98353  1.0000
  H   H578      1.0  0.23883  0.33648  0.57086  1.0000
  H   H579      1.0  0.06321  0.47116  0.78807  1.0000
  S   S96       1.0  0.09197  0.59223  0.84716  1.0000
  Fe  Fe47      1.0  0.07817  0.58775  0.82192  1.0000
  S   S97       1.0  0.06980  0.55692  0.82415  1.0000
  C   C332      1.0  0.10921  0.35662  0.79119  1.0000
  S   S98       1.0  0.17170  0.59486  0.90500  1.0000
  H   H580      1.0  0.01259  0.52876  0.83956  1.0000
  S   S99       1.0  0.06199  0.37133  0.84114  1.0000
  H   H581      1.0  0.10231  0.34364  0.91210  1.0000
  C   C333      1.0  0.08154  0.33792  0.79429  1.0000
  S   S100      1.0  0.01923  0.49483  0.81244  1.0000
  H   H582      1.0  0.01785  0.41786  0.91580  1.0000
  H   H583      1.0  0.00953  0.39345  0.92952  1.0000
  H   H584      1.0  0.04455  0.64055  0.94560  1.0000
  Fe  Fe48      1.0  0.14534  0.46469  0.80288  1.0000
  S   S101      1.0  0.13513  0.46429  0.83762  1.0000
  S   S102      1.0  0.14217  0.49450  0.77832  1.0000
  Fe  Fe49      1.0  0.15883  0.41760  0.80857  1.0000
  S   S103      1.0  0.15019  0.41295  0.84378  1.0000
  S   S104      1.0  0.17258  0.38923  0.79360  1.0000
  Fe  Fe50      1.0  0.12121  0.43700  0.83844  1.0000
  S   S105      1.0  0.08947  0.43159  0.85676  1.0000
  Fe  Fe51      1.0  0.16496  0.44066  0.84001  1.0000
  S   S106      1.0  0.18364  0.43980  0.86399  1.0000
  S   S107      1.0  0.12870  0.43945  0.80356  1.0000
  S   S108      1.0  0.17645  0.44308  0.80516  1.0000
  H   H585      1.0  0.23984  0.33014  0.83918  1.0000
  C   C334      1.0  0.00054  0.60693  0.83986  1.0000
  H   H586      1.0  0.21680  0.41537  0.88767  1.0000
  C   C335      1.0  0.22858  0.37841  0.79036  1.0000
  S   S109      1.0  0.18355  0.35312  0.68428  1.0000
  N   N26       1.0  0.08737  0.47499  0.76003  1.0000
  Fe  Fe52      1.0  0.15361  0.34721  0.70594  1.0000
  S   S110      1.0  0.13544  0.37404  0.72194  1.0000
  Fe  Fe53      1.0  0.17378  0.33891  0.66232  1.0000
  S   S111      1.0  0.17828  0.35138  0.62739  1.0000
  C   C336      1.0  0.01237  0.54843  0.86164  1.0000
  C   C337      1.0  0.99870  0.65882  0.82197  1.0000
  C   C338      1.0  0.16169  0.38534  0.77392  1.0000
  C   C339      1.0  0.16889  0.36634  0.76683  1.0000
  C   C340      1.0  0.16148  0.36306  0.75037  1.0000
  C   C341      1.0  0.14628  0.37854  0.74132  1.0000
  C   C342      1.0  0.13881  0.39747  0.74861  1.0000
  C   C343      1.0  0.14662  0.40095  0.76476  1.0000
  H   H587      1.0  0.18036  0.35411  0.77403  1.0000
  H   H588      1.0  0.16724  0.34837  0.74498  1.0000
  H   H589      1.0  0.12701  0.40947  0.74168  1.0000
  H   H590      1.0  0.14111  0.41570  0.76998  1.0000
  C   C344      1.0  0.03765  0.47694  0.82606  1.0000
  C   C345      1.0  0.05394  0.48436  0.82937  1.0000
  C   C346      1.0  0.06990  0.47044  0.83878  1.0000
  C   C347      1.0  0.06928  0.44913  0.84551  1.0000
  C   C348      1.0  0.05260  0.44175  0.84300  1.0000
  C   C349      1.0  0.03699  0.45554  0.83280  1.0000
  H   H591      1.0  0.05434  0.50091  0.82417  1.0000
  H   H592      1.0  0.08262  0.47609  0.84112  1.0000
  H   H593      1.0  0.05243  0.42516  0.84813  1.0000
  H   H594      1.0  0.02472  0.44962  0.82986  1.0000
  C   C350      1.0  0.04218  0.38252  0.82672  1.0000
  C   C351      1.0  0.02979  0.37024  0.82340  1.0000
  H   H595      1.0  0.00205  0.45231  0.90427  1.0000
  C   C352      1.0  0.00148  0.61246  0.94756  1.0000
  C   C353      1.0  0.02275  0.41367  0.80728  1.0000
  C   C354      1.0  0.03897  0.40410  0.81820  1.0000
  H   H596      1.0  0.03234  0.35354  0.82974  1.0000
  C   C355      1.0  0.23994  0.32789  0.62280  1.0000
  H   H597      1.0  0.02008  0.43046  0.80113  1.0000
  H   H598      1.0  0.04905  0.41343  0.82001  1.0000
  Fe  Fe54      1.0  0.17148  0.35144  0.95389  1.0000
  C   C356      1.0  0.22080  0.32934  0.90572  1.0000
  C   C357      1.0  0.07104  0.38399  0.77467  1.0000
  H   H599      1.0  0.04089  0.57045  0.86476  1.0000
  H   H600      1.0  0.10198  0.60720  0.91446  1.0000
  H   H601      1.0  0.09656  0.50029  0.76815  1.0000
  H   H602      1.0  0.07661  0.39059  0.78535  1.0000
  Fe  Fe55      1.0  0.17568  0.39630  0.94908  1.0000
  S   S112      1.0  0.03821  0.59933  0.98048  1.0000
  H   H603      1.0  0.11563  0.35363  0.87234  1.0000
  C   C358      1.0  0.19333  0.46191  0.86424  1.0000
  C   C359      1.0  0.11032  0.46617  0.75313  1.0000
  H   H604      1.0  0.20376  0.32720  0.54917  1.0000
  H   H605      1.0  0.02446  0.55589  0.84956  1.0000
  C   C360      1.0  0.21209  0.34424  0.59525  1.0000
  C   C361      1.0  0.20487  0.34355  0.61685  1.0000
  H   H606      1.0  0.20742  0.39644  0.75273  1.0000
  C   C362      1.0  0.07735  0.61831  0.89669  1.0000
  C   C363      1.0  0.08834  0.36788  0.76406  1.0000
  H   H607      1.0  0.20137  0.35086  0.58460  1.0000
  H   H608      1.0  0.23116  0.48956  0.83672  1.0000
  H   H609      1.0  0.22652  0.33955  0.67136  1.0000
  C   C364      1.0  0.08906  0.54030  0.80969  1.0000
  C   C365      1.0  0.09086  0.51864  0.81687  1.0000
  C   C366      1.0  0.10660  0.50471  0.80646  1.0000
  C   C367      1.0  0.12104  0.51235  0.78915  1.0000
  C   C368      1.0  0.11895  0.53407  0.78137  1.0000
  C   C369      1.0  0.10292  0.54810  0.79172  1.0000
  H   H610      1.0  0.08048  0.51270  0.83098  1.0000
  H   H611      1.0  0.10761  0.48798  0.81185  1.0000
  H   H612      1.0  0.12997  0.54004  0.76775  1.0000
  H   H613      1.0  0.10136  0.56485  0.78582  1.0000
  C   C370      1.0  0.15282  0.60451  0.84195  1.0000
  C   C371      1.0  0.17404  0.60099  0.84274  1.0000
  C   C372      1.0  0.18013  0.59737  0.86215  1.0000
  C   C373      1.0  0.16495  0.59758  0.88068  1.0000
  C   C374      1.0  0.14388  0.60101  0.87978  1.0000
  C   C375      1.0  0.13779  0.60441  0.86053  1.0000
  C   C376      1.0  0.12127  0.65415  0.87179  1.0000
  H   H614      1.0  0.19650  0.59481  0.86273  1.0000
  H   H615      1.0  0.13227  0.60127  0.89402  1.0000
  H   H616      1.0  0.12143  0.60748  0.86003  1.0000
  C   C377      1.0  0.07996  0.46453  0.78250  1.0000
  H   H617      1.0  0.08654  0.61225  0.88304  1.0000
  H   H618      1.0  0.21608  0.37180  0.68971  1.0000
  S   S113      1.0  0.05215  0.61552  0.82471  1.0000
  H   H619      1.0  0.06039  0.50840  0.89149  1.0000
  H   H620      1.0  0.16022  0.53619  0.79064  1.0000
  H   H621      1.0  0.19573  0.41813  0.69289  1.0000
  N   N27       1.0  0.99545  0.41939  0.88583  1.0000
  H   H622      1.0  0.05088  0.50724  0.76257  1.0000
  C   C378      1.0  0.16381  0.44898  0.94710  1.0000
  C   C379      1.0  0.03601  0.64952  0.77278  1.0000
  C   C380      1.0  0.13125  0.54633  0.98288  1.0000
  C   C381      1.0  0.07398  0.47296  0.74593  1.0000
  S   S114      1.0  0.00005  0.47224  0.77308  1.0000
  H   H623      1.0  0.21741  0.39732  0.84870  1.0000
  H   H624      1.0  0.18658  0.45822  0.98294  1.0000
  H   H625      1.0  0.23635  0.47182  0.90188  1.0000
  H   H626      1.0  0.03391  0.34928  0.95279  1.0000
  H   H627      1.0  0.14302  0.56112  0.79417  1.0000
  H   H628      1.0  0.10714  0.34291  0.73436  1.0000
  C   C382      1.0  0.21896  0.48435  0.84948  1.0000
  H   H629      1.0  0.08865  0.43856  0.74677  1.0000
  S   S115      1.0  0.09881  0.60493  0.79502  1.0000
  C   C383      1.0  0.08617  0.61560  0.91426  1.0000
  H   H630      1.0  0.11144  0.47829  0.71897  1.0000
  C   C384      1.0  0.12069  0.47665  0.73102  1.0000
  H   H631      1.0  0.06497  0.44768  0.73734  1.0000
  C   C385      1.0  0.20357  0.40445  0.73715  1.0000
  H   H632      1.0  0.18027  0.42860  0.97077  1.0000
  H   H633      1.0  0.00644  0.59089  0.68216  1.0000
  N   N28       1.0  0.09783  0.34885  0.77877  1.0000
  H   H634      1.0  0.02919  0.41228  0.88420  1.0000
  H   H635      1.0  0.11116  0.49750  0.97395  1.0000
  H   H636      1.0  0.07459  0.48594  0.73174  1.0000
  C   C386      1.0  0.08538  0.49810  0.75952  1.0000
  H   H637      1.0  0.03293  0.50788  0.86122  1.0000
  H   H638      1.0  0.01305  0.37740  0.90026  1.0000
  H   H639      1.0  0.21300  0.46289  0.83344  1.0000
  N   N29       1.0  0.22030  0.36037  0.82965  1.0000
  H   H640      1.0  0.18768  0.53162  0.85932  1.0000
  H   H641      1.0  0.18327  0.54500  0.81210  1.0000
  H   H642      1.0  0.10064  0.37646  0.75408  1.0000
  H   H643      1.0  0.21838  0.37098  0.78512  1.0000
  N   N30       1.0  0.02196  0.53280  0.87893  1.0000
  H   H644      1.0  0.05723  0.47497  0.75407  1.0000
  S   S116      1.0  0.19958  0.55321  0.94640  1.0000
  H   H645      1.0  0.01480  0.59379  0.92379  1.0000
  C   C387      1.0  0.16762  0.51440  0.83722  1.0000
  H   H646      1.0  0.99703  0.34234  0.84886  1.0000
  H   H647      1.0  0.99781  0.53776  0.96096  1.0000
  H   H648      1.0  0.09214  0.34766  0.94532  1.0000
  H   H649      1.0  0.12463  0.55517  0.83218  1.0000
  C   C388      1.0  0.02995  0.54497  0.89035  1.0000
  H   H650      1.0  0.18575  0.60108  0.82836  1.0000
  S   S117      1.0  0.04575  0.63384  0.87459  1.0000
  C   C389      1.0  0.08794  0.55133  0.97130  1.0000
  Fe  Fe56      1.0  0.21955  0.52512  0.89877  1.0000
  H   H651      1.0  0.99970  0.57049  0.71841  1.0000
  C   C390      1.0  0.00775  0.45277  0.88717  1.0000
  H   H652      1.0  0.06565  0.39743  0.76235  1.0000
  H   H653      1.0  0.08154  0.36360  0.75269  1.0000
  S   S118      1.0  0.24243  0.35621  0.91135  1.0000
  H   H654      1.0  0.16299  0.56686  0.81670  1.0000
  H   H655      1.0  0.02877  0.64507  0.91473  1.0000
  C   C391      1.0  0.16595  0.55027  0.81486  1.0000
  H   H656      1.0  0.20521  0.39125  0.81511  1.0000
  C   C392      1.0  0.22442  0.38113  0.85612  1.0000
  C   C393      1.0  0.13297  0.53839  0.83409  1.0000
  H   H657      1.0  0.00485  0.37012  0.80863  1.0000
  Fe  Fe57      1.0  0.23291  0.54210  0.93125  1.0000
  C   C394      1.0  0.00653  0.51467  0.91714  1.0000
  C   C395      1.0  0.03395  0.62846  0.77927  1.0000
  H   H658      1.0  0.21105  0.36288  0.74882  1.0000
  S   S119      1.0  0.08621  0.62165  0.95294  1.0000
  C   C396      1.0  0.21097  0.38450  0.69895  1.0000
  H   H659      1.0  0.14564  0.56132  0.85277  1.0000
  C   C397      1.0  0.00048  0.60085  0.93321  1.0000
  H   H660      1.0  0.05013  0.52548  0.85596  1.0000
  C   C398      1.0  0.15590  0.54538  0.85320  1.0000
  H   H661      1.0  0.16954  0.56024  0.78087  1.0000
  N   N31       1.0  0.11418  0.37243  0.90663  1.0000
  C   C399      1.0  0.13565  0.37789  0.90002  1.0000
  C   C400      1.0  0.11702  0.34958  0.90581  1.0000
  C   C401      1.0  0.10546  0.37566  0.92890  1.0000
  C   C402      1.0  0.10077  0.38692  0.89177  1.0000
  C   C403      1.0  0.13685  0.39998  0.90219  1.0000
  C   C404      1.0  0.12548  0.34418  0.88379  1.0000
  C   C405      1.0  0.08708  0.36501  0.94153  1.0000
  C   C406      1.0  0.07949  0.38178  0.89235  1.0000
  H   H662      1.0  0.14675  0.36624  0.90922  1.0000
  H   H663      1.0  0.14241  0.37709  0.88325  1.0000
  C   C407      1.0  0.23683  0.36527  0.72116  1.0000
  H   H664      1.0  0.12769  0.33953  0.91632  1.0000
  H   H665      1.0  0.11789  0.36974  0.93846  1.0000
  H   H666      1.0  0.10021  0.39275  0.92916  1.0000
  H   H667      1.0  0.09709  0.40320  0.89464  1.0000
  H   H668      1.0  0.10951  0.38861  0.87514  1.0000
  H   H669      1.0  0.13321  0.40154  0.91888  1.0000
  H   H670      1.0  0.15312  0.40250  0.89574  1.0000
  H   H671      1.0  0.12671  0.41282  0.89309  1.0000
  H   H672      1.0  0.16238  0.50488  0.85305  1.0000
  H   H673      1.0  0.05159  0.56517  0.88759  1.0000
  H   H674      1.0  0.14805  0.54585  0.98232  1.0000
  H   H675      1.0  0.14194  0.34596  0.87762  1.0000
  H   H676      1.0  0.08135  0.37007  0.95686  1.0000
  C   C408      1.0  0.23979  0.33609  0.90036  1.0000
  H   H677      1.0  0.06664  0.39091  0.90244  1.0000
  H   H678      1.0  0.07874  0.36494  0.89731  1.0000
  H   H679      1.0  0.07628  0.38643  0.87614  1.0000
  C   C409      1.0  0.01504  0.62291  0.77999  1.0000
  H   H680      1.0  0.20792  0.33622  0.91673  1.0000
  H   H681      1.0  0.05816  0.33588  0.92231  1.0000
  Fe  Fe58      1.0  0.06394  0.33709  0.85570  1.0000
  C   C410      1.0  0.06565  0.33137  0.78542  1.0000
  H   H682      1.0  0.12844  0.33973  0.75985  1.0000
  H   H683      1.0  0.21034  0.34877  0.72915  1.0000
  H   H684      1.0  0.14473  0.58295  0.98131  1.0000
  C   C411      1.0  0.12414  0.33960  0.80376  1.0000
  S   S120      1.0  0.22791  0.55597  0.89802  1.0000
  C   C412      1.0  0.01729  0.40784  0.87834  1.0000
  H   H685      1.0  0.24239  0.40707  0.67981  1.0000
  H   H686      1.0  0.02179  0.41236  0.86089  1.0000
  C   C413      1.0  0.04680  0.55751  0.87715  1.0000
  H   H687      1.0  0.01501  0.37755  0.87282  1.0000
  H   H688      1.0  0.02192  0.50508  0.91969  1.0000
  C   C414      1.0  0.15916  0.55174  0.79410  1.0000
  H   H689      1.0  0.22875  0.33885  0.74568  1.0000
  H   H690      1.0  0.18791  0.36290  0.82850  1.0000
  H   H691      1.0  0.12742  0.63952  0.93243  1.0000
  H   H692      1.0  0.01347  0.60664  0.78533  1.0000
  C   C415      1.0  0.04655  0.33591  0.95531  1.0000
  C   C416      1.0  0.22771  0.43952  0.93098  1.0000
  H   H693      1.0  0.00075  0.56146  0.86816  1.0000
  H   H694      1.0  0.06243  0.34131  0.77028  1.0000
  C   C417      1.0  0.00500  0.52199  0.89371  1.0000
  C   C418      1.0  0.19831  0.48530  0.88450  1.0000
  H   H695      1.0  0.01644  0.61445  0.94878  1.0000
  H   H696      1.0  0.00305  0.61862  0.67220  1.0000
  H   H697      1.0  0.22117  0.44311  0.96347  1.0000
  C   C419      1.0  0.13657  0.57717  0.95377  1.0000
  C   C420      1.0  0.13180  0.54486  0.94704  1.0000
  N   N32       1.0  0.12491  0.55930  0.96258  1.0000
  H   H698      1.0  0.20603  0.34782  0.81095  1.0000
  H   H699      1.0  0.19618  0.42112  0.73790  1.0000
  C   C421      1.0  0.12843  0.55479  0.92441  1.0000
  C   C422      1.0  0.21881  0.33534  0.63048  1.0000
  H   H700      1.0  0.09801  0.36548  0.80276  1.0000
  H   H701      1.0  0.22213  0.42458  0.93757  1.0000
  H   H702      1.0  0.13059  0.58786  0.93994  1.0000
  C   C423      1.0  0.99803  0.61840  0.85792  1.0000
  H   H703      1.0  0.14880  0.53795  0.94583  1.0000
  H   H704      1.0  0.09813  0.57846  0.95023  1.0000
  C   C424      1.0  0.22347  0.40367  0.71966  1.0000
  H   H705      1.0  0.18763  0.40185  0.68036  1.0000
  H   H706      1.0  0.22421  0.40416  0.91233  1.0000
  H   H707      1.0  0.19782  0.37964  0.71140  1.0000
  C   C425      1.0  0.20299  0.35129  0.82692  1.0000
  C   C426      1.0  0.24042  0.34443  0.82646  1.0000
  H   H708      1.0  0.13329  0.54227  0.91501  1.0000
  H   H709      1.0  0.11185  0.56197  0.92376  1.0000
  H   H710      1.0  0.13843  0.56652  0.91652  1.0000
  H   H711      1.0  0.20446  0.42795  0.90930  1.0000
  H   H712      1.0  0.12709  0.64832  0.84012  1.0000
  S   S121      1.0  0.14239  0.33561  0.68271  1.0000
  C   C427      1.0  0.22095  0.38068  0.81358  1.0000
  S   S122      1.0  0.22791  0.51022  0.93038  1.0000
  C   C428      1.0  0.10771  0.32905  0.74758  1.0000
  C   C429      1.0  0.12035  0.52569  0.85342  1.0000
  H   H713      1.0  0.18576  0.55692  0.84139  1.0000
  H   H714      1.0  0.06826  0.38979  0.98866  1.0000
  C   C430      1.0  0.19891  0.33068  0.84242  1.0000
  H   H715      1.0  0.08963  0.50690  0.74312  1.0000
  H   H716      1.0  0.21892  0.34975  0.86320  1.0000
  C   C431      1.0  0.01419  0.37964  0.81155  1.0000
  H   H717      1.0  0.99836  0.44702  0.86108  1.0000
  C   C432      1.0  0.13573  0.59139  0.96884  1.0000
  H   H718      1.0  0.21319  0.33484  0.64699  1.0000
  H   H719      1.0  0.18236  0.33567  0.56900  1.0000
  H   H720      1.0  0.03764  0.37683  0.88239  1.0000
  H   H721      1.0  0.03672  0.53455  0.90372  1.0000
  C   C433      1.0  0.07450  0.62382  0.93176  1.0000
  C   C434      1.0  0.21472  0.36452  0.85175  1.0000
  H   H722      1.0  0.12346  0.49228  0.73109  1.0000
  C   C435      1.0  0.04480  0.63682  0.91456  1.0000
  H   H723      1.0  0.23647  0.40306  0.72739  1.0000
  H   H724      1.0  0.11824  0.53175  0.86788  1.0000
  C   C436      1.0  0.08130  0.44055  0.78704  1.0000
  H   H725      1.0  0.11357  0.44910  0.75344  1.0000
  H   H726      1.0  0.11934  0.46767  0.76434  1.0000
  H   H727      1.0  0.08863  0.46780  0.79309  1.0000
  H   H728      1.0  0.13629  0.46679  0.72624  1.0000
  H   H729      1.0  0.09710  0.43156  0.78167  1.0000
  H   H730      1.0  0.06947  0.43664  0.78055  1.0000
  H   H731      1.0  0.07751  0.43484  0.80432  1.0000
  Fe  Fe59      1.0  0.06782  0.62212  0.84713  1.0000
  S   S123      1.0  0.14523  0.60896  0.81775  1.0000
  Fe  Fe60      1.0  0.11067  0.61200  0.82047  1.0000
  H   H732      1.0  0.09634  0.57834  0.97684  1.0000
  C   C437      1.0  0.05669  0.62909  0.89679  1.0000
  H   H733      1.0  0.24113  0.65782  0.96733  1.0000
  C   C438      1.0  0.16128  0.48643  0.94366  1.0000
  C   C439      1.0  0.18821  0.46998  0.88267  1.0000
  C   C440      1.0  0.03930  0.51716  0.86884  1.0000
  H   H734      1.0  0.06107  0.54718  0.87017  1.0000
  H   H735      1.0  0.99627  0.41740  0.93738  1.0000
  H   H736      1.0  0.11040  0.64295  0.87784  1.0000
  H   H737      1.0  0.17693  0.46377  0.89585  1.0000
  C   C441      1.0  0.22047  0.35369  0.73698  1.0000
  C   C442      1.0  0.17755  0.54723  0.85547  1.0000
  Fe  Fe61      1.0  0.07359  0.63338  0.79965  1.0000
  C   C443      1.0  0.17859  0.46137  0.97002  1.0000
  S   S124      1.0  0.17534  0.50292  0.96951  1.0000
  H   H738      1.0  0.11948  0.59820  0.97579  1.0000
  H   H739      1.0  0.14963  0.53531  0.86824  1.0000
  C   C444      1.0  0.17188  0.48220  0.96016  1.0000
  C   C445      1.0  0.17498  0.44469  0.96319  1.0000
  H   H740      1.0  0.21365  0.45140  0.92690  1.0000
  C   C446      1.0  0.07965  0.45229  0.73753  1.0000
  H   H741      1.0  0.06335  0.52720  0.76438  1.0000
  S   S125      1.0  0.18268  0.37522  0.92612  1.0000
  Fe  Fe62      1.0  0.19430  0.52264  0.94325  1.0000
  H   H742      1.0  0.18426  0.51397  0.83694  1.0000
  H   H743      1.0  0.04700  0.61639  0.78368  1.0000
  H   H744      1.0  0.05722  0.37707  0.78324  1.0000
  H   H745      1.0  0.15604  0.50249  0.93599  1.0000
  N   N33       1.0  0.15559  0.53680  0.83453  1.0000
  C   C447      1.0  0.10175  0.56800  0.96515  1.0000
  S   S126      1.0  0.20789  0.38672  0.95635  1.0000
  Fe  Fe63      1.0  0.19416  0.56462  0.91336  1.0000
  S   S127      1.0  0.08746  0.64241  0.82243  1.0000
  S   S128      1.0  0.15716  0.42872  0.93961  1.0000
  C   C448      1.0  0.15686  0.46985  0.93746  1.0000
  C   C449      1.0  0.20140  0.40470  0.68471  1.0000
  H   H746      1.0  0.23483  0.46215  0.94573  1.0000
  H   H747      1.0  0.18078  0.50573  0.80635  1.0000
  H   H748      1.0  0.00257  0.61730  0.82415  1.0000
  H   H749      1.0  0.18490  0.32663  0.83977  1.0000
  H   H750      1.0  0.13132  0.53318  0.82031  1.0000
  H   H751      1.0  0.15332  0.50480  0.81555  1.0000
  C   C450      1.0  0.02064  0.38356  0.88396  1.0000
  H   H752      1.0  0.22219  0.41937  0.70884  1.0000
  Fe  Fe64      1.0  0.06073  0.61827  0.98136  1.0000
  C   C451      1.0  0.16841  0.50213  0.82039  1.0000
  S   S129      1.0  0.14951  0.33341  0.94983  1.0000
  H   H753      1.0  0.15344  0.57105  0.94786  1.0000
  C   C452      1.0  0.00418  0.41048  0.92329  1.0000
  H   H754      1.0  0.06021  0.50593  0.78607  1.0000
  H   H755      1.0  0.04326  0.49008  0.89501  1.0000
  H   H756      1.0  0.11879  0.36794  0.78068  1.0000
  N   N34       1.0  0.22894  0.38612  0.70768  1.0000
  H   H757      1.0  0.19122  0.39779  0.73464  1.0000
  H   H758      1.0  0.23128  0.38988  0.81618  1.0000
  H   H759      1.0  0.07371  0.36928  0.93354  1.0000
  H   H760      1.0  0.06525  0.49108  0.87387  1.0000
  C   C453      1.0  0.06358  0.51002  0.76866  1.0000
  C   C454      1.0  0.01025  0.40147  0.80406  1.0000
  H   H761      1.0  0.12408  0.53105  0.95263  1.0000
  H   H762      1.0  0.01675  0.55638  0.89749  1.0000
  H   H763      1.0  0.19452  0.49103  0.89898  1.0000
  C   C455      1.0  0.21405  0.49222  0.86803  1.0000
  H   H764      1.0  0.10438  0.52742  0.85065  1.0000
  H   H765      1.0  0.08812  0.45486  0.72088  1.0000
  C   C456      1.0  0.13165  0.64543  0.91518  1.0000
  H   H766      1.0  0.17193  0.48500  0.82713  1.0000
  Fe  Fe65      1.0  0.21356  0.36318  0.93592  1.0000
  C   C457      1.0  0.05260  0.50092  0.88346  1.0000
  H   H767      1.0  0.00372  0.50812  0.88812  1.0000
  H   H768      1.0  0.14813  0.47317  0.92507  1.0000
  C   C458      1.0  0.23367  0.44535  0.94926  1.0000
  H   H769      1.0  0.17542  0.55502  0.86883  1.0000
  H   H770      1.0  0.00605  0.46970  0.87944  1.0000
  S   S130      1.0  0.22875  0.50969  0.87041  1.0000
  H   H771      1.0  0.21248  0.40893  0.66976  1.0000
  H   H772      1.0  0.12736  0.50863  0.85593  1.0000
  C   C459      1.0  0.20856  0.46937  0.84753  1.0000
  H   H773      1.0  0.01476  0.59427  0.83992  1.0000
  H   H774      1.0  0.07251  0.34749  0.80619  1.0000
  Fe  Fe66      1.0  0.19444  0.36211  0.98198  1.0000
  H   H775      1.0  0.19569  0.33202  0.85911  1.0000
  C   C460      1.0  0.21964  0.41925  0.90173  1.0000
  S   S131      1.0  0.20289  0.33753  0.96222  1.0000
  H   H776      1.0  0.12531  0.46008  0.98178  1.0000
  H   H777      1.0  0.10011  0.65129  0.91166  1.0000
  S   S132      1.0  0.05877  0.65679  0.77440  1.0000
  S   S133      1.0  0.16168  0.37350  0.97627  1.0000
  H   H778      1.0  0.22919  0.44756  0.88482  1.0000
  H   H779      1.0  0.08347  0.54933  0.95717  1.0000
  H   H780      1.0  0.01368  0.62123  0.85772  1.0000
  H   H781      1.0  0.24162  0.37828  0.85126  1.0000
  H   H782      1.0  0.12975  0.34706  0.81377  1.0000
  H   H783      1.0  0.02463  0.44579  0.88361  1.0000
  Fe  Fe67      1.0  0.99517  0.48255  0.80363  1.0000
  C   C461      1.0  0.00130  0.53947  0.84926  1.0000
  H   H784      1.0  0.13633  0.63141  0.90791  1.0000
  H   H785      1.0  0.14328  0.60481  0.95977  1.0000
  C   C462      1.0  0.24206  0.33602  0.67428  1.0000
  H   H786      1.0  0.13822  0.33254  0.79322  1.0000
  H   H787      1.0  0.00281  0.52840  0.92483  1.0000
  H   H788      1.0  0.99463  0.50491  0.92534  1.0000
  H   H789      1.0  0.03625  0.40990  0.98402  1.0000
  H   H790      1.0  0.13705  0.64442  0.87322  1.0000
  C   C463      1.0  0.99820  0.63837  0.77391  1.0000
  H   H791      1.0  0.01304  0.64691  0.81835  1.0000
  C   C464      1.0  0.11367  0.33373  0.76647  1.0000
  H   H792      1.0  0.22830  0.39436  0.78023  1.0000
  H   H793      1.0  0.00346  0.62959  0.89221  1.0000
  C   C465      1.0  0.23651  0.43290  0.89462  1.0000
  H   H794      1.0  0.99997  0.60228  0.65646  1.0000
  H   H795      1.0  0.07304  0.55713  0.98166  1.0000
  C   C466      1.0  0.99709  0.60437  0.67291  1.0000
  H   H796      1.0  0.00234  0.32625  0.89913  1.0000
  C   C467      1.0  0.99425  0.44283  0.87854  1.0000
  H   H797      1.0  0.13060  0.52945  0.98492  1.0000
  H   H798      1.0  0.99661  0.65814  0.88530  1.0000
  H   H799      1.0  0.00528  0.65768  0.85157  1.0000
  H   H800      1.0  0.99482  0.60659  0.87265  1.0000
  C   C468      1.0  0.06010  0.32814  0.93806  1.0000
  H   H801      1.0  0.05028  0.33296  0.79648  1.0000
  C   C469      1.0  0.04947  0.32637  0.97580  1.0000
  H   H802      1.0  0.14522  0.65299  0.91233  1.0000
  H   H803      1.0  0.09517  0.53598  0.97999  1.0000
  H   H804      1.0  0.02831  0.38604  0.98722  1.0000
  H   H805      1.0  0.12520  0.32741  0.88500  1.0000
  H   H806      1.0  0.24254  0.33818  0.81199  1.0000
  H   H807      1.0  0.99603  0.40081  0.98195  1.0000
  H   H808      1.0  0.14061  0.42622  0.98864  1.0000
  H   H809      1.0  0.11637  0.32699  0.81431  1.0000
  H   H810      1.0  0.99375  0.55273  0.83815  1.0000
  H   H811      1.0  0.99345  0.52010  0.98579  1.0000
  Fe  Fe68      1.0  0.07989  0.83509  0.34575  1.0000
  S   S134      1.0  0.07322  0.80578  0.34093  1.0000
  S   S135      1.0  0.08075  0.86458  0.32104  1.0000
  Fe  Fe69      1.0  0.08883  0.81500  0.38947  1.0000
  S   S136      1.0  0.08336  0.78379  0.38819  1.0000
  S   S137      1.0  0.10074  0.81751  0.41700  1.0000
  Fe  Fe70      1.0  0.10128  0.78944  0.35510  1.0000
  S   S138      1.0  0.12756  0.76594  0.34096  1.0000
  Fe  Fe71      1.0  0.05575  0.80319  0.37448  1.0000
  C   C470      1.0  0.04424  0.73508  0.07919  1.0000
  S   S139      1.0  0.10934  0.81905  0.35753  1.0000
  S   S140      1.0  0.05993  0.83418  0.37805  1.0000
  C   C471      1.0  0.24268  0.82672  0.37458  1.0000
  S   S141      1.0  0.11502  0.92083  0.33185  1.0000
  H   H812      1.0  0.00667  0.86344  0.37546  1.0000
  Fe  Fe72      1.0  0.10909  0.70306  0.08053  1.0000
  S   S142      1.0  0.13152  0.67360  0.09143  1.0000
  S   S143      1.0  0.09121  0.70541  0.05517  1.0000
  Fe  Fe73      1.0  0.11932  0.72796  0.10841  1.0000
  S   S144      1.0  0.14239  0.70031  0.12076  1.0000
  S   S145      1.0  0.11312  0.75885  0.11926  1.0000
  Fe  Fe74      1.0  0.15310  0.69552  0.08778  1.0000
  S   S146      1.0  0.18804  0.68792  0.07757  1.0000
  Fe  Fe75      1.0  0.11836  0.68156  0.12333  1.0000
  H   H813      1.0  0.06484  0.74477  0.24768  1.0000
  S   S147      1.0  0.13169  0.72469  0.07473  1.0000
  S   S148      1.0  0.09427  0.70953  0.11294  1.0000
  H   H814      1.0  0.11239  0.97911  0.47021  1.0000
  H   H815      1.0  0.06423  0.77256  0.44350  1.0000
  C   C472      1.0  0.06978  0.82865  0.47427  1.0000
  C   C473      1.0  0.05991  0.94653  0.31313  1.0000
  S   S149      1.0  0.15580  0.68628  0.20915  1.0000
  H   H816      1.0  0.18742  0.80653  0.04938  1.0000
  C   C474      1.0  0.09783  0.71255  0.24071  1.0000
  H   H817      1.0  0.17927  0.82022  0.07127  1.0000
  H   H818      1.0  0.99401  0.84451  0.43045  1.0000
  Fe  Fe76      1.0  0.16903  0.79819  0.18599  1.0000
  S   S150      1.0  0.15308  0.83209  0.17855  1.0000
  S   S151      1.0  0.15667  0.76892  0.18914  1.0000
  Fe  Fe77      1.0  0.20971  0.80903  0.18773  1.0000
  S   S152      1.0  0.19772  0.84396  0.17979  1.0000
  H   H819      1.0  0.08835  0.66415  0.08216  1.0000
  Fe  Fe78      1.0  0.16854  0.83691  0.20275  1.0000
  S   S153      1.0  0.15146  0.85689  0.22699  1.0000
  Fe  Fe79      1.0  0.18348  0.83631  0.15636  1.0000
  S   S154      1.0  0.18469  0.85291  0.12255  1.0000
  S   S155      1.0  0.18153  0.80245  0.21244  1.0000
  S   S156      1.0  0.19838  0.80200  0.16214  1.0000
  H   H820      1.0  0.19238  0.74237  0.31352  1.0000
  H   H821      1.0  0.03529  0.66631  0.13256  1.0000
  H   H822      1.0  0.15267  0.72282  0.35986  1.0000
  H   H823      1.0  0.04538  0.77653  0.42713  1.0000
  C   C475      1.0  0.19542  0.74384  0.03910  1.0000
  S   S157      1.0  0.17441  0.90325  0.32548  1.0000
  C   C476      1.0  0.16721  0.86555  0.23918  1.0000
  C   C477      1.0  0.15762  0.87860  0.25371  1.0000
  C   C478      1.0  0.16958  0.88588  0.26368  1.0000
  C   C479      1.0  0.19132  0.87948  0.25984  1.0000
  C   C480      1.0  0.20090  0.86533  0.24635  1.0000
  C   C481      1.0  0.18897  0.85883  0.23554  1.0000
  H   H824      1.0  0.14086  0.88287  0.25761  1.0000
  H   H825      1.0  0.21747  0.85894  0.24473  1.0000
  H   H826      1.0  0.19647  0.84798  0.22512  1.0000
  C   C482      1.0  0.23053  0.75195  0.23814  1.0000
  H   H827      1.0  0.18702  0.75574  0.02826  1.0000
  H   H828      1.0  0.19033  0.68797  0.03123  1.0000
  C   C483      1.0  0.20981  0.84357  0.10910  1.0000
  C   C484      1.0  0.21302  0.83834  0.08941  1.0000
  C   C485      1.0  0.21496  0.66019  0.35409  1.0000
  H   H829      1.0  0.04397  0.94433  0.31813  1.0000
  H   H830      1.0  0.12300  0.77368  0.45993  1.0000
  H   H831      1.0  0.20004  0.84166  0.08155  1.0000
  H   H832      1.0  0.11721  0.95431  0.29537  1.0000
  C   C486      1.0  0.06532  0.96222  0.29574  1.0000
  C   C487      1.0  0.06082  0.67087  0.03570  1.0000
  C   C488      1.0  0.19796  0.71057  0.06421  1.0000
  C   C489      1.0  0.21733  0.71269  0.06663  1.0000
  N   N35       1.0  0.02695  0.77264  0.47328  1.0000
  C   C490      1.0  0.21461  0.74614  0.04173  1.0000
  C   C491      1.0  0.18700  0.72620  0.05049  1.0000
  H   H833      1.0  0.01303  0.87271  0.34798  1.0000
  H   H834      1.0  0.21526  0.71410  0.22225  1.0000
  H   H835      1.0  0.17236  0.72438  0.04808  1.0000
  C   C492      1.0  0.13962  0.67832  0.19723  1.0000
  C   C493      1.0  0.12928  0.69328  0.18261  1.0000
  C   C494      1.0  0.11885  0.68704  0.17038  1.0000
  H   H836      1.0  0.01280  0.76263  0.45269  1.0000
  C   C495      1.0  0.15887  0.71138  0.37302  1.0000
  H   H837      1.0  0.05605  0.94395  0.22491  1.0000
  H   H838      1.0  0.12991  0.70966  0.18028  1.0000
  H   H839      1.0  0.11122  0.69872  0.15882  1.0000
  H   H840      1.0  0.19682  0.94173  0.47709  1.0000
  H   H841      1.0  0.10877  0.70154  0.23095  1.0000
  C   C496      1.0  0.12589  0.76148  0.13832  1.0000
  C   C497      1.0  0.12229  0.78113  0.14388  1.0000
  C   C498      1.0  0.13216  0.78378  0.15897  1.0000
  C   C499      1.0  0.14549  0.76666  0.16886  1.0000
  C   C500      1.0  0.14910  0.74704  0.16331  1.0000
  C   C501      1.0  0.13963  0.74456  0.14786  1.0000
  H   H842      1.0  0.11179  0.79437  0.13651  1.0000
  H   H843      1.0  0.12917  0.79895  0.16323  1.0000
  H   H844      1.0  0.15917  0.73364  0.17109  1.0000
  H   H845      1.0  0.14256  0.72939  0.14382  1.0000
  C   C502      1.0  0.08099  0.68421  0.05331  1.0000
  C   C503      1.0  0.07123  0.68638  0.03643  1.0000
  S   S158      1.0  0.19714  0.92792  0.36069  1.0000
  C   C504      1.0  0.19909  0.67613  0.13685  1.0000
  H   H846      1.0  0.07927  0.97534  0.33236  1.0000
  C   C505      1.0  0.04372  0.76318  0.48624  1.0000
  H   H847      1.0  0.07134  0.70037  0.02409  1.0000
  H   H848      1.0  0.00896  0.89890  0.36980  1.0000
  H   H849      1.0  0.20523  0.70984  0.25800  1.0000
  C   C506      1.0  0.05718  0.87548  0.31222  1.0000
  C   C507      1.0  0.04335  0.86294  0.31233  1.0000
  C   C508      1.0  0.02481  0.87223  0.30466  1.0000
  C   C509      1.0  0.01987  0.89407  0.29742  1.0000
  C   C510      1.0  0.03409  0.90635  0.29673  1.0000
  C   C511      1.0  0.05262  0.89709  0.30415  1.0000
  H   H850      1.0  0.04701  0.84612  0.31811  1.0000
  H   H851      1.0  0.06678  0.77570  0.21923  1.0000
  H   H852      1.0  0.03099  0.92303  0.29021  1.0000
  H   H853      1.0  0.06349  0.90669  0.30370  1.0000
  C   C512      1.0  0.11863  0.75119  0.32810  1.0000
  C   C513      1.0  0.09820  0.74757  0.33435  1.0000
  C   C514      1.0  0.09196  0.73429  0.32490  1.0000
  C   C515      1.0  0.10618  0.72449  0.30936  1.0000
  C   C516      1.0  0.12631  0.72886  0.30264  1.0000
  C   C517      1.0  0.13244  0.74232  0.31183  1.0000
  H   H854      1.0  0.08736  0.75454  0.34682  1.0000
  H   H855      1.0  0.07630  0.73114  0.33005  1.0000
  S   S159      1.0  0.15758  0.95339  0.32594  1.0000
  H   H856      1.0  0.14792  0.74584  0.30635  1.0000
  H   H857      1.0  0.04430  0.72980  0.06478  1.0000
  C   C518      1.0  0.07525  0.93362  0.32414  1.0000
  H   H858      1.0  0.06867  0.78160  0.47262  1.0000
  H   H859      1.0  0.13723  0.72188  0.29040  1.0000
  C   C519      1.0  0.09599  0.93639  0.31770  1.0000
  C   C520      1.0  0.20271  0.81894  0.37973  1.0000
  C   C521      1.0  0.04605  0.84441  0.45022  1.0000
  C   C522      1.0  0.06149  0.83742  0.43375  1.0000
  C   C523      1.0  0.08111  0.82609  0.43748  1.0000
  C   C524      1.0  0.08530  0.82187  0.45773  1.0000
  C   C525      1.0  0.18318  0.71217  0.32764  1.0000
  H   H860      1.0  0.03082  0.85301  0.44730  1.0000
  H   H861      1.0  0.05820  0.84098  0.41818  1.0000
  H   H862      1.0  0.10048  0.81322  0.46073  1.0000
  H   H863      1.0  0.16188  0.89601  0.27474  1.0000
  N   N36       1.0  0.09060  0.90741  0.24162  1.0000
  C   C526      1.0  0.09363  0.88701  0.25763  1.0000
  C   C527      1.0  0.10906  0.91743  0.23889  1.0000
  C   C528      1.0  0.09017  0.90200  0.22118  1.0000
  C   C529      1.0  0.07020  0.92103  0.24987  1.0000
  C   C530      1.0  0.07845  0.87222  0.26020  1.0000
  C   C531      1.0  0.11135  0.92389  0.25860  1.0000
  C   C532      1.0  0.09562  0.91810  0.20069  1.0000
  C   C533      1.0  0.08073  0.66609  0.06919  1.0000
  H   H864      1.0  0.10967  0.87754  0.25360  1.0000
  H   H865      1.0  0.09214  0.89000  0.27358  1.0000
  H   H866      1.0  0.10877  0.93188  0.22643  1.0000
  H   H867      1.0  0.12385  0.90675  0.23323  1.0000
  H   H868      1.0  0.10163  0.88711  0.21884  1.0000
  H   H869      1.0  0.07454  0.89895  0.22163  1.0000
  H   H870      1.0  0.05683  0.91361  0.25106  1.0000
  H   H871      1.0  0.06918  0.92222  0.26635  1.0000
  H   H872      1.0  0.06186  0.87983  0.26470  1.0000
  H   H873      1.0  0.08074  0.86586  0.24586  1.0000
  H   H874      1.0  0.08172  0.85848  0.27310  1.0000
  H   H875      1.0  0.11378  0.91036  0.27184  1.0000
  C   C534      1.0  0.02549  0.69758  0.08547  1.0000
  H   H876      1.0  0.09767  0.93583  0.26389  1.0000
  H   H877      1.0  0.09246  0.91303  0.18743  1.0000
  H   H878      1.0  0.11254  0.91853  0.19689  1.0000
  H   H879      1.0  0.17187  0.66562  0.35943  1.0000
  H   H880      1.0  0.16652  0.71891  0.32754  1.0000
  H   H881      1.0  0.07816  0.95127  0.23007  1.0000
  C   C535      1.0  0.16753  0.80821  0.43879  1.0000
  C   C536      1.0  0.00820  0.70215  0.12173  1.0000
  C   C537      1.0  0.20532  0.83559  0.38733  1.0000
  H   H882      1.0  0.22867  0.84553  0.29349  1.0000
  H   H883      1.0  0.02102  0.83414  0.35855  1.0000
  H   H884      1.0  0.13763  0.78741  0.46939  1.0000
  C   C538      1.0  0.22654  0.97592  0.35297  1.0000
  C   C539      1.0  0.20332  0.95098  0.36344  1.0000
  S   S160      1.0  0.21633  0.85000  0.45417  1.0000
  C   C540      1.0  0.23514  0.75625  0.25790  1.0000
  H   H885      1.0  0.19257  0.70677  0.36808  1.0000
  C   C541      1.0  0.00147  0.86495  0.36056  1.0000
  C   C542      1.0  0.21862  0.98265  0.37214  1.0000
  H   H886      1.0  0.13808  0.98864  0.34661  1.0000
  H   H887      1.0  0.15681  0.80906  0.41120  1.0000
  C   C543      1.0  0.13802  0.97781  0.38831  1.0000
  H   H888      1.0  0.23542  0.82349  0.06544  1.0000
  H   H889      1.0  0.02858  0.93911  0.48471  1.0000
  N   N37       1.0  0.18610  0.69291  0.34492  1.0000
  H   H890      1.0  0.06758  0.73742  0.21462  1.0000
  C   C544      1.0  0.24052  0.66397  0.99777  1.0000
  H   H891      1.0  0.19609  0.97949  0.40120  1.0000
  H   H892      1.0  0.12040  0.76049  0.23928  1.0000
  H   H893      1.0  0.20866  0.72781  0.10923  1.0000
  H   H894      1.0  0.00403  0.84263  0.34039  1.0000
  C   C545      1.0  0.22006  0.80608  0.36966  1.0000
  H   H895      1.0  0.02208  0.70070  0.14885  1.0000
  H   H896      1.0  0.12529  0.93122  0.25463  1.0000
  Fe  Fe80      1.0  0.17441  0.95942  0.29238  1.0000
  H   H897      1.0  0.10347  0.87252  0.44907  1.0000
  H   H898      1.0  0.00961  0.97523  0.34966  1.0000
  H   H899      1.0  0.19192  0.75171  0.21933  1.0000
  N   N38       1.0  0.15959  0.82084  0.29925  1.0000
  C   C546      1.0  0.14713  0.81826  0.28450  1.0000
  C   C547      1.0  0.18136  0.82212  0.28684  1.0000
  C   C548      1.0  0.14921  0.84118  0.30671  1.0000
  C   C549      1.0  0.15938  0.80218  0.31735  1.0000
  C   C550      1.0  0.12340  0.81966  0.29310  1.0000
  C   C551      1.0  0.19330  0.80315  0.27666  1.0000
  C   C552      1.0  0.16254  0.85133  0.31537  1.0000
  C   C553      1.0  0.17333  0.79966  0.33326  1.0000
  H   H900      1.0  0.14887  0.83036  0.26966  1.0000
  H   H901      1.0  0.15305  0.80275  0.27971  1.0000
  H   H902      1.0  0.19156  0.82458  0.29624  1.0000
  H   H903      1.0  0.18067  0.83623  0.27405  1.0000
  H   H904      1.0  0.14355  0.85353  0.29361  1.0000
  H   H905      1.0  0.13496  0.83914  0.31906  1.0000
  H   H906      1.0  0.14335  0.80273  0.32686  1.0000
  H   H907      1.0  0.16287  0.78709  0.31183  1.0000
  H   H908      1.0  0.11625  0.81725  0.28087  1.0000
  H   H909      1.0  0.11999  0.80724  0.30720  1.0000
  H   H910      1.0  0.11536  0.83538  0.29655  1.0000
  H   H911      1.0  0.19375  0.78803  0.28822  1.0000
  H   H912      1.0  0.18667  0.80253  0.26330  1.0000
  H   H913      1.0  0.20974  0.80503  0.26999  1.0000
  H   H914      1.0  0.17511  0.85731  0.30281  1.0000
  H   H915      1.0  0.16932  0.84068  0.32853  1.0000
  H   H916      1.0  0.15240  0.86529  0.32138  1.0000
  H   H917      1.0  0.16465  0.80762  0.34645  1.0000
  H   H918      1.0  0.18821  0.80509  0.32645  1.0000
  H   H919      1.0  0.17811  0.78263  0.33994  1.0000
  C   C554      1.0  0.01751  0.67697  0.08956  1.0000
  C   C555      1.0  0.05083  0.78369  0.43751  1.0000
  C   C556      1.0  0.20913  0.72482  0.25852  1.0000
  S   S161      1.0  0.21636  0.78534  0.36029  1.0000
  S   S162      1.0  0.00458  0.96364  0.26402  1.0000
  H   H920      1.0  0.18075  0.73980  0.27735  1.0000
  C   C557      1.0  0.22065  0.94090  0.43044  1.0000
  C   C558      1.0  0.14737  0.78079  0.39368  1.0000
  H   H921      1.0  0.21565  0.67741  0.13491  1.0000
  H   H922      1.0  0.18937  0.73702  0.43000  1.0000
  H   H923      1.0  0.08626  0.93413  0.20106  1.0000
  H   H924      1.0  0.22845  0.91511  0.15731  1.0000
  H   H925      1.0  0.02447  0.91829  0.46422  1.0000
  H   H926      1.0  0.09071  0.77885  0.22460  1.0000
  H   H927      1.0  0.15721  0.82055  0.44715  1.0000
  H   H928      1.0  0.06802  0.70516  0.23883  1.0000
  C   C559      1.0  0.11608  0.74040  0.21996  1.0000
  H   H929      1.0  0.05652  0.90553  0.48878  1.0000
  C   C560      1.0  0.04741  0.69421  0.11149  1.0000
  C   C561      1.0  0.01933  0.90574  0.47764  1.0000
  H   H930      1.0  0.01643  0.72427  0.47212  1.0000
  C   C562      1.0  0.08604  0.96487  0.28934  1.0000
  H   H931      1.0  0.99372  0.78562  0.47759  1.0000
  C   C563      1.0  0.07776  0.70352  0.25044  1.0000
  H   H932      1.0  0.21543  0.96561  0.48310  1.0000
  H   H933      1.0  0.06833  0.71075  0.26391  1.0000
  H   H934      1.0  0.23668  0.72625  0.20785  1.0000
  C   C564      1.0  0.08044  0.74914  0.24181  1.0000
  C   C565      1.0  0.22190  0.72839  0.21984  1.0000
  C   C566      1.0  0.02691  0.72834  0.09789  1.0000
  H   H935      1.0  0.10536  0.71114  0.25402  1.0000
  C   C567      1.0  0.12532  0.97000  0.46123  1.0000
  H   H936      1.0  0.13616  0.98139  0.28299  1.0000
  H   H937      1.0  0.08217  0.68643  0.25694  1.0000
  C   C568      1.0  0.18788  0.95309  0.48727  1.0000
  H   H938      1.0  0.14762  0.70088  0.38116  1.0000
  C   C569      1.0  0.22667  0.84002  0.11890  1.0000
  H   H939      1.0  0.22004  0.92880  0.44514  1.0000
  S   S163      1.0  0.16078  0.93663  0.28294  1.0000
  H   H940      1.0  0.18975  0.69052  0.16500  1.0000
  H   H941      1.0  0.14156  0.69801  0.34930  1.0000
  C   C570      1.0  0.15903  0.94600  0.43844  1.0000
  H   H942      1.0  0.01239  0.88877  0.45727  1.0000
  H   H943      1.0  0.03346  0.89300  0.47892  1.0000
  C   C571      1.0  0.06462  0.94359  0.23718  1.0000
  H   H944      1.0  0.14263  0.67327  0.34351  1.0000
  H   H945      1.0  0.21744  0.76470  0.23358  1.0000
  H   H946      1.0  0.08807  0.76659  0.19063  1.0000
  C   C572      1.0  0.02350  0.75571  0.46404  1.0000
  C   C573      1.0  0.00776  0.82211  0.41010  1.0000
  H   H947      1.0  0.17466  0.79602  0.45089  1.0000
  H   H948      1.0  0.22423  0.84463  0.13376  1.0000
  H   H949      1.0  0.08962  0.71890  0.20539  1.0000
  H   H950      1.0  0.10658  0.74494  0.18103  1.0000
  C   C574      1.0  0.18093  0.69842  0.36633  1.0000
  H   H951      1.0  0.99366  0.71111  0.11602  1.0000
  H   H952      1.0  0.18179  0.74405  0.40455  1.0000
  H   H953      1.0  0.18038  0.81489  0.42723  1.0000
  H   H954      1.0  0.20327  0.74234  0.19568  1.0000
  C   C575      1.0  0.04738  0.98724  0.34705  1.0000
  C   C576      1.0  0.20440  0.74487  0.10955  1.0000
  H   H955      1.0  0.21434  0.72117  0.27382  1.0000
  H   H956      1.0  0.22073  0.66467  0.16814  1.0000
  H   H957      1.0  0.11578  0.75511  0.20783  1.0000
  H   H958      1.0  0.18676  0.70854  0.14082  1.0000
  Fe  Fe81      1.0  0.15198  0.67324  0.24366  1.0000
  S   S164      1.0  0.22885  0.86057  0.39370  1.0000
  H   H959      1.0  0.05291  0.67299  0.02289  1.0000
  H   H960      1.0  0.18548  0.70054  0.00534  1.0000
  H   H961      1.0  0.14342  0.74226  0.23071  1.0000
  H   H962      1.0  0.03842  0.74819  0.45482  1.0000
  H   H963      1.0  0.06688  0.78179  0.24364  1.0000
  S   S165      1.0  0.00132  0.94792  0.31575  1.0000
  C   C577      1.0  0.00793  0.70878  0.14225  1.0000
  H   H964      1.0  0.05101  0.70279  0.12194  1.0000
  H   H965      1.0  0.18934  0.75730  0.25418  1.0000
  H   H966      1.0  0.05486  0.74962  0.48027  1.0000
  C   C578      1.0  0.17337  0.67745  0.34438  1.0000
  H   H967      1.0  0.16665  0.81155  0.13168  1.0000
  C   C579      1.0  0.20226  0.97436  0.38642  1.0000
  C   C580      1.0  0.19253  0.73066  0.32856  1.0000
  H   H968      1.0  0.06087  0.66728  0.13331  1.0000
  C   C581      1.0  0.14426  0.97691  0.45383  1.0000
  H   H969      1.0  0.13770  0.80538  0.43413  1.0000
  H   H970      1.0  0.12717  0.72807  0.21193  1.0000
  H   H971      1.0  0.24201  0.95687  0.40673  1.0000
  H   H972      1.0  0.15190  0.69344  0.32290  1.0000
  H   H973      1.0  0.22603  0.70051  0.07703  1.0000
  C   C582      1.0  0.19029  0.74820  0.41461  1.0000
  H   H974      1.0  0.17716  0.73672  0.25272  1.0000
  C   C583      1.0  0.07616  0.77266  0.23148  1.0000
  Fe  Fe82      1.0  0.18314  0.84590  0.46595  1.0000
  H   H975      1.0  0.12883  0.77686  0.42494  1.0000
  H   H976      1.0  0.13616  0.77527  0.38769  1.0000
  C   C584      1.0  0.23317  0.90028  0.16848  1.0000
  N   N39       1.0  0.12320  0.87891  0.39460  1.0000
  C   C585      1.0  0.13775  0.85784  0.39382  1.0000
  C   C586      1.0  0.11883  0.88262  0.41670  1.0000
  C   C587      1.0  0.13292  0.89640  0.37973  1.0000
  C   C588      1.0  0.10345  0.87863  0.38805  1.0000
  C   C589      1.0  0.14673  0.85263  0.37174  1.0000
  C   C590      1.0  0.10511  0.86867  0.43348  1.0000
  C   C591      1.0  0.15385  0.89854  0.38354  1.0000
  C   C592      1.0  0.08589  0.89844  0.38926  1.0000
  H   H977      1.0  0.15125  0.85621  0.40126  1.0000
  H   H978      1.0  0.12968  0.84493  0.40326  1.0000
  H   H979      1.0  0.11169  0.89937  0.41742  1.0000
  H   H980      1.0  0.13365  0.87990  0.42230  1.0000
  H   H981      1.0  0.13551  0.89468  0.36318  1.0000
  H   H982      1.0  0.12210  0.91190  0.38040  1.0000
  H   H983      1.0  0.10683  0.87706  0.37134  1.0000
  H   H984      1.0  0.09686  0.86445  0.39677  1.0000
  H   H985      1.0  0.15785  0.86277  0.36211  1.0000
  H   H986      1.0  0.15557  0.83615  0.37347  1.0000
  H   H987      1.0  0.13441  0.85361  0.36310  1.0000
  H   H988      1.0  0.09788  0.97193  0.40711  1.0000
  H   H989      1.0  0.08910  0.87147  0.43046  1.0000
  C   C593      1.0  0.00494  0.84250  0.35670  1.0000
  H   H990      1.0  0.15208  0.90287  0.39888  1.0000
  H   H991      1.0  0.15952  0.91153  0.37124  1.0000
  H   H992      1.0  0.16620  0.88421  0.38225  1.0000
  H   H993      1.0  0.08769  0.91022  0.37424  1.0000
  H   H994      1.0  0.08511  0.90612  0.40227  1.0000
  H   H995      1.0  0.07050  0.89386  0.39224  1.0000
  N   N40       1.0  0.17971  0.77876  0.09484  1.0000
  C   C594      1.0  0.18507  0.75496  0.09948  1.0000
  C   C595      1.0  0.15900  0.78533  0.08786  1.0000
  C   C596      1.0  0.17751  0.78573  0.11514  1.0000
  C   C597      1.0  0.19724  0.78697  0.07833  1.0000
  H   H996      1.0  0.21761  0.87356  0.31620  1.0000
  C   C598      1.0  0.15781  0.77633  0.06930  1.0000
  C   C599      1.0  0.16726  0.80885  0.11583  1.0000
  C   C600      1.0  0.19149  0.80852  0.06372  1.0000
  H   H997      1.0  0.17160  0.74830  0.11001  1.0000
  H   H998      1.0  0.18816  0.74878  0.08485  1.0000
  H   H999      1.0  0.15414  0.80265  0.08348  1.0000
  H   H1000     1.0  0.14640  0.78057  0.10111  1.0000
  H   H1001     1.0  0.16813  0.77607  0.12827  1.0000
  H   H1002     1.0  0.19299  0.78302  0.11952  1.0000
  H   H1003     1.0  0.21011  0.78777  0.08560  1.0000
  H   H1004     1.0  0.20437  0.77579  0.06762  1.0000
  C   C601      1.0  0.11921  0.66570  0.17232  1.0000
  C   C602      1.0  0.19697  0.68916  0.01414  1.0000
  C   C603      1.0  0.00759  0.80256  0.40619  1.0000
  H   H1005     1.0  0.17132  0.77820  0.05613  1.0000
  H   H1006     1.0  0.15673  0.75946  0.07440  1.0000
  H   H1007     1.0  0.14335  0.78475  0.06333  1.0000
  Fe  Fe83      1.0  0.17255  0.66865  0.28039  1.0000
  H   H1008     1.0  0.15087  0.81287  0.11363  1.0000
  H   H1009     1.0  0.23571  0.85949  0.18601  1.0000
  H   H1010     1.0  0.20569  0.81546  0.05765  1.0000
  H   H1011     1.0  0.07109  0.92141  0.33752  1.0000
  S   S166      1.0  0.20664  0.88839  0.27227  1.0000
  S   S167      1.0  0.02530  0.79218  0.38550  1.0000
  C   C604      1.0  0.00383  0.89679  0.47046  1.0000
  H   H1012     1.0  0.16838  0.69189  0.15281  1.0000
  Fe  Fe84      1.0  0.14693  0.92824  0.31740  1.0000
  H   H1013     1.0  0.13625  0.76074  0.48120  1.0000
  H   H1014     1.0  0.12367  0.73336  0.25202  1.0000
  H   H1015     1.0  0.19825  0.67402  0.00975  1.0000
  S   S168      1.0  0.04667  0.97913  0.28188  1.0000
  H   H1016     1.0  0.10274  0.98162  0.37048  1.0000
  H   H1017     1.0  0.01415  0.86256  0.30467  1.0000
  C   C605      1.0  0.10134  0.95198  0.30028  1.0000
  H   H1018     1.0  0.21560  0.70850  0.01832  1.0000
  Fe  Fe85      1.0  0.18638  0.92942  0.33104  1.0000
  Fe  Fe86      1.0  0.18904  0.91306  0.29150  1.0000
  C   C606      1.0  0.21868  0.96033  0.34847  1.0000
  H   H1019     1.0  0.15755  0.74752  0.45102  1.0000
  H   H1020     1.0  0.14728  0.75410  0.41961  1.0000
  H   H1021     1.0  0.06077  0.69498  0.09782  1.0000
  C   C607      1.0  0.15745  0.76426  0.45063  1.0000
  H   H1022     1.0  0.05436  0.95374  0.24806  1.0000
  H   H1023     1.0  0.02866  0.73467  0.11103  1.0000
  H   H1024     1.0  0.08020  0.75005  0.17810  1.0000
  S   S169      1.0  0.09870  0.70672  0.29867  1.0000
  H   H1025     1.0  0.00598  0.72607  0.14013  1.0000
  H   H1026     1.0  0.12692  0.94775  0.39960  1.0000
  H   H1027     1.0  0.18344  0.95080  0.39400  1.0000
  C   C608      1.0  0.05015  0.83995  0.47051  1.0000
  C   C609      1.0  0.20700  0.74700  0.20889  1.0000
  C   C610      1.0  0.09025  0.75017  0.18890  1.0000
  C   C611      1.0  0.19498  0.95824  0.38226  1.0000
  C   C612      1.0  0.21767  0.69712  0.00811  1.0000
  H   H1028     1.0  0.17202  0.93689  0.42946  1.0000
  H   H1029     1.0  0.01909  0.79826  0.44797  1.0000
  S   S170      1.0  0.20409  0.93673  0.29790  1.0000
  C   C613      1.0  0.08494  0.73465  0.20984  1.0000
  H   H1030     1.0  0.23959  0.90121  0.43280  1.0000
  S   S171      1.0  0.13721  0.91525  0.44156  1.0000
  H   H1031     1.0  0.18151  0.66818  0.33199  1.0000
  H   H1032     1.0  0.17093  0.76340  0.45781  1.0000
  H   H1033     1.0  0.01885  0.83132  0.40014  1.0000
  C   C614      1.0  0.23290  0.82809  0.08036  1.0000
  H   H1034     1.0  0.19317  0.77439  0.42582  1.0000
  H   H1035     1.0  0.24148  0.82745  0.15993  1.0000
  Fe  Fe87      1.0  0.01452  0.97215  0.28966  1.0000
  Fe  Fe88      1.0  0.16610  0.89045  0.44596  1.0000
  C   C615      1.0  0.14005  0.93907  0.44593  1.0000
  C   C616      1.0  0.03272  0.79024  0.45532  1.0000
  C   C617      1.0  0.18246  0.77123  0.41726  1.0000
  H   H1036     1.0  0.17571  0.97036  0.43632  1.0000
  H   H1037     1.0  0.05641  0.79793  0.42752  1.0000
  C   C618      1.0  0.16108  0.96503  0.44216  1.0000
  H   H1038     1.0  0.18537  0.78148  0.40142  1.0000
  N   N41       1.0  0.02711  0.70499  0.10442  1.0000
  C   C619      1.0  0.22558  0.73054  0.05551  1.0000
  H   H1039     1.0  0.04165  0.75255  0.07515  1.0000
  C   C620      1.0  0.99321  0.79068  0.41927  1.0000
  S   S172      1.0  0.17383  0.85999  0.43470  1.0000
  H   H1040     1.0  0.18726  0.81612  0.38147  1.0000
  C   C621      1.0  0.12308  0.95131  0.45707  1.0000
  C   C622      1.0  0.18514  0.69247  0.14976  1.0000
  C   C623      1.0  0.12625  0.74417  0.23662  1.0000
  H   H1041     1.0  0.00617  0.68559  0.12638  1.0000
  H   H1042     1.0  0.14309  0.79821  0.39035  1.0000
  H   H1043     1.0  0.23848  0.93832  0.38357  1.0000
  C   C624      1.0  0.22934  0.85903  0.32037  1.0000
  C   C625      1.0  0.00639  0.78078  0.48680  1.0000
  C   C626      1.0  0.01445  0.73757  0.48000  1.0000
  Fe  Fe89      1.0  0.12599  0.68364  0.28482  1.0000
  H   H1044     1.0  0.18302  0.73886  0.34132  1.0000
  C   C627      1.0  0.14540  0.77144  0.41750  1.0000
  H   H1045     1.0  0.99396  0.83317  0.36792  1.0000
  N   N42       1.0  0.16000  0.77675  0.42827  1.0000
  H   H1046     1.0  0.20107  0.74626  0.12628  1.0000
  H   H1047     1.0  0.01908  0.67265  0.07421  1.0000
  S   S173      1.0  0.15311  0.69577  0.26256  1.0000
  H   H1048     1.0  0.17662  0.81970  0.10450  1.0000
  Fe  Fe90      1.0  0.20490  0.88106  0.46393  1.0000
  H   H1049     1.0  0.08672  0.74744  0.25616  1.0000
  C   C628      1.0  0.15459  0.80006  0.42769  1.0000
  H   H1050     1.0  0.19579  0.68167  0.12066  1.0000
  N   N43       1.0  0.09473  0.73474  0.22787  1.0000
  H   H1051     1.0  0.22208  0.89694  0.33219  1.0000
  C   C629      1.0  0.18806  0.74068  0.26043  1.0000
  H   H1052     1.0  0.14373  0.97518  0.40313  1.0000
  S   S174      1.0  0.22441  0.76879  0.02801  1.0000
  H   H1053     1.0  0.19188  0.84567  0.39481  1.0000
  Fe  Fe91      1.0  0.20639  0.86623  0.42379  1.0000
  S   S175      1.0  0.19786  0.89785  0.43233  1.0000
  H   H1054     1.0  0.16314  0.77556  0.38445  1.0000
  H   H1055     1.0  0.11241  0.85174  0.43483  1.0000
  H   H1056     1.0  0.03667  0.80283  0.46070  1.0000
  H   H1057     1.0  0.23131  0.89605  0.04846  1.0000
  H   H1058     1.0  0.21884  0.89461  0.17796  1.0000
  N   N44       1.0  0.22642  0.73034  0.24016  1.0000
  C   C630      1.0  0.13733  0.77217  0.46591  1.0000
  C   C631      1.0  0.04979  0.67077  0.12247  1.0000
  H   H1059     1.0  0.99659  0.88499  0.48305  1.0000
  H   H1060     1.0  0.21437  0.68079  0.32388  1.0000
  H   H1061     1.0  0.04995  0.97572  0.36185  1.0000
  H   H1062     1.0  0.13720  0.83295  0.48712  1.0000
  H   H1063     1.0  0.00063  0.67897  0.09688  1.0000
  C   C632      1.0  0.13712  0.95577  0.38585  1.0000
  C   C633      1.0  0.22533  0.83949  0.38479  1.0000
  H   H1064     1.0  0.04167  0.97860  0.33832  1.0000
  H   H1065     1.0  0.15947  0.72116  0.38391  1.0000
  H   H1066     1.0  0.20702  0.74613  0.40657  1.0000
  H   H1067     1.0  0.21818  0.75175  0.10079  1.0000
  H   H1068     1.0  0.13223  0.95613  0.37115  1.0000
  C   C634      1.0  0.99354  0.82967  0.42713  1.0000
  H   H1069     1.0  0.24107  0.88898  0.28874  1.0000
  C   C635      1.0  0.23833  0.67110  0.03276  1.0000
  H   H1070     1.0  0.21452  0.76081  0.20180  1.0000
  H   H1071     1.0  0.15302  0.94573  0.38507  1.0000
  H   H1072     1.0  0.10958  0.98183  0.42234  1.0000
  S   S176      1.0  0.99558  0.90616  0.29027  1.0000
  H   H1073     1.0  0.05991  0.72951  0.08335  1.0000
  H   H1074     1.0  0.24095  0.87172  0.03979  1.0000
  S   S177      1.0  0.20124  0.67275  0.28830  1.0000
  C   C636      1.0  0.15114  0.68638  0.33987  1.0000
  H   H1075     1.0  0.99739  0.74255  0.48571  1.0000
  H   H1076     1.0  0.18968  0.70793  0.31191  1.0000
  S   S178      1.0  0.17243  0.87575  0.47844  1.0000
  H   H1077     1.0  0.20887  0.72578  0.33076  1.0000
  H   H1078     1.0  0.04087  0.69549  0.07450  1.0000
  H   H1079     1.0  0.21114  0.93839  0.42038  1.0000
  H   H1080     1.0  0.10839  0.94604  0.46296  1.0000
  H   H1081     1.0  0.01163  0.73717  0.09371  1.0000
  C   C637      1.0  0.20897  0.68240  0.34064  1.0000
  H   H1082     1.0  0.09029  0.97698  0.27586  1.0000
  C   C638      1.0  0.23880  0.89805  0.32737  1.0000
  S   S179      1.0  0.18166  0.81304  0.48402  1.0000
  H   H1083     1.0  0.21305  0.95610  0.43520  1.0000
  H   H1084     1.0  0.22540  0.95463  0.33401  1.0000
  H   H1085     1.0  0.23441  0.68519  0.25540  1.0000
  H   H1086     1.0  0.24057  0.73203  0.05743  1.0000
  H   H1087     1.0  0.01479  0.70970  0.07618  1.0000
  S   S180      1.0  0.23397  0.77246  0.30621  1.0000
  H   H1088     1.0  0.23387  0.87834  0.21582  1.0000
  H   H1089     1.0  0.22998  0.91556  0.39954  1.0000
  H   H1090     1.0  0.17935  0.96644  0.47717  1.0000
  N   N45       1.0  0.23753  0.68093  0.00998  1.0000
  H   H1091     1.0  0.20819  0.84160  0.31594  1.0000
  C   C639      1.0  0.22505  0.84210  0.31093  1.0000
  H   H1092     1.0  0.23356  0.82611  0.31694  1.0000
  H   H1093     1.0  0.22514  0.85395  0.33781  1.0000
  H   H1094     1.0  0.21906  0.69212  0.34294  1.0000
  C   C640      1.0  0.10235  0.98644  0.40822  1.0000
  H   H1095     1.0  0.24233  0.87346  0.06593  1.0000
  S   S181      1.0  0.22616  0.89251  0.47763  1.0000
  H   H1096     1.0  0.22246  0.75360  0.27184  1.0000
  H   H1097     1.0  0.24187  0.90833  0.31161  1.0000
  H   H1098     1.0  0.23646  0.77302  0.25488  1.0000
  H   H1099     1.0  0.18241  0.68390  0.37877  1.0000
  H   H1100     1.0  0.02659  0.66357  0.09908  1.0000
  H   H1101     1.0  0.21858  0.70731  0.99209  1.0000
  H   H1102     1.0  0.16244  0.66120  0.15189  1.0000
  H   H1103     1.0  0.23364  0.91131  0.19530  1.0000
  H   H1104     1.0  0.23195  0.68306  0.04275  1.0000
  H   H1105     1.0  0.23925  0.98226  0.34187  1.0000
  H   H1106     1.0  0.24226  0.88905  0.15837  1.0000
  H   H1107     1.0  0.99427  0.70425  0.15429  1.0000
  H   H1108     1.0  0.23472  0.84330  0.21174  1.0000
  C   C641      1.0  0.24006  0.80991  0.36721  1.0000
  H   H1109     1.0  0.05575  0.99107  0.48669  1.0000
  H   H1110     1.0  0.15072  0.98367  0.37570  1.0000
  S   S182      1.0  0.12333  0.66275  0.26446  1.0000
  S   S183      1.0  0.24131  0.79300  0.19529  1.0000
  H   H1111     1.0  0.01003  0.81327  0.48495  1.0000
  C   C642      1.0  0.05746  0.77791  0.48759  1.0000
  H   H1112     1.0  0.01448  0.98964  0.37975  1.0000
  H   H1113     1.0  0.07766  0.96957  0.48595  1.0000
  H   H1114     1.0  0.21094  0.66007  0.37116  1.0000
  C   C643      1.0  0.00014  0.98994  0.35447  1.0000
  C   C644      1.0  0.06894  0.99079  0.33406  1.0000
  H   H1115     1.0  0.05629  0.66041  0.11089  1.0000
  H   H1116     1.0  0.24173  0.90607  0.33860  1.0000
  Fe  Fe92      1.0  0.07077  0.80365  0.54550  1.0000
  S   S184      1.0  0.06721  0.83815  0.53169  1.0000
  S   S185      1.0  0.10144  0.78106  0.54100  1.0000
  Fe  Fe93      1.0  0.02443  0.80600  0.56416  1.0000
  S   S186      1.0  0.01718  0.84082  0.55186  1.0000
  C   C645      1.0  0.15853  0.80477  0.49818  1.0000
  Fe  Fe94      1.0  0.03919  0.83391  0.52234  1.0000
  H   H1117     1.0  0.00031  0.82459  0.63909  1.0000
  Fe  Fe95      1.0  0.04589  0.84159  0.56261  1.0000
  S   S187      1.0  0.04538  0.86887  0.57655  1.0000
  S   S188      1.0  0.04437  0.79906  0.53363  1.0000
  S   S189      1.0  0.05147  0.80728  0.57758  1.0000
  H   H1118     1.0  0.10614  0.82249  0.56711  1.0000
  H   H1119     1.0  0.00811  0.81742  0.61343  1.0000
  H   H1120     1.0  0.10854  0.89008  0.53834  1.0000
  S   S190      1.0  0.21445  0.98869  0.66533  1.0000
  H   H1121     1.0  0.12127  0.81872  0.58724  1.0000
  C   C646      1.0  0.06219  0.89448  0.64499  1.0000
  C   C647      1.0  0.14975  0.84497  0.57053  1.0000
  H   H1122     1.0  0.16193  0.93083  0.68093  1.0000
  H   H1123     1.0  0.02236  0.73153  0.49362  1.0000
  N   N46       1.0  0.18818  0.90845  0.69224  1.0000
  C   C648      1.0  0.12077  0.81018  0.50980  1.0000
  H   H1124     1.0  0.23586  0.95060  0.51835  1.0000
  H   H1125     1.0  0.13314  0.69049  0.90898  1.0000
  H   H1126     1.0  0.19360  0.83497  0.51875  1.0000
  C   C649      1.0  0.19743  0.89993  0.51393  1.0000
  H   H1127     1.0  0.07003  0.87770  0.64901  1.0000
  Fe  Fe96      1.0  0.14239  0.94055  0.62236  1.0000
  S   S191      1.0  0.15390  0.95579  0.58909  1.0000
  S   S192      1.0  0.13979  0.95682  0.64907  1.0000
  Fe  Fe97      1.0  0.12990  0.90543  0.60854  1.0000
  S   S193      1.0  0.14033  0.91835  0.57427  1.0000
  S   S194      1.0  0.11766  0.87521  0.61796  1.0000
  Fe  Fe98      1.0  0.16798  0.92286  0.58419  1.0000
  S   S195      1.0  0.20138  0.91525  0.56775  1.0000
  Fe  Fe99      1.0  0.12520  0.94961  0.58281  1.0000
  S   S196      1.0  0.10417  0.97526  0.56516  1.0000
  S   S197      1.0  0.15882  0.90777  0.61818  1.0000
  S   S198      1.0  0.11234  0.93655  0.61638  1.0000
  C   C650      1.0  0.16038  0.78470  0.51103  1.0000
  H   H1128     1.0  0.18042  0.81375  0.53100  1.0000
  H   H1129     1.0  0.15142  0.95409  0.53700  1.0000
  H   H1130     1.0  0.21145  0.94478  0.50525  1.0000
  C   C651      1.0  0.19619  0.91054  0.65200  1.0000
  H   H1131     1.0  0.07119  0.66942  0.90054  1.0000
  H   H1132     1.0  0.02916  0.94243  0.60400  1.0000
  C   C652      1.0  0.14263  0.77752  0.52358  1.0000
  C   C653      1.0  0.16004  0.96808  0.65144  1.0000
  C   C654      1.0  0.17972  0.96565  0.63809  1.0000
  C   C655      1.0  0.19613  0.97272  0.64202  1.0000
  H   H1133     1.0  0.21698  0.95271  0.54276  1.0000
  H   H1134     1.0  0.01197  0.88635  0.54885  1.0000
  H   H1135     1.0  0.07370  0.90218  0.63251  1.0000
  H   H1136     1.0  0.18252  0.95770  0.62517  1.0000
  C   C656      1.0  0.06333  0.97551  0.56682  1.0000
  C   C657      1.0  0.14004  0.82036  0.55482  1.0000
  H   H1137     1.0  0.00305  0.79813  0.63666  1.0000
  C   C658      1.0  0.05176  0.95063  0.55385  1.0000
  C   C659      1.0  0.07258  0.94025  0.54867  1.0000
  C   C660      1.0  0.08870  0.94712  0.55313  1.0000
  C   C661      1.0  0.08407  0.96498  0.56191  1.0000
  H   H1138     1.0  0.04783  0.88758  0.62347  1.0000
  C   C662      1.0  0.04715  0.96819  0.56308  1.0000
  H   H1139     1.0  0.07625  0.92692  0.54110  1.0000
  H   H1140     1.0  0.10475  0.93911  0.54897  1.0000
  C   C663      1.0  0.15671  0.96893  0.52838  1.0000
  H   H1141     1.0  0.19524  0.93847  0.67479  1.0000
  H   H1142     1.0  0.13589  0.88569  0.52779  1.0000
  H   H1143     1.0  0.14432  0.76215  0.53389  1.0000
  C   C664      1.0  0.19188  0.90524  0.53392  1.0000
  C   C665      1.0  0.20731  0.90771  0.54328  1.0000
  C   C666      1.0  0.22813  0.90500  0.53260  1.0000
  H   H1144     1.0  0.02220  0.76482  0.55258  1.0000
  H   H1145     1.0  0.17575  0.90759  0.54194  1.0000
  H   H1146     1.0  0.99702  0.88744  0.51509  1.0000
  C   C667      1.0  0.18161  0.82953  0.53246  1.0000
  H   H1147     1.0  0.00504  0.95654  0.66034  1.0000
  N   N47       1.0  0.01115  0.91411  0.49774  1.0000
  H   H1148     1.0  0.15392  0.80842  0.55906  1.0000
  H   H1149     1.0  0.04910  0.92039  0.60041  1.0000
  H   H1150     1.0  0.22400  0.87686  0.70418  1.0000
  H   H1151     1.0  0.06689  0.76993  0.49986  1.0000
  C   C668      1.0  0.02175  0.92736  0.65009  1.0000
  H   H1152     1.0  0.01345  0.91701  0.66369  1.0000
  S   S199      1.0  0.99659  0.79110  0.58147  1.0000
  C   C669      1.0  0.16063  0.84531  0.53166  1.0000
  H   H1153     1.0  0.11842  0.85400  0.53414  1.0000
  H   H1154     1.0  0.99981  0.90570  0.64012  1.0000
  H   H1155     1.0  0.04816  0.79283  0.49192  1.0000
  C   C670      1.0  0.04048  0.93011  0.61223  1.0000
  H   H1156     1.0  0.22050  0.89858  0.71715  1.0000
  C   C671      1.0  0.00926  0.89552  0.51586  1.0000
  C   C672      1.0  0.07816  0.98927  0.50736  1.0000
  C   C673      1.0  0.16224  0.86234  0.56765  1.0000
  H   H1157     1.0  0.10623  0.66999  0.84448  1.0000
  H   H1158     1.0  0.11089  0.85553  0.56120  1.0000
  H   H1159     1.0  0.18740  0.82814  0.54691  1.0000
  C   C674      1.0  0.06747  0.86941  0.58577  1.0000
  C   C675      1.0  0.07723  0.85181  0.59870  1.0000
  C   C676      1.0  0.09284  0.85368  0.60828  1.0000
  C   C677      1.0  0.09905  0.87300  0.60464  1.0000
  C   C678      1.0  0.08980  0.89037  0.59109  1.0000
  C   C679      1.0  0.07393  0.88855  0.58189  1.0000
  H   H1160     1.0  0.07215  0.83700  0.60202  1.0000
  H   H1161     1.0  0.09988  0.84020  0.61883  1.0000
  H   H1162     1.0  0.09439  0.90537  0.58820  1.0000
  H   H1163     1.0  0.06615  0.90212  0.57210  1.0000
  H   H1164     1.0  0.14161  0.99234  0.61230  1.0000
  N   N48       1.0  0.19427  0.97563  0.51050  1.0000
  C   C680      1.0  0.22621  0.96146  0.52873  1.0000
  C   C681      1.0  0.01938  0.66491  0.76602  1.0000
  H   H1165     1.0  0.17917  0.85548  0.56681  1.0000
  C   C682      1.0  0.09581  0.68624  0.88048  1.0000
  H   H1166     1.0  0.15382  0.97173  0.51232  1.0000
  H   H1167     1.0  0.19755  0.89980  0.64130  1.0000
  H   H1168     1.0  0.18141  0.89970  0.72638  1.0000
  C   C683      1.0  0.19052  0.93950  0.70725  1.0000
  C   C684      1.0  0.12282  0.79031  0.52334  1.0000
  H   H1169     1.0  0.99963  0.92922  0.62072  1.0000
  H   H1170     1.0  0.07908  0.66452  0.87405  1.0000
  C   C685      1.0  0.19849  0.89743  0.67416  1.0000
  H   H1171     1.0  0.04982  0.95897  0.61307  1.0000
  H   H1172     1.0  0.17569  0.77478  0.51168  1.0000
  H   H1173     1.0  0.24011  0.90694  0.53970  1.0000
  H   H1174     1.0  0.13559  0.84781  0.58304  1.0000
  H   H1175     1.0  0.02063  0.93510  0.51210  1.0000
  C   C686      1.0  0.19816  0.92700  0.68941  1.0000
  H   H1176     1.0  0.02371  0.88302  0.51466  1.0000
  H   H1177     1.0  0.12191  0.79756  0.57511  1.0000
  C   C687      1.0  0.00401  0.89989  0.53832  1.0000
  N   N49       1.0  0.14376  0.84245  0.55118  1.0000
  H   H1178     1.0  0.07735  0.97601  0.62364  1.0000
  H   H1179     1.0  0.09817  0.69585  0.86420  1.0000
  H   H1180     1.0  0.15720  0.86936  0.58191  1.0000
  C   C688      1.0  0.12398  0.88117  0.54189  1.0000
  C   C689      1.0  0.16503  0.91629  0.69296  1.0000
  C   C690      1.0  0.13202  0.69850  0.89255  1.0000
  H   H1181     1.0  0.13781  0.81722  0.54014  1.0000
  C   C691      1.0  0.00966  0.91385  0.62595  1.0000
  C   C692      1.0  0.21234  0.98037  0.51685  1.0000
  H   H1182     1.0  0.06328  0.68902  0.87905  1.0000
  C   C693      1.0  0.11243  0.66067  0.90765  1.0000
  C   C694      1.0  0.17969  0.96692  0.53005  1.0000
  H   H1183     1.0  0.02095  0.68119  0.76089  1.0000
  C   C695      1.0  0.05605  0.94172  0.61584  1.0000
  N   N50       1.0  0.02902  0.91698  0.63128  1.0000
  H   H1184     1.0  0.14871  0.67183  0.87849  1.0000
  H   H1185     1.0  0.07341  0.98313  0.52436  1.0000
  H   H1186     1.0  0.99855  0.75860  0.65177  1.0000
  H   H1187     1.0  0.07073  0.93934  0.60390  1.0000
  H   H1188     1.0  0.22582  0.68301  0.97116  1.0000
  C   C696      1.0  0.13327  0.68286  0.87865  1.0000
  C   C697      1.0  0.00095  0.75167  0.54288  1.0000
  H   H1189     1.0  0.16023  0.87548  0.55412  1.0000
  H   H1190     1.0  0.18515  0.87865  0.71356  1.0000
  H   H1191     1.0  0.00515  0.75467  0.62536  1.0000
  H   H1192     1.0  0.21564  0.89250  0.67342  1.0000
  H   H1193     1.0  0.21550  0.92224  0.68699  1.0000
  H   H1194     1.0  0.03672  0.75639  0.50267  1.0000
  C   C698      1.0  0.21834  0.89753  0.50321  1.0000
  H   H1195     1.0  0.12578  0.88644  0.55561  1.0000
  C   C699      1.0  0.02648  0.92648  0.49906  1.0000
  H   H1196     1.0  0.16432  0.86121  0.52756  1.0000
  H   H1197     1.0  0.00326  0.67430  0.81479  1.0000
  C   C700      1.0  0.12369  0.85750  0.54718  1.0000
  C   C701      1.0  0.12120  0.81479  0.57217  1.0000
  H   H1198     1.0  0.15963  0.83003  0.57737  1.0000
  H   H1199     1.0  0.11766  0.71095  0.89245  1.0000
  Fe  Fe100     1.0  0.99954  0.95705  0.56230  1.0000
  H   H1200     1.0  0.05664  0.96922  0.50819  1.0000
  H   H1201     1.0  0.18070  0.92104  0.65168  1.0000
  H   H1202     1.0  0.05983  0.98952  0.57317  1.0000
  H   H1203     1.0  0.01322  0.74270  0.53294  1.0000
  H   H1204     1.0  0.15516  0.84402  0.51774  1.0000
  H   H1205     1.0  0.13314  0.67258  0.84048  1.0000
  C   C702      1.0  0.04229  0.89547  0.63716  1.0000
  H   H1206     1.0  0.99785  0.90250  0.60448  1.0000
  H   H1207     1.0  0.05810  0.92428  0.50283  1.0000
  H   H1208     1.0  0.05891  0.90083  0.65946  1.0000
  H   H1209     1.0  0.13414  0.69220  0.86228  1.0000
  N   N51       1.0  0.11568  0.67098  0.88465  1.0000
  H   H1210     1.0  0.11104  0.98551  0.61139  1.0000
  C   C703      1.0  0.15666  0.97852  0.66808  1.0000
  H   H1211     1.0  0.00974  0.91342  0.53967  1.0000
  H   H1212     1.0  0.15498  0.88566  0.70212  1.0000
  C   C704      1.0  0.15315  0.90054  0.69027  1.0000
  H   H1213     1.0  0.06060  0.93663  0.63131  1.0000
  H   H1214     1.0  0.10550  0.81992  0.50909  1.0000
  S   S200      1.0  0.03187  0.94214  0.54774  1.0000
  C   C705      1.0  0.01318  0.90161  0.60836  1.0000
  H   H1215     1.0  0.03124  0.97671  0.56652  1.0000
  C   C706      1.0  0.00694  0.94910  0.64675  1.0000
  H   H1216     1.0  0.19360  0.92976  0.72260  1.0000
  H   H1217     1.0  0.10640  0.67258  0.91781  1.0000
  H   H1218     1.0  0.03490  0.92951  0.65587  1.0000
  C   C707      1.0  0.23359  0.90012  0.51260  1.0000
  H   H1219     1.0  0.21151  0.97010  0.63210  1.0000
  C   C708      1.0  0.19101  0.89306  0.71255  1.0000
  H   H1220     1.0  0.03284  0.88513  0.64957  1.0000
  H   H1221     1.0  0.17691  0.94460  0.49969  1.0000
  H   H1222     1.0  0.14149  0.98052  0.67847  1.0000
  H   H1223     1.0  0.09502  0.98201  0.50367  1.0000
  H   H1224     1.0  0.18597  0.95000  0.53580  1.0000
  H   H1225     1.0  0.15796  0.89712  0.67420  1.0000
  C   C709      1.0  0.00046  0.65933  0.76657  1.0000
  H   H1226     1.0  0.18554  0.89822  0.50661  1.0000
  H   H1227     1.0  0.19337  0.88231  0.67636  1.0000
  H   H1228     1.0  0.17367  0.94688  0.70872  1.0000
  H   H1229     1.0  0.14552  0.70653  0.88618  1.0000
  H   H1230     1.0  0.00655  0.71213  0.62087  1.0000
  H   H1231     1.0  0.20844  0.92018  0.64543  1.0000
  C   C710      1.0  0.13870  0.81751  0.49727  1.0000
  C   C711      1.0  0.17295  0.98589  0.67181  1.0000
  C   C712      1.0  0.00602  0.76427  0.55394  1.0000
  H   H1232     1.0  0.04749  0.90180  0.51713  1.0000
  C   C713      1.0  0.99780  0.81482  0.62921  1.0000
  H   H1233     1.0  0.13619  0.90772  0.69239  1.0000
  H   H1234     1.0  0.17897  0.97477  0.54309  1.0000
  H   H1235     1.0  0.01966  0.88466  0.61353  1.0000
  H   H1236     1.0  0.02325  0.90835  0.59364  1.0000
  H   H1237     1.0  0.15703  0.92121  0.70814  1.0000
  H   H1238     1.0  0.09111  0.69780  0.89098  1.0000
  H   H1239     1.0  0.14624  0.98139  0.53649  1.0000
  C   C714      1.0  0.19290  0.98258  0.65909  1.0000
  C   C715      1.0  0.07650  0.67644  0.88376  1.0000
  H   H1240     1.0  0.01520  0.79449  0.50899  1.0000
  C   C716      1.0  0.04832  0.91350  0.50204  1.0000
  H   H1241     1.0  0.23735  0.96738  0.53440  1.0000
  H   H1242     1.0  0.19914  0.95257  0.70339  1.0000
  H   H1243     1.0  0.99673  0.72282  0.65302  1.0000
  H   H1244     1.0  0.01308  0.95997  0.63237  1.0000
  C   C717      1.0  0.20334  0.95973  0.49653  1.0000
  C   C718      1.0  0.00564  0.79936  0.49672  1.0000
  H   H1245     1.0  0.00146  0.76823  0.50019  1.0000
  C   C719      1.0  0.24035  0.67161  0.97410  1.0000
  C   C720      1.0  0.12187  0.66204  0.84795  1.0000
  C   C721      1.0  0.06632  0.97964  0.49629  1.0000
  H   H1246     1.0  0.21352  0.87430  0.73164  1.0000
  H   H1247     1.0  0.20666  0.99201  0.52729  1.0000
  H   H1248     1.0  0.00283  0.70203  0.59187  1.0000
  H   H1249     1.0  0.99874  0.73653  0.60507  1.0000
  S   S201      1.0  0.03057  0.84845  0.49100  1.0000
  H   H1250     1.0  0.22288  0.98780  0.50278  1.0000
  C   C722      1.0  0.21365  0.88550  0.71624  1.0000
  H   H1251     1.0  0.07303  0.82510  0.48993  1.0000
  H   H1252     1.0  0.24998  0.03985  0.31681  1.0000
  H   H1253     1.0  0.45513  0.02674  0.02034  1.0000
  H   H1254     1.0  0.37372  0.25305  0.46280  1.0000
  H   H1255     1.0  0.32341  0.17899  0.46584  1.0000
  C   C723      1.0  0.48174  0.32512  0.45452  1.0000
  H   H1256     1.0  0.46657  0.32331  0.46415  1.0000
  H   H1257     1.0  0.32597  0.24764  0.44104  1.0000
  H   H1258     1.0  0.39304  0.27751  0.45894  1.0000
  H   H1259     1.0  0.35218  0.00928  0.05217  1.0000
  C   C724      1.0  0.24863  0.05010  0.48869  1.0000
  H   H1260     1.0  0.29008  0.25569  0.45751  1.0000
  C   C725      1.0  0.25677  0.06757  0.48869  1.0000
  S   S202      1.0  0.26513  0.10776  0.47156  1.0000
  H   H1261     1.0  0.48157  0.30450  0.43455  1.0000
  H   H1262     1.0  0.32166  0.27109  0.45094  1.0000
  S   S203      1.0  0.39775  0.05762  0.99287  1.0000
  H   H1263     1.0  0.46244  0.99976  0.00246  1.0000
  C   C726      1.0  0.44036  0.07584  0.00695  1.0000
  H   H1264     1.0  0.29526  0.26089  0.48019  1.0000
  H   H1265     1.0  0.33014  0.21253  0.46574  1.0000
  H   H1266     1.0  0.41146  0.24208  0.46175  1.0000
  H   H1267     1.0  0.43452  0.09030  0.01363  1.0000
  C   C727      1.0  0.36850  0.26108  0.47636  1.0000
  C   C728      1.0  0.24401  0.08603  0.45698  1.0000
  C   C729      1.0  0.46096  0.03238  0.00321  1.0000
  H   H1268     1.0  0.37378  0.29157  0.47641  1.0000
  H   H1269     1.0  0.31026  0.21648  0.45130  1.0000
  H   H1270     1.0  0.27383  0.22392  0.46818  1.0000
  H   H1271     1.0  0.48722  0.00661  0.99276  1.0000
  C   C730      1.0  0.42046  0.99513  0.00047  1.0000
  C   C731      1.0  0.41005  0.02582  0.02489  1.0000
  H   H1272     1.0  0.37562  0.99621  0.03758  1.0000
  H   H1273     1.0  0.33520  0.24696  0.46421  1.0000
  C   C732      1.0  0.32224  0.25384  0.45571  1.0000
  H   H1274     1.0  0.43519  0.24111  0.47040  1.0000
  C   C733      1.0  0.31342  0.21214  0.46756  1.0000
  C   C734      1.0  0.30073  0.24996  0.46898  1.0000
  S   S204      1.0  0.46432  0.02962  0.07070  1.0000
  H   H1275     1.0  0.39047  0.14521  0.48875  1.0000
  C   C735      1.0  0.25467  0.08556  0.47270  1.0000
  N   N52       1.0  0.29933  0.22763  0.48045  1.0000
  H   H1276     1.0  0.42517  0.31016  0.47131  1.0000
  C   C736      1.0  0.49023  0.31447  0.43783  1.0000
  H   H1277     1.0  0.45958  0.05897  0.02941  1.0000
  N   N53       1.0  0.47470  0.04792  0.00035  1.0000
  H   H1278     1.0  0.39894  0.31131  0.46947  1.0000
  H   H1279     1.0  0.35279  0.27092  0.47487  1.0000
  C   C737      1.0  0.46213  0.06512  0.01207  1.0000
  C   C738      1.0  0.40658  0.03131  0.00429  1.0000
  C   C739      1.0  0.41591  0.27982  0.48278  1.0000
  H   H1280     1.0  0.42471  0.27623  0.46727  1.0000
  C   C740      1.0  0.41956  0.23680  0.47520  1.0000
  C   C741      1.0  0.38350  0.27565  0.47523  1.0000
  H   H1281     1.0  0.47392  0.07069  0.05523  1.0000
  C   C742      1.0  0.41964  0.00515  0.03288  1.0000
  C   C743      1.0  0.41165  0.01593  0.99222  1.0000
  C   C744      1.0  0.31154  0.18890  0.47602  1.0000
  C   C745      1.0  0.36624  0.99657  0.05369  1.0000
  H   H1282     1.0  0.42313  0.00130  0.04842  1.0000
  C   C746      1.0  0.48703  0.06037  0.06153  1.0000
  H   H1283     1.0  0.40625  0.03775  0.03428  1.0000
  H   H1284     1.0  0.42237  0.21931  0.47917  1.0000
  C   C747      1.0  0.27705  0.22510  0.48332  1.0000
  H   H1285     1.0  0.42883  0.06555  0.01448  1.0000
  H   H1286     1.0  0.48788  0.03045  0.02745  1.0000
  H   H1287     1.0  0.47066  0.07816  0.00901  1.0000
  H   H1288     1.0  0.25797  0.25758  0.47963  1.0000
  S   S205      1.0  0.49299  0.12802  0.99454  1.0000
  C   C748      1.0  0.48634  0.03923  0.07050  1.0000
  H   H1289     1.0  0.37516  0.00116  0.06307  1.0000
  H   H1290     1.0  0.29603  0.18639  0.47556  1.0000
  S   S206      1.0  0.29515  0.14069  0.48887  1.0000
  Fe  Fe101     1.0  0.47045  0.99503  0.07136  1.0000
  H   H1291     1.0  0.44683  0.04011  0.99642  1.0000
  C   C749      1.0  0.47036  0.01278  0.99325  1.0000
  C   C750      1.0  0.41072  0.30406  0.47949  1.0000
  C   C751      1.0  0.43547  0.31392  0.55623  1.0000
  S   S207      1.0  0.28376  0.08007  0.57318  1.0000
  Fe  Fe102     1.0  0.40434  0.08367  0.91367  1.0000
  S   S208      1.0  0.44736  0.01032  0.91116  1.0000
  S   S209      1.0  0.47406  0.09503  0.92143  1.0000
  S   S210      1.0  0.38039  0.10380  0.89455  1.0000
  S   S211      1.0  0.43773  0.07169  0.89944  1.0000
  Fe  Fe103     1.0  0.32442  0.07920  0.81957  1.0000
  S   S212      1.0  0.32803  0.08962  0.78457  1.0000
  S   S213      1.0  0.35443  0.06366  0.83128  1.0000
  Fe  Fe104     1.0  0.29965  0.07623  0.78814  1.0000
  S   S214      1.0  0.30116  0.05906  0.76258  1.0000
  Fe  Fe105     1.0  0.30568  0.11904  0.79135  1.0000
  S   S215      1.0  0.31111  0.15068  0.77234  1.0000
  H   H1292     1.0  0.31752  0.29162  0.76534  1.0000
  N   N54       1.0  0.38766  0.11906  0.72281  1.0000
  Fe  Fe106     1.0  0.29527  0.26177  0.81728  1.0000
  S   S216      1.0  0.28369  0.26485  0.78784  1.0000
  S   S217      1.0  0.32922  0.25012  0.81893  1.0000
  Fe  Fe107     1.0  0.26523  0.29597  0.79505  1.0000
  C   C752      1.0  0.30578  0.14596  0.87772  1.0000
  H   H1293     1.0  0.29811  0.28147  0.66832  1.0000
  S   S218      1.0  0.27884  0.29408  0.82284  1.0000
  H   H1294     1.0  0.24708  0.17972  0.62317  1.0000
  H   H1295     1.0  0.35044  0.10770  0.54610  1.0000
  H   H1296     1.0  0.42857  0.28357  0.69853  1.0000
  H   H1297     1.0  0.41351  0.13137  0.52068  1.0000
  H   H1298     1.0  0.36854  0.26535  0.62354  1.0000
  S   S219      1.0  0.35548  0.09121  0.63855  1.0000
  Fe  Fe108     1.0  0.38110  0.08501  0.65620  1.0000
  S   S220      1.0  0.39827  0.11043  0.65308  1.0000
  Fe  Fe109     1.0  0.40678  0.17686  0.75525  1.0000
  S   S221      1.0  0.43066  0.18980  0.76341  1.0000
  S   S222      1.0  0.37438  0.17480  0.77293  1.0000
  Fe  Fe110     1.0  0.43422  0.16777  0.71400  1.0000
  S   S223      1.0  0.46075  0.17951  0.71839  1.0000
  H   H1299     1.0  0.28814  0.02992  0.57796  1.0000
  Fe  Fe111     1.0  0.45336  0.16223  0.75189  1.0000
  Fe  Fe112     1.0  0.43562  0.20584  0.72910  1.0000
  S   S224      1.0  0.43803  0.23981  0.71674  1.0000
  S   S225      1.0  0.42886  0.14813  0.74636  1.0000
  S   S226      1.0  0.40966  0.19518  0.72231  1.0000
  C   C753      1.0  0.25093  0.16274  0.62254  1.0000
  S   S227      1.0  0.39583  0.21676  0.61235  1.0000
  S   S228      1.0  0.40450  0.18008  0.57200  1.0000
  C   C754      1.0  0.37507  0.10671  0.71665  1.0000
  C   C755      1.0  0.42595  0.17267  0.66550  1.0000
  C   C756      1.0  0.40775  0.18765  0.67024  1.0000
  C   C757      1.0  0.39847  0.20141  0.65396  1.0000
  C   C758      1.0  0.40753  0.20029  0.63294  1.0000
  H   H1300     1.0  0.40045  0.18824  0.68639  1.0000
  H   H1301     1.0  0.38421  0.21265  0.65769  1.0000
  C   C759      1.0  0.42540  0.25330  0.69569  1.0000
  C   C760      1.0  0.42258  0.27525  0.69018  1.0000
  C   C761      1.0  0.38084  0.12119  0.74556  1.0000
  C   C762      1.0  0.40362  0.27599  0.66354  1.0000
  C   C763      1.0  0.40736  0.25396  0.66824  1.0000
  C   C764      1.0  0.41808  0.24264  0.68440  1.0000
  Fe  Fe113     1.0  0.27780  0.09497  0.82634  1.0000
  C   C765      1.0  0.37849  0.15372  0.49938  1.0000
  H   H1302     1.0  0.40156  0.24564  0.65971  1.0000
  H   H1303     1.0  0.42086  0.22569  0.68786  1.0000
  C   C766      1.0  0.41472  0.11689  0.62870  1.0000
  C   C767      1.0  0.42339  0.10263  0.61519  1.0000
  C   C768      1.0  0.43640  0.10884  0.59565  1.0000
  C   C769      1.0  0.41911  0.13705  0.62277  1.0000
  H   H1304     1.0  0.42028  0.08685  0.61993  1.0000
  H   H1305     1.0  0.44326  0.09796  0.58516  1.0000
  H   H1306     1.0  0.41251  0.14797  0.63323  1.0000
  H   H1307     1.0  0.26910  0.13098  0.66539  1.0000
  C   C770      1.0  0.40226  0.02583  0.88157  1.0000
  C   C771      1.0  0.43159  0.14327  0.60322  1.0000
  H   H1308     1.0  0.39075  0.13026  0.74927  1.0000
  H   H1309     1.0  0.34662  0.09649  0.73650  1.0000
  H   H1310     1.0  0.24964  0.07543  0.81967  1.0000
  H   H1311     1.0  0.26171  0.24633  0.50611  1.0000
  S   S229      1.0  0.40415  0.22936  0.55174  1.0000
  Fe  Fe114     1.0  0.27740  0.14499  0.52089  1.0000
  H   H1312     1.0  0.37995  0.29212  0.50946  1.0000
  H   H1313     1.0  0.39026  0.04496  0.76271  1.0000
  H   H1314     1.0  0.32810  0.01579  0.76381  1.0000
  C   C772      1.0  0.29999  0.01664  0.60745  1.0000
  H   H1315     1.0  0.42846  0.13648  0.53644  1.0000
  H   H1316     1.0  0.36371  0.24801  0.69700  1.0000
  H   H1317     1.0  0.38203  0.08745  0.58562  1.0000
  C   C773      1.0  0.34170  0.22943  0.80581  1.0000
  C   C774      1.0  0.36313  0.22148  0.80484  1.0000
  C   C775      1.0  0.37348  0.20522  0.79401  1.0000
  C   C776      1.0  0.36228  0.19663  0.78450  1.0000
  C   C777      1.0  0.34089  0.20460  0.78543  1.0000
  C   C778      1.0  0.33059  0.22102  0.79602  1.0000
  H   H1318     1.0  0.37174  0.22797  0.81243  1.0000
  H   H1319     1.0  0.38996  0.19894  0.79358  1.0000
  H   H1320     1.0  0.33221  0.19778  0.77827  1.0000
  H   H1321     1.0  0.31400  0.22685  0.79692  1.0000
  C   C779      1.0  0.28043  0.04842  0.76046  1.0000
  C   C780      1.0  0.28066  0.04345  0.74125  1.0000
  H   H1322     1.0  0.29323  0.04656  0.72795  1.0000
  C   C781      1.0  0.29235  0.17141  0.78174  1.0000
  C   C782      1.0  0.27929  0.20902  0.78004  1.0000
  C   C783      1.0  0.29392  0.19232  0.77235  1.0000
  Fe  Fe115     1.0  0.25707  0.25130  0.80980  1.0000
  H   H1323     1.0  0.30651  0.19558  0.75916  1.0000
  C   C784      1.0  0.46270  0.11217  0.95718  1.0000
  H   H1324     1.0  0.37756  0.10948  0.69917  1.0000
  C   C785      1.0  0.36733  0.26482  0.52375  1.0000
  H   H1325     1.0  0.31813  0.14153  0.88718  1.0000
  C   C786      1.0  0.37332  0.09187  0.87751  1.0000
  C   C787      1.0  0.38858  0.08125  0.86333  1.0000
  C   C788      1.0  0.38264  0.07277  0.84908  1.0000
  C   C789      1.0  0.36144  0.07508  0.84878  1.0000
  C   C790      1.0  0.34619  0.08566  0.86299  1.0000
  C   C791      1.0  0.35213  0.09416  0.87723  1.0000
  H   H1326     1.0  0.40495  0.07947  0.86342  1.0000
  H   H1327     1.0  0.39449  0.06434  0.83829  1.0000
  H   H1328     1.0  0.32981  0.08704  0.86318  1.0000
  S   S230      1.0  0.45068  0.02705  0.75018  1.0000
  H   H1329     1.0  0.26252  0.00423  0.60783  1.0000
  C   C792      1.0  0.30730  0.07213  0.58226  1.0000
  C   C793      1.0  0.32571  0.06391  0.56934  1.0000
  C   C794      1.0  0.34412  0.05584  0.57729  1.0000
  C   C795      1.0  0.34431  0.05673  0.59789  1.0000
  C   C796      1.0  0.32610  0.06564  0.61054  1.0000
  C   C797      1.0  0.30753  0.07298  0.60287  1.0000
  H   H1330     1.0  0.32559  0.06312  0.55345  1.0000
  H   H1331     1.0  0.32617  0.06636  0.62646  1.0000
  H   H1332     1.0  0.29339  0.07903  0.61312  1.0000
  H   H1333     1.0  0.38280  0.31352  0.57705  1.0000
  H   H1334     1.0  0.49216  0.99555  0.85040  1.0000
  C   C798      1.0  0.36776  0.18082  0.52043  1.0000
  H   H1335     1.0  0.25533  0.13932  0.75306  1.0000
  Fe  Fe116     1.0  0.40057  0.20130  0.54120  1.0000
  Fe  Fe117     1.0  0.29111  0.25851  0.55712  1.0000
  H   H1336     1.0  0.32858  0.21992  0.51931  1.0000
  H   H1337     1.0  0.29279  0.23316  0.51193  1.0000
  C   C799      1.0  0.42333  0.04050  0.72326  1.0000
  H   H1338     1.0  0.34029  0.10235  0.88820  1.0000
  H   H1339     1.0  0.26383  0.04805  0.79242  1.0000
  C   C800      1.0  0.26989  0.18912  0.54102  1.0000
  C   C801      1.0  0.48512  0.28847  0.52629  1.0000
  N   N55       1.0  0.32999  0.15613  0.84167  1.0000
  C   C802      1.0  0.25382  0.31112  0.87701  1.0000
  H   H1340     1.0  0.35307  0.00221  0.75093  1.0000
  C   C803      1.0  0.28395  0.01417  0.64482  1.0000
  H   H1341     1.0  0.42431  0.06589  0.56236  1.0000
  H   H1342     1.0  0.46704  0.01581  0.97725  1.0000
  H   H1343     1.0  0.27601  0.29822  0.65865  1.0000
  C   C804      1.0  0.34776  0.17598  0.52649  1.0000
  H   H1344     1.0  0.28699  0.27430  0.64982  1.0000
  H   H1345     1.0  0.42732  0.27410  0.49346  1.0000
  H   H1346     1.0  0.31870  0.18291  0.85708  1.0000
  H   H1347     1.0  0.41291  0.29477  0.54007  1.0000
  H   H1348     1.0  0.37117  0.24743  0.52758  1.0000
  C   C805      1.0  0.26803  0.00125  0.62285  1.0000
  C   C806      1.0  0.43236  0.02345  0.73741  1.0000
  H   H1349     1.0  0.45883  0.07673  0.74258  1.0000
  H   H1350     1.0  0.40887  0.02028  0.97643  1.0000
  C   C807      1.0  0.24678  0.32171  0.69232  1.0000
  C   C808      1.0  0.33962  0.30222  0.61383  1.0000
  Fe  Fe118     1.0  0.44569  0.08074  0.92627  1.0000
  N   N56       1.0  0.37036  0.00850  0.90036  1.0000
  H   H1351     1.0  0.42253  0.17149  0.84295  1.0000
  H   H1352     1.0  0.44165  0.21971  0.64963  1.0000
  H   H1353     1.0  0.49094  0.17911  0.81153  1.0000
  C   C809      1.0  0.39249  0.00984  0.89989  1.0000
  H   H1354     1.0  0.39374  0.01365  0.91469  1.0000
  C   C810      1.0  0.30706  0.26150  0.61525  1.0000
  C   C811      1.0  0.33548  0.27042  0.64036  1.0000
  H   H1355     1.0  0.41221  0.09212  0.73062  1.0000
  H   H1356     1.0  0.33818  0.00920  0.87707  1.0000
  H   H1357     1.0  0.25325  0.00204  0.63487  1.0000
  C   C812      1.0  0.35848  0.14874  0.50565  1.0000
  S   S231      1.0  0.26005  0.17713  0.52610  1.0000
  H   H1358     1.0  0.39761  0.09270  0.76401  1.0000
  H   H1359     1.0  0.29524  0.30970  0.62486  1.0000
  N   N57       1.0  0.39760  0.26876  0.49105  1.0000
  H   H1360     1.0  0.48852  0.25034  0.65352  1.0000
  C   C813      1.0  0.41149  0.28659  0.67435  1.0000
  H   H1361     1.0  0.48381  0.09198  0.78599  1.0000
  C   C814      1.0  0.41096  0.00195  0.73176  1.0000
  C   C815      1.0  0.31451  0.14284  0.85490  1.0000
  H   H1362     1.0  0.44663  0.11368  0.95606  1.0000
  C   C816      1.0  0.38141  0.10029  0.76197  1.0000
  C   C817      1.0  0.33476  0.15234  0.81953  1.0000
  C   C818      1.0  0.26125  0.21011  0.54230  1.0000
  C   C819      1.0  0.49040  0.14284  0.78402  1.0000
  H   H1363     1.0  0.34485  0.11772  0.82692  1.0000
  C   C820      1.0  0.40795  0.03837  0.71359  1.0000
  H   H1364     1.0  0.41851  0.07748  0.58517  1.0000
  C   C821      1.0  0.35523  0.04316  0.91389  1.0000
  C   C822      1.0  0.26744  0.11487  0.66760  1.0000
  H   H1365     1.0  0.24443  0.07525  0.73329  1.0000
  S   S232      1.0  0.30318  0.12642  0.53721  1.0000
  H   H1366     1.0  0.30844  0.18067  0.56849  1.0000
  C   C823      1.0  0.47899  0.10354  0.94233  1.0000
  N   N58       1.0  0.44247  0.12866  0.83859  1.0000
  C   C824      1.0  0.44982  0.11009  0.82777  1.0000
  C   C825      1.0  0.46124  0.13179  0.84498  1.0000
  C   C826      1.0  0.43464  0.14767  0.82278  1.0000
  C   C827      1.0  0.42519  0.12365  0.85716  1.0000
  C   C828      1.0  0.43412  0.10612  0.81661  1.0000
  H   H1367     1.0  0.46434  0.11186  0.81562  1.0000
  C   C829      1.0  0.43247  0.16956  0.82749  1.0000
  C   C830      1.0  0.41788  0.13834  0.87315  1.0000
  H   H1368     1.0  0.48759  0.21332  0.67349  1.0000
  H   H1369     1.0  0.45404  0.09520  0.83913  1.0000
  C   C831      1.0  0.38313  0.16967  0.50673  1.0000
  H   H1370     1.0  0.24804  0.21832  0.53504  1.0000
  H   H1371     1.0  0.44528  0.14780  0.80706  1.0000
  H   H1372     1.0  0.41910  0.14695  0.82038  1.0000
  H   H1373     1.0  0.41095  0.12338  0.85181  1.0000
  H   H1374     1.0  0.42931  0.10732  0.86615  1.0000
  H   H1375     1.0  0.41895  0.10425  0.82731  1.0000
  H   H1376     1.0  0.43152  0.11875  0.80261  1.0000
  H   H1377     1.0  0.44072  0.09124  0.81077  1.0000
  H   H1378     1.0  0.30278  0.20714  0.51101  1.0000
  H   H1379     1.0  0.26085  0.04067  0.60233  1.0000
  S   S233      1.0  0.27370  0.31781  0.53342  1.0000
  H   H1380     1.0  0.42492  0.18167  0.81546  1.0000
  H   H1381     1.0  0.44797  0.17327  0.82610  1.0000
  H   H1382     1.0  0.45805  0.14630  0.85126  1.0000
  H   H1383     1.0  0.40351  0.14999  0.86998  1.0000
  H   H1384     1.0  0.42969  0.14672  0.87400  1.0000
  H   H1385     1.0  0.41402  0.12879  0.88926  1.0000
  H   H1386     1.0  0.47523  0.06765  0.79330  1.0000
  H   H1387     1.0  0.38302  0.07267  0.56681  1.0000
  H   H1388     1.0  0.39649  0.04684  0.78634  1.0000
  C   C832      1.0  0.48715  0.07955  0.75102  1.0000
  H   H1389     1.0  0.29703  0.16223  0.87844  1.0000
  C   C833      1.0  0.49031  0.00584  0.86166  1.0000
  H   H1390     1.0  0.26082  0.05729  0.67649  1.0000
  S   S234      1.0  0.35346  0.12781  0.49700  1.0000
  H   H1391     1.0  0.36828  0.16561  0.82169  1.0000
  H   H1392     1.0  0.34000  0.02879  0.89871  1.0000
  C   C834      1.0  0.32023  0.27874  0.60799  1.0000
  C   C835      1.0  0.24785  0.13351  0.71610  1.0000
  Fe  Fe119     1.0  0.27778  0.30196  0.56617  1.0000
  H   H1393     1.0  0.41610  0.06763  0.53269  1.0000
  H   H1394     1.0  0.34079  0.02747  0.73856  1.0000
  C   C836      1.0  0.48947  0.07465  0.78760  1.0000
  H   H1395     1.0  0.25432  0.14735  0.71583  1.0000
  C   C837      1.0  0.26771  0.10405  0.73811  1.0000
  H   H1396     1.0  0.27058  0.30679  0.71064  1.0000
  N   N59       1.0  0.32482  0.28735  0.62470  1.0000
  H   H1397     1.0  0.47762  0.01947  0.85787  1.0000
  C   C838      1.0  0.28700  0.11434  0.73318  1.0000
  S   S235      1.0  0.45508  0.24619  0.51858  1.0000
  C   C839      1.0  0.24688  0.16039  0.60169  1.0000
  H   H1398     1.0  0.26560  0.12203  0.62409  1.0000
  H   H1399     1.0  0.26731  0.09333  0.75383  1.0000
  H   H1400     1.0  0.27134  0.09367  0.72652  1.0000
  H   H1401     1.0  0.29337  0.16234  0.55029  1.0000
  H   H1402     1.0  0.31112  0.25170  0.60313  1.0000
  C   C840      1.0  0.36714  0.16194  0.83890  1.0000
  H   H1403     1.0  0.29451  0.00130  0.58433  1.0000
  H   H1404     1.0  0.47986  0.03852  0.87962  1.0000
  H   H1405     1.0  0.34562  0.15320  0.86713  1.0000
  H   H1406     1.0  0.30133  0.10177  0.73201  1.0000
  H   H1407     1.0  0.28837  0.12559  0.71785  1.0000
  H   H1408     1.0  0.28738  0.12208  0.74579  1.0000
  S   S236      1.0  0.32915  0.30697  0.49694  1.0000
  H   H1409     1.0  0.47758  0.09914  0.85518  1.0000
  H   H1410     1.0  0.25062  0.03616  0.50093  1.0000
  C   C841      1.0  0.48504  0.16191  0.79096  1.0000
  H   H1411     1.0  0.40251  0.02171  0.77943  1.0000
  H   H1412     1.0  0.40465  0.28756  0.59844  1.0000
  C   C842      1.0  0.24870  0.02986  0.75632  1.0000
  S   S237      1.0  0.38109  0.01645  0.70757  1.0000
  H   H1413     1.0  0.38719  0.99869  0.77074  1.0000
  N   N60       1.0  0.35930  0.26104  0.73649  1.0000
  C   C843      1.0  0.26593  0.03913  0.61731  1.0000
  C   C844      1.0  0.37849  0.24584  0.74282  1.0000
  C   C845      1.0  0.36530  0.27812  0.71802  1.0000
  C   C846      1.0  0.38944  0.25210  0.75727  1.0000
  C   C847      1.0  0.37447  0.29529  0.72205  1.0000
  H   H1414     1.0  0.35384  0.27767  0.76210  1.0000
  N   N61       1.0  0.27950  0.01777  0.62313  1.0000
  H   H1415     1.0  0.37460  0.23028  0.75129  1.0000
  H   H1416     1.0  0.39059  0.24262  0.72869  1.0000
  H   H1417     1.0  0.38500  0.30169  0.54348  1.0000
  H   H1418     1.0  0.40408  0.24028  0.75907  1.0000
  H   H1419     1.0  0.37971  0.25193  0.77329  1.0000
  H   H1420     1.0  0.39394  0.26755  0.75090  1.0000
  H   H1421     1.0  0.39154  0.29035  0.72126  1.0000
  H   H1422     1.0  0.36677  0.30063  0.73693  1.0000
  H   H1423     1.0  0.46153  0.24081  0.56127  1.0000
  H   H1424     1.0  0.39651  0.28153  0.56273  1.0000
  H   H1425     1.0  0.36731  0.17087  0.69905  1.0000
  C   C848      1.0  0.47539  0.27728  0.51767  1.0000
  C   C849      1.0  0.39820  0.29687  0.55195  1.0000
  H   H1426     1.0  0.37224  0.22502  0.71620  1.0000
  C   C850      1.0  0.48795  0.11759  0.97494  1.0000
  C   C851      1.0  0.41074  0.11211  0.55305  1.0000
  H   H1427     1.0  0.40938  0.11548  0.56883  1.0000
  C   C852      1.0  0.47615  0.19171  0.65170  1.0000
  H   H1428     1.0  0.39624  0.04196  0.88444  1.0000
  S   S238      1.0  0.34309  0.04671  0.66783  1.0000
  H   H1429     1.0  0.30690  0.03047  0.60598  1.0000
  H   H1430     1.0  0.37057  0.04660  0.91326  1.0000
  H   H1431     1.0  0.26400  0.23727  0.55225  1.0000
  H   H1432     1.0  0.35756  0.15856  0.72524  1.0000
  S   S239      1.0  0.30938  0.28223  0.55682  1.0000
  H   H1433     1.0  0.45450  0.12668  0.98426  1.0000
  N   N62       1.0  0.24682  0.11891  0.73739  1.0000
  H   H1434     1.0  0.36485  0.13065  0.74904  1.0000
  S   S240      1.0  0.36734  0.04668  0.60767  1.0000
  H   H1435     1.0  0.39454  0.23584  0.50213  1.0000
  C   C853      1.0  0.27020  0.22079  0.55213  1.0000
  H   H1436     1.0  0.35335  0.24821  0.61968  1.0000
  H   H1437     1.0  0.34285  0.11331  0.71214  1.0000
  H   H1438     1.0  0.48222  0.07159  0.88727  1.0000
  Fe  Fe120     1.0  0.43355  0.04120  0.92186  1.0000
  H   H1439     1.0  0.29292  0.12429  0.58006  1.0000
  H   H1440     1.0  0.41704  0.24130  0.50636  1.0000
  C   C854      1.0  0.28669  0.17848  0.55085  1.0000
  H   H1441     1.0  0.41389  0.00921  0.94701  1.0000
  C   C855      1.0  0.26118  0.18394  0.80618  1.0000
  S   S241      1.0  0.30413  0.10983  0.82612  1.0000
  S   S242      1.0  0.45290  0.13926  0.56399  1.0000
  H   H1442     1.0  0.30242  0.18622  0.81674  1.0000
  S   S243      1.0  0.27764  0.10681  0.79193  1.0000
  C   C856      1.0  0.28368  0.09828  0.67306  1.0000
  C   C857      1.0  0.26411  0.04437  0.77753  1.0000
  H   H1443     1.0  0.31015  0.25034  0.62988  1.0000
  H   H1444     1.0  0.29572  0.02718  0.66516  1.0000
  C   C858      1.0  0.48107  0.05794  0.97758  1.0000
  S   S244      1.0  0.27007  0.24577  0.83882  1.0000
  C   C859      1.0  0.34367  0.01766  0.75402  1.0000
  S   S245      1.0  0.26157  0.11789  0.52650  1.0000
  H   H1445     1.0  0.46298  0.18797  0.66494  1.0000
  H   H1446     1.0  0.34085  0.25664  0.76802  1.0000
  H   H1447     1.0  0.26770  0.10723  0.60531  1.0000
  H   H1448     1.0  0.33290  0.25930  0.72428  1.0000
  C   C860      1.0  0.41032  0.10775  0.71980  1.0000
  C   C861      1.0  0.33856  0.01618  0.79951  1.0000
  H   H1449     1.0  0.44899  0.16017  0.64074  1.0000
  H   H1450     1.0  0.34454  0.05856  0.91020  1.0000
  C   C862      1.0  0.41948  0.99344  0.94439  1.0000
  H   H1451     1.0  0.42163  0.11735  0.68526  1.0000
  H   H1452     1.0  0.29412  0.99844  0.64878  1.0000
  C   C863      1.0  0.30447  0.22317  0.50197  1.0000
  H   H1453     1.0  0.28867  0.14568  0.59343  1.0000
  S   S246      1.0  0.30910  0.09064  0.50977  1.0000
  H   H1454     1.0  0.42591  0.10098  0.55016  1.0000
  H   H1455     1.0  0.46650  0.05636  0.76395  1.0000
  H   H1456     1.0  0.37594  0.00848  0.86702  1.0000
  H   H1457     1.0  0.38078  0.08965  0.53293  1.0000
  H   H1458     1.0  0.33881  0.12493  0.56387  1.0000
  C   C864      1.0  0.47068  0.11372  0.86142  1.0000
  H   H1459     1.0  0.43699  0.09438  0.69789  1.0000
  H   H1460     1.0  0.46736  0.06360  0.96987  1.0000
  H   H1461     1.0  0.45111  0.29076  0.59121  1.0000
  H   H1462     1.0  0.43231  0.32248  0.52307  1.0000
  H   H1463     1.0  0.40096  0.05163  0.70282  1.0000
  H   H1464     1.0  0.34999  0.09833  0.57404  1.0000
  H   H1465     1.0  0.38095  0.08948  0.72172  1.0000
  H   H1466     1.0  0.36112  0.03948  0.88168  1.0000
  H   H1467     1.0  0.42019  0.11679  0.72365  1.0000
  H   H1468     1.0  0.49276  0.16706  0.90854  1.0000
  H   H1469     1.0  0.26337  0.14435  0.56689  1.0000
  H   H1470     1.0  0.33573  0.18466  0.53687  1.0000
  C   C865      1.0  0.28825  0.12887  0.59553  1.0000
  H   H1471     1.0  0.42818  0.05541  0.71985  1.0000
  Fe  Fe121     1.0  0.30411  0.29622  0.52404  1.0000
  Fe  Fe122     1.0  0.41073  0.06301  0.95805  1.0000
  H   H1472     1.0  0.48297  0.13794  0.89939  1.0000
  H   H1473     1.0  0.36513  0.17686  0.84425  1.0000
  H   H1474     1.0  0.37252  0.10361  0.77753  1.0000
  C   C866      1.0  0.28136  0.07746  0.67619  1.0000
  C   C867      1.0  0.34691  0.24880  0.72984  1.0000
  H   H1475     1.0  0.35196  0.28615  0.71004  1.0000
  H   H1476     1.0  0.37416  0.08904  0.75803  1.0000
  C   C868      1.0  0.41389  0.08372  0.52294  1.0000
  N   N63       1.0  0.24804  0.13818  0.59962  1.0000
  N   N64       1.0  0.39257  0.10269  0.55315  1.0000
  H   H1477     1.0  0.41272  0.08211  0.50719  1.0000
  S   S247      1.0  0.24696  0.10184  0.84806  1.0000
  H   H1478     1.0  0.32513  0.25957  0.65004  1.0000
  S   S248      1.0  0.38852  0.29014  0.64469  1.0000
  C   C869      1.0  0.26276  0.20484  0.79684  1.0000
  H   H1479     1.0  0.34997  0.12966  0.79960  1.0000
  N   N65       1.0  0.34574  0.17346  0.61430  1.0000
  C   C870      1.0  0.34794  0.18591  0.59189  1.0000
  C   C871      1.0  0.34935  0.15057  0.61322  1.0000
  C   C872      1.0  0.36263  0.17657  0.62370  1.0000
  C   C873      1.0  0.32423  0.18151  0.62633  1.0000
  C   C874      1.0  0.34868  0.20936  0.58867  1.0000
  C   C875      1.0  0.33440  0.14520  0.60219  1.0000
  C   C876      1.0  0.36348  0.16501  0.64654  1.0000
  C   C877      1.0  0.31515  0.16633  0.64624  1.0000
  H   H1480     1.0  0.36213  0.17859  0.58160  1.0000
  H   H1481     1.0  0.33471  0.18576  0.58484  1.0000
  H   H1482     1.0  0.34836  0.14006  0.62893  1.0000
  H   H1483     1.0  0.36565  0.14523  0.60485  1.0000
  H   H1484     1.0  0.37834  0.17179  0.61393  1.0000
  H   H1485     1.0  0.36100  0.19344  0.62390  1.0000
  H   H1486     1.0  0.32396  0.19639  0.63103  1.0000
  H   H1487     1.0  0.31258  0.18581  0.61594  1.0000
  H   H1488     1.0  0.36390  0.21137  0.59057  1.0000
  H   H1489     1.0  0.34720  0.21725  0.57223  1.0000
  H   H1490     1.0  0.33565  0.21760  0.59927  1.0000
  H   H1491     1.0  0.33797  0.15120  0.58494  1.0000
  H   H1492     1.0  0.33651  0.12782  0.60476  1.0000
  H   H1493     1.0  0.31779  0.15145  0.60850  1.0000
  H   H1494     1.0  0.37757  0.16743  0.65066  1.0000
  H   H1495     1.0  0.36511  0.14778  0.64886  1.0000
  H   H1496     1.0  0.34983  0.17165  0.65777  1.0000
  H   H1497     1.0  0.30625  0.17556  0.65843  1.0000
  H   H1498     1.0  0.32669  0.15374  0.65370  1.0000
  H   H1499     1.0  0.30353  0.15910  0.64284  1.0000
  C   C878      1.0  0.24951  0.13817  0.57686  1.0000
  C   C879      1.0  0.45514  0.22572  0.63834  1.0000
  S   S249      1.0  0.28897  0.27039  0.52320  1.0000
  H   H1500     1.0  0.48420  0.09705  0.74880  1.0000
  H   H1501     1.0  0.33928  0.27762  0.65190  1.0000
  C   C880      1.0  0.39695  0.31393  0.56419  1.0000
  H   H1502     1.0  0.49077  0.23866  0.62358  1.0000
  C   C881      1.0  0.33700  0.01366  0.82334  1.0000
  H   H1503     1.0  0.34875  0.03559  0.93014  1.0000
  H   H1504     1.0  0.34451  0.12442  0.73286  1.0000
  C   C882      1.0  0.46696  0.25994  0.53014  1.0000
  C   C883      1.0  0.39358  0.09774  0.53213  1.0000
  C   C884      1.0  0.35111  0.11072  0.72528  1.0000
  C   C885      1.0  0.34553  0.26969  0.75511  1.0000
  C   C886      1.0  0.35204  0.11171  0.56060  1.0000
  C   C887      1.0  0.32109  0.17916  0.84129  1.0000
  H   H1505     1.0  0.33478  0.27302  0.59706  1.0000
  C   C888      1.0  0.27597  0.16724  0.79871  1.0000
  Fe  Fe123     1.0  0.43844  0.22011  0.53867  1.0000
  H   H1506     1.0  0.39294  0.13967  0.69206  1.0000
  Fe  Fe124     1.0  0.46122  0.00093  0.77639  1.0000
  H   H1507     1.0  0.33244  0.18880  0.83107  1.0000
  H   H1508     1.0  0.40925  0.05447  0.58651  1.0000
  C   C889      1.0  0.26474  0.03442  0.73910  1.0000
  S   S250      1.0  0.37209  0.20247  0.52832  1.0000
  H   H1509     1.0  0.43964  0.26936  0.60767  1.0000
  H   H1510     1.0  0.29373  0.06458  0.68085  1.0000
  H   H1511     1.0  0.29451  0.13538  0.88548  1.0000
  C   C890      1.0  0.35639  0.03001  0.89766  1.0000
  H   H1512     1.0  0.27466  0.15116  0.80609  1.0000
  H   H1513     1.0  0.43335  0.18539  0.61230  1.0000
  C   C891      1.0  0.42062  0.10298  0.69772  1.0000
  N   N66       1.0  0.35945  0.01859  0.78524  1.0000
  C   C892      1.0  0.35548  0.02891  0.76340  1.0000
  C   C893      1.0  0.36909  0.03315  0.79207  1.0000
  Fe  Fe125     1.0  0.32057  0.12084  0.50567  1.0000
  H   H1514     1.0  0.47407  0.28235  0.50133  1.0000
  H   H1515     1.0  0.37233  0.12426  0.57241  1.0000
  C   C894      1.0  0.39079  0.03666  0.77916  1.0000
  H   H1516     1.0  0.43048  0.29469  0.61402  1.0000
  H   H1517     1.0  0.47392  0.13414  0.83096  1.0000
  H   H1518     1.0  0.34644  0.04536  0.76302  1.0000
  H   H1519     1.0  0.37035  0.03026  0.75187  1.0000
  H   H1520     1.0  0.39097  0.11244  0.52013  1.0000
  H   H1521     1.0  0.35847  0.04886  0.79166  1.0000
  H   H1522     1.0  0.25064  0.32157  0.63352  1.0000
  H   H1523     1.0  0.39722  0.14916  0.71280  1.0000
  H   H1524     1.0  0.37180  0.30959  0.70961  1.0000
  H   H1525     1.0  0.34136  0.16521  0.80804  1.0000
  H   H1526     1.0  0.35489  0.14939  0.70279  1.0000
  S   S251      1.0  0.25983  0.27698  0.56949  1.0000
  C   C895      1.0  0.43996  0.12946  0.58947  1.0000
  H   H1527     1.0  0.31469  0.01628  0.57477  1.0000
  H   H1528     1.0  0.42780  0.09067  0.52054  1.0000
  H   H1529     1.0  0.36130  0.27008  0.53898  1.0000
  H   H1530     1.0  0.30026  0.11946  0.60477  1.0000
  H   H1531     1.0  0.47417  0.24813  0.67985  1.0000
  H   H1532     1.0  0.28666  0.04671  0.64408  1.0000
  S   S252      1.0  0.44594  0.19953  0.56900  1.0000
  C   C896      1.0  0.30049  0.18787  0.83319  1.0000
  C   C897      1.0  0.32536  0.28546  0.75084  1.0000
  C   C898      1.0  0.29103  0.28737  0.65413  1.0000
  H   H1533     1.0  0.37722  0.27117  0.70556  1.0000
  C   C899      1.0  0.24660  0.09005  0.66810  1.0000
  H   H1534     1.0  0.26671  0.30389  0.86618  1.0000
  H   H1535     1.0  0.32158  0.00984  0.83184  1.0000
  H   H1536     1.0  0.41269  0.09258  0.69330  1.0000
  H   H1537     1.0  0.31157  0.29157  0.59746  1.0000
  S   S253      1.0  0.36093  0.07694  0.68785  1.0000
  H   H1538     1.0  0.46406  0.23319  0.60383  1.0000
  Fe  Fe126     1.0  0.41127  0.20715  0.58123  1.0000
  C   C900      1.0  0.42595  0.18576  0.62837  1.0000
  C   C901      1.0  0.43498  0.17176  0.64454  1.0000
  H   H1539     1.0  0.31402  0.27803  0.74737  1.0000
  Fe  Fe127     1.0  0.37059  0.04393  0.68258  1.0000
  C   C902      1.0  0.47410  0.22212  0.66604  1.0000
  H   H1540     1.0  0.38560  0.99507  0.81314  1.0000
  S   S254      1.0  0.39302  0.05169  0.65214  1.0000
  H   H1541     1.0  0.43474  0.15889  0.59852  1.0000
  C   C903      1.0  0.38626  0.27490  0.51172  1.0000
  H   H1542     1.0  0.37096  0.02769  0.80864  1.0000
  N   N67       1.0  0.41597  0.31204  0.57306  1.0000
  C   C904      1.0  0.46719  0.11949  0.97318  1.0000
  Fe  Fe128     1.0  0.43862  0.17386  0.55751  1.0000
  H   H1543     1.0  0.47278  0.17431  0.78532  1.0000
  C   C905      1.0  0.34277  0.32320  0.50292  1.0000
  C   C906      1.0  0.24851  0.03480  0.77555  1.0000
  C   C907      1.0  0.47422  0.24560  0.66407  1.0000
  C   C908      1.0  0.29522  0.18892  0.56128  1.0000
  Fe  Fe129     1.0  0.36498  0.05693  0.63770  1.0000
  S   S255      1.0  0.30035  0.22419  0.57114  1.0000
  H   H1544     1.0  0.42429  0.27785  0.57801  1.0000
  H   H1545     1.0  0.45996  0.21841  0.67791  1.0000
  H   H1546     1.0  0.37247  0.13315  0.54509  1.0000
  C   C909      1.0  0.48618  0.28260  0.54763  1.0000
  C   C910      1.0  0.41220  0.06966  0.57611  1.0000
  H   H1547     1.0  0.32592  0.24388  0.50002  1.0000
  S   S256      1.0  0.30597  0.10424  0.67721  1.0000
  C   C911      1.0  0.38688  0.14069  0.70887  1.0000
  C   C912      1.0  0.41324  0.13269  0.53687  1.0000
  Fe  Fe130     1.0  0.33584  0.08085  0.66999  1.0000
  H   H1548     1.0  0.32017  0.15266  0.81443  1.0000
  C   C913      1.0  0.28748  0.21031  0.56125  1.0000
  C   C914      1.0  0.29502  0.03024  0.64825  1.0000
  C   C915      1.0  0.46805  0.25406  0.55147  1.0000
  Fe  Fe131     1.0  0.25886  0.29061  0.53554  1.0000
  S   S257      1.0  0.29779  0.06317  0.82278  1.0000
  H   H1549     1.0  0.28056  0.22512  0.77270  1.0000
  Fe  Fe132     1.0  0.28924  0.09882  0.54016  1.0000
  C   C916      1.0  0.36524  0.15540  0.70937  1.0000
  H   H1550     1.0  0.27481  0.05183  0.61410  1.0000
  H   H1551     1.0  0.34795  0.22865  0.70861  1.0000
  H   H1552     1.0  0.33339  0.00242  0.79743  1.0000
  S   S258      1.0  0.43795  0.15504  0.68529  1.0000
  H   H1553     1.0  0.29585  0.20497  0.83312  1.0000
  C   C917      1.0  0.33065  0.32268  0.59931  1.0000
  C   C918      1.0  0.39140  0.08324  0.57046  1.0000
  H   H1554     1.0  0.29010  0.26865  0.61694  1.0000
  C   C919      1.0  0.35584  0.25645  0.63100  1.0000
  S   S259      1.0  0.46224  0.01166  0.80514  1.0000
  C   C920      1.0  0.35865  0.23709  0.71186  1.0000
  H   H1555     1.0  0.40105  0.14619  0.54146  1.0000
  S   S260      1.0  0.43434  0.19361  0.52572  1.0000
  H   H1556     1.0  0.47814  0.26096  0.57668  1.0000
  H   H1557     1.0  0.35822  0.04892  0.56748  1.0000
  H   H1558     1.0  0.34087  0.23688  0.74349  1.0000
  S   S261      1.0  0.44447  0.04907  0.94728  1.0000
  C   C921      1.0  0.40159  0.01911  0.71797  1.0000
  S   S262      1.0  0.39945  0.05254  0.93435  1.0000
  C   C922      1.0  0.24592  0.04495  0.63358  1.0000
  C   C923      1.0  0.37284  0.11885  0.55784  1.0000
  S   S263      1.0  0.41260  0.09539  0.93866  1.0000
  H   H1559     1.0  0.31141  0.02857  0.63932  1.0000
  Fe  Fe133     1.0  0.25233  0.27835  0.84158  1.0000
  H   H1560     1.0  0.25212  0.12186  0.57429  1.0000
  C   C924      1.0  0.32571  0.22686  0.50316  1.0000
  C   C925      1.0  0.46556  0.07331  0.75690  1.0000
  C   C926      1.0  0.26685  0.12343  0.60701  1.0000
  H   H1561     1.0  0.46013  0.25638  0.65915  1.0000
  C   C927      1.0  0.34980  0.13158  0.81564  1.0000
  H   H1562     1.0  0.26756  0.15691  0.62381  1.0000
  C   C928      1.0  0.43623  0.28639  0.60065  1.0000
  H   H1563     1.0  0.43785  0.22971  0.61381  1.0000
  H   H1564     1.0  0.32859  0.29907  0.73803  1.0000
  H   H1565     1.0  0.36160  0.24412  0.64393  1.0000
  C   C929      1.0  0.37370  0.99743  0.78414  1.0000
  H   H1566     1.0  0.32620  0.03014  0.79520  1.0000
  H   H1567     1.0  0.38235  0.15176  0.84155  1.0000
  H   H1568     1.0  0.26495  0.06698  0.50086  1.0000
  H   H1569     1.0  0.32163  0.12589  0.85590  1.0000
  H   H1570     1.0  0.48371  0.11833  0.86545  1.0000
  C   C930      1.0  0.34313  0.16011  0.51916  1.0000
  H   H1571     1.0  0.24967  0.04686  0.64805  1.0000
  H   H1572     1.0  0.41942  0.02249  0.88064  1.0000
  H   H1573     1.0  0.35371  0.29436  0.60386  1.0000
  H   H1574     1.0  0.26516  0.03058  0.72425  1.0000
  H   H1575     1.0  0.39737  0.27134  0.52255  1.0000
  C   C931      1.0  0.34936  0.15012  0.85093  1.0000
  C   C932      1.0  0.29892  0.01597  0.58494  1.0000
  C   C933      1.0  0.26269  0.07334  0.67387  1.0000
  C   C934      1.0  0.30522  0.29978  0.63606  1.0000
  H   H1576     1.0  0.36608  0.13174  0.81612  1.0000
  H   H1577     1.0  0.39991  0.02511  0.86605  1.0000
  H   H1578     1.0  0.31203  0.00299  0.61292  1.0000
  H   H1579     1.0  0.49109  0.30213  0.51661  1.0000
  H   H1580     1.0  0.32895  0.31831  0.53597  1.0000
  C   C935      1.0  0.41946  0.29053  0.58728  1.0000
  H   H1581     1.0  0.30084  0.14539  0.84741  1.0000
  H   H1582     1.0  0.32759  0.15687  0.52388  1.0000
  H   H1583     1.0  0.28746  0.18051  0.84336  1.0000
  S   S264      1.0  0.47672  0.13710  0.76775  1.0000
  H   H1584     1.0  0.40911  0.30353  0.67053  1.0000
  H   H1585     1.0  0.44778  0.31731  0.56258  1.0000
  H   H1586     1.0  0.40318  0.99438  0.89904  1.0000
  C   C936      1.0  0.24884  0.11076  0.66548  1.0000
  H   H1587     1.0  0.33894  0.21862  0.49274  1.0000
  H   H1588     1.0  0.26936  0.01364  0.65698  1.0000
  H   H1589     1.0  0.35580  0.13292  0.85315  1.0000
  H   H1590     1.0  0.44221  0.29859  0.55126  1.0000
  N   N68       1.0  0.47524  0.21516  0.64593  1.0000
  H   H1591     1.0  0.33760  0.02861  0.82722  1.0000
  H   H1592     1.0  0.32544  0.31958  0.58616  1.0000
  H   H1593     1.0  0.30936  0.31101  0.64332  1.0000
  S   S265      1.0  0.27358  0.31822  0.59241  1.0000
  H   H1594     1.0  0.45841  0.20709  0.61417  1.0000
  H   H1595     1.0  0.45449  0.08265  0.76808  1.0000
  C   C937      1.0  0.47753  0.26542  0.56016  1.0000
  C   C938      1.0  0.36219  0.99548  0.92136  1.0000
  H   H1596     1.0  0.34550  0.30701  0.62567  1.0000
  H   H1597     1.0  0.25801  0.16828  0.58872  1.0000
  H   H1598     1.0  0.45915  0.11053  0.87628  1.0000
  H   H1599     1.0  0.40559  0.30947  0.49466  1.0000
  C   C939      1.0  0.45415  0.22355  0.61629  1.0000
  C   C940      1.0  0.42625  0.00412  0.74153  1.0000
  H   H1600     1.0  0.45160  0.24290  0.63767  1.0000
  H   H1601     1.0  0.48935  0.04957  0.90705  1.0000
  Fe  Fe134     1.0  0.28173  0.11142  0.49578  1.0000
  H   H1602     1.0  0.49023  0.06829  0.82094  1.0000
  H   H1603     1.0  0.25906  0.12557  0.70394  1.0000
  C   C941      1.0  0.26695  0.31760  0.69643  1.0000
  H   H1604     1.0  0.39850  0.17354  0.50153  1.0000
  H   H1605     1.0  0.47354  0.18560  0.63891  1.0000
  H   H1606     1.0  0.31463  0.18289  0.49214  1.0000
  H   H1607     1.0  0.48719  0.07207  0.97667  1.0000
  S   S266      1.0  0.34134  0.32235  0.67685  1.0000
  Fe  Fe135     1.0  0.37085  0.32139  0.65233  1.0000
  C   C942      1.0  0.40663  0.24543  0.49479  1.0000
  H   H1608     1.0  0.34912  0.00091  0.82962  1.0000
  H   H1609     1.0  0.36612  0.24915  0.49102  1.0000
  H   H1610     1.0  0.36429  0.00168  0.93445  1.0000
  H   H1611     1.0  0.24872  0.18065  0.81944  1.0000
  C   C943      1.0  0.37050  0.99856  0.88250  1.0000
  C   C944      1.0  0.34937  0.99434  0.88138  1.0000
  H   H1612     1.0  0.34504  0.99655  0.92376  1.0000
  H   H1613     1.0  0.48539  0.99659  0.87762  1.0000
  H   H1614     1.0  0.24435  0.23767  0.49563  1.0000
  H   H1615     1.0  0.35426  0.27014  0.51524  1.0000
  H   H1616     1.0  0.27444  0.21016  0.49447  1.0000
  C   C945      1.0  0.25958  0.24277  0.49164  1.0000
  H   H1617     1.0  0.39857  0.32500  0.60030  1.0000
  S   S267      1.0  0.26152  0.32544  0.77010  1.0000
  H   H1618     1.0  0.29766  0.32501  0.68572  1.0000
  H   H1619     1.0  0.24422  0.24508  0.75544  1.0000
  S   S268      1.0  0.24342  0.22548  0.80570  1.0000
  H   H1620     1.0  0.24382  0.26850  0.73482  1.0000
  C   C946      1.0  0.34014  0.32567  0.52360  1.0000
  H   H1621     1.0  0.44060  0.08068  0.98984  1.0000
  Fe  Fe136     1.0  0.46768  0.50102  0.28499  1.0000
  H   H1622     1.0  0.25513  0.58496  0.10009  1.0000
  S   S269      1.0  0.45234  0.53074  0.26541  1.0000
  C   C947      1.0  0.24371  0.57499  0.26425  1.0000
  S   S270      1.0  0.44954  0.47885  0.36357  1.0000
  S   S271      1.0  0.45044  0.47617  0.30552  1.0000
  Fe  Fe137     1.0  0.37070  0.53779  0.14464  1.0000
  S   S272      1.0  0.37375  0.57128  0.13106  1.0000
  S   S273      1.0  0.35806  0.51724  0.13092  1.0000
  Fe  Fe138     1.0  0.38800  0.53601  0.18348  1.0000
  S   S274      1.0  0.39179  0.56965  0.17346  1.0000
  S   S275      1.0  0.39728  0.51193  0.21146  1.0000
  Fe  Fe139     1.0  0.36055  0.57583  0.16423  1.0000
  S   S276      1.0  0.33491  0.60384  0.16976  1.0000
  Fe  Fe140     1.0  0.40449  0.56183  0.14145  1.0000
  S   S277      1.0  0.43595  0.56635  0.12222  1.0000
  S   S278      1.0  0.35564  0.54288  0.17727  1.0000
  S   S279      1.0  0.40270  0.52774  0.15210  1.0000
  H   H1623     1.0  0.43373  0.34313  0.39416  1.0000
  S   S280      1.0  0.45353  0.57307  0.39598  1.0000
  S   S281      1.0  0.30481  0.59739  0.32539  1.0000
  Fe  Fe141     1.0  0.45006  0.54328  0.41972  1.0000
  S   S282      1.0  0.46892  0.51143  0.41486  1.0000
  H   H1624     1.0  0.29482  0.52608  0.28027  1.0000
  S   S283      1.0  0.47651  0.60449  0.42231  1.0000
  Fe  Fe142     1.0  0.45125  0.36938  0.47562  1.0000
  S   S284      1.0  0.42660  0.35761  0.46749  1.0000
  H   H1625     1.0  0.33467  0.52201  0.43920  1.0000
  Fe  Fe143     1.0  0.42530  0.41349  0.47557  1.0000
  S   S285      1.0  0.39803  0.40569  0.46785  1.0000
  H   H1626     1.0  0.24757  0.39820  0.11611  1.0000
  C   C948      1.0  0.29080  0.52996  0.26491  1.0000
  Fe  Fe144     1.0  0.42255  0.38882  0.44485  1.0000
  S   S286      1.0  0.42122  0.39314  0.41082  1.0000
  S   S287      1.0  0.44938  0.39885  0.45099  1.0000
  Fe  Fe145     1.0  0.31682  0.56737  0.27950  1.0000
  S   S288      1.0  0.32266  0.55223  0.25156  1.0000
  Fe  Fe146     1.0  0.31568  0.60900  0.29081  1.0000
  H   H1627     1.0  0.30614  0.63601  0.35480  1.0000
  Fe  Fe147     1.0  0.32856  0.56801  0.32046  1.0000
  S   S289      1.0  0.34926  0.54958  0.34362  1.0000
  S   S290      1.0  0.34124  0.58071  0.28651  1.0000
  C   C949      1.0  0.28035  0.53960  0.22515  1.0000
  S   S291      1.0  0.24959  0.58448  0.32899  1.0000
  H   H1628     1.0  0.35629  0.59246  0.33123  1.0000
  H   H1629     1.0  0.36666  0.47169  0.16575  1.0000
  S   S292      1.0  0.40017  0.59753  0.37722  1.0000
  C   C950      1.0  0.49133  0.63987  0.37457  1.0000
  S   S293      1.0  0.32392  0.60863  0.04547  1.0000
  S   S294      1.0  0.29873  0.64250  0.01046  1.0000
  S   S295      1.0  0.33143  0.54880  0.04208  1.0000
  H   H1630     1.0  0.42579  0.55843  0.23812  1.0000
  C   C951      1.0  0.47962  0.37105  0.36856  1.0000
  H   H1631     1.0  0.28566  0.64085  0.30940  1.0000
  C   C952      1.0  0.33991  0.64027  0.37957  1.0000
  C   C953      1.0  0.41274  0.57301  0.30628  1.0000
  H   H1632     1.0  0.46507  0.58823  0.32265  1.0000
  H   H1633     1.0  0.42757  0.61346  0.16265  1.0000
  C   C954      1.0  0.44082  0.35133  0.37837  1.0000
  H   H1634     1.0  0.30667  0.63696  0.38994  1.0000
  Fe  Fe148     1.0  0.45174  0.58671  0.42395  1.0000
  H   H1635     1.0  0.27640  0.54338  0.20978  1.0000
  H   H1636     1.0  0.34886  0.45565  0.18221  1.0000
  H   H1637     1.0  0.28616  0.51861  0.13748  1.0000
  C   C955      1.0  0.35827  0.63661  0.19349  1.0000
  C   C956      1.0  0.35723  0.63712  0.23074  1.0000
  C   C957      1.0  0.47398  0.36207  0.33680  1.0000
  S   S296      1.0  0.41692  0.59765  0.42913  1.0000
  H   H1638     1.0  0.39957  0.51904  0.39915  1.0000
  N   N69       1.0  0.27304  0.55311  0.10009  1.0000
  C   C958      1.0  0.38728  0.61475  0.21067  1.0000
  H   H1639     1.0  0.26398  0.57107  0.07078  1.0000
  C   C959      1.0  0.32871  0.61176  0.22435  1.0000
  C   C960      1.0  0.30139  0.54325  0.24835  1.0000
  S   S297      1.0  0.42296  0.44491  0.48315  1.0000
  C   C961      1.0  0.33844  0.62063  0.10890  1.0000
  H   H1640     1.0  0.47089  0.57850  0.48247  1.0000
  H   H1641     1.0  0.49282  0.55831  0.15097  1.0000
  C   C962      1.0  0.43194  0.62961  0.10283  1.0000
  C   C963      1.0  0.45107  0.63060  0.08858  1.0000
  H   H1642     1.0  0.44441  0.51254  0.45655  1.0000
  H   H1643     1.0  0.35831  0.59496  0.20996  1.0000
  H   H1644     1.0  0.25991  0.57084  0.12489  1.0000
  C   C964      1.0  0.38510  0.58422  0.36898  1.0000
  C   C965      1.0  0.38328  0.56349  0.37847  1.0000
  C   C966      1.0  0.37208  0.55304  0.37068  1.0000
  C   C967      1.0  0.36216  0.56348  0.35373  1.0000
  C   C968      1.0  0.36360  0.58438  0.34452  1.0000
  C   C969      1.0  0.37540  0.59451  0.35189  1.0000
  H   H1645     1.0  0.39081  0.55552  0.39155  1.0000
  H   H1646     1.0  0.37110  0.53683  0.37774  1.0000
  H   H1647     1.0  0.33919  0.49712  0.25200  1.0000
  H   H1648     1.0  0.37765  0.61015  0.34389  1.0000
  C   C970      1.0  0.45698  0.49245  0.43399  1.0000
  C   C971      1.0  0.44781  0.45790  0.44486  1.0000
  C   C972      1.0  0.45823  0.47265  0.42989  1.0000
  H   H1649     1.0  0.44835  0.44293  0.44129  1.0000
  H   H1650     1.0  0.46634  0.46905  0.41477  1.0000
  H   H1651     1.0  0.28421  0.59830  0.21398  1.0000
  C   C973      1.0  0.29608  0.54806  0.22849  1.0000
  C   C974      1.0  0.43640  0.46279  0.46410  1.0000
  H   H1652     1.0  0.30429  0.55827  0.21563  1.0000
  S   S298      1.0  0.28601  0.59609  0.03107  1.0000
  S   S299      1.0  0.47956  0.42312  0.28832  1.0000
  H   H1653     1.0  0.45484  0.38613  0.31723  1.0000
  C   C975      1.0  0.44078  0.59137  0.10918  1.0000
  C   C976      1.0  0.42677  0.60993  0.11316  1.0000
  H   H1654     1.0  0.39999  0.49184  0.39941  1.0000
  H   H1655     1.0  0.32467  0.61445  0.38093  1.0000
  H   H1656     1.0  0.41218  0.60907  0.12429  1.0000
  C   C977      1.0  0.31077  0.60083  0.16651  1.0000
  C   C978      1.0  0.29649  0.61859  0.15906  1.0000
  C   C979      1.0  0.27756  0.61634  0.15558  1.0000
  C   C980      1.0  0.27249  0.59641  0.16027  1.0000
  C   C981      1.0  0.28650  0.57870  0.16818  1.0000
  C   C982      1.0  0.30572  0.58091  0.17101  1.0000
  H   H1657     1.0  0.30028  0.63404  0.15544  1.0000
  H   H1658     1.0  0.26687  0.63007  0.14923  1.0000
  H   H1659     1.0  0.28265  0.56331  0.17181  1.0000
  H   H1660     1.0  0.31644  0.56724  0.17704  1.0000
  C   C983      1.0  0.35193  0.52668  0.10569  1.0000
  C   C984      1.0  0.34739  0.51260  0.09600  1.0000
  C   C985      1.0  0.34176  0.51951  0.07625  1.0000
  C   C986      1.0  0.34026  0.54066  0.06609  1.0000
  C   C987      1.0  0.34491  0.55482  0.07567  1.0000
  C   C988      1.0  0.35075  0.54783  0.09545  1.0000
  H   H1661     1.0  0.34828  0.49625  0.10380  1.0000
  H   H1662     1.0  0.33826  0.50846  0.06897  1.0000
  H   H1663     1.0  0.34415  0.57107  0.06786  1.0000
  H   H1664     1.0  0.35416  0.55884  0.10280  1.0000
  H   H1665     1.0  0.34799  0.47358  0.24220  1.0000
  H   H1666     1.0  0.35998  0.49582  0.22909  1.0000
  S   S300      1.0  0.30621  0.55219  0.31304  1.0000
  C   C989      1.0  0.44115  0.45518  0.37611  1.0000
  C   C990      1.0  0.43447  0.45111  0.39794  1.0000
  C   C991      1.0  0.42811  0.43220  0.40849  1.0000
  C   C992      1.0  0.42817  0.41727  0.39723  1.0000
  C   C993      1.0  0.43422  0.42156  0.37525  1.0000
  C   C994      1.0  0.44103  0.44039  0.36468  1.0000
  H   H1667     1.0  0.43440  0.46251  0.40675  1.0000
  H   H1668     1.0  0.42294  0.42930  0.42537  1.0000
  H   H1669     1.0  0.43382  0.41028  0.36643  1.0000
  H   H1670     1.0  0.44604  0.44346  0.34776  1.0000
  C   C995      1.0  0.43801  0.52568  0.24937  1.0000
  C   C996      1.0  0.43803  0.50498  0.24884  1.0000
  C   C997      1.0  0.42576  0.50101  0.23677  1.0000
  C   C998      1.0  0.41367  0.51769  0.22493  1.0000
  C   C999      1.0  0.41398  0.53847  0.22506  1.0000
  C   C1000     1.0  0.42604  0.54244  0.23744  1.0000
  C   C1001     1.0  0.45271  0.53472  0.17119  1.0000
  H   H1671     1.0  0.48837  0.36518  0.32503  1.0000
  H   H1672     1.0  0.40436  0.55138  0.21627  1.0000
  H   H1673     1.0  0.33957  0.48035  0.16533  1.0000
  Fe  Fe149     1.0  0.32018  0.58354  0.03103  1.0000
  N   N70       1.0  0.36416  0.62402  0.21403  1.0000
  C   C1002     1.0  0.35281  0.60583  0.22127  1.0000
  S   S301      1.0  0.25335  0.51194  0.23674  1.0000
  H   H1674     1.0  0.32246  0.59705  0.22882  1.0000
  H   H1675     1.0  0.47922  0.53547  0.18335  1.0000
  H   H1676     1.0  0.48188  0.55257  0.47743  1.0000
  C   C1003     1.0  0.35342  0.63896  0.07322  1.0000
  S   S302      1.0  0.47157  0.62324  0.28728  1.0000
  H   H1677     1.0  0.43283  0.60842  0.18821  1.0000
  H   H1678     1.0  0.42986  0.60518  0.31272  1.0000
  H   H1679     1.0  0.35608  0.59615  0.23664  1.0000
  C   C1004     1.0  0.24620  0.41562  0.11209  1.0000
  C   C1005     1.0  0.43214  0.58892  0.32240  1.0000
  H   H1680     1.0  0.44251  0.38208  0.34434  1.0000
  H   H1681     1.0  0.39682  0.62700  0.20365  1.0000
  H   H1682     1.0  0.43277  0.53250  0.48549  1.0000
  H   H1683     1.0  0.42562  0.48493  0.23662  1.0000
  H   H1684     1.0  0.46713  0.42178  0.47280  1.0000
  H   H1685     1.0  0.37644  0.64782  0.33244  1.0000
  H   H1686     1.0  0.35438  0.62841  0.37571  1.0000
  H   H1687     1.0  0.39150  0.60439  0.19897  1.0000
  C   C1006     1.0  0.45012  0.58674  0.33366  1.0000
  C   C1007     1.0  0.27403  0.59912  0.22972  1.0000
  Fe  Fe150     1.0  0.46612  0.47832  0.33037  1.0000
  H   H1688     1.0  0.45208  0.57196  0.34562  1.0000
  C   C1008     1.0  0.36822  0.63543  0.12656  1.0000
  H   H1689     1.0  0.46859  0.35021  0.33153  1.0000
  H   H1690     1.0  0.38990  0.58690  0.23669  1.0000
  H   H1691     1.0  0.29348  0.52768  0.06847  1.0000
  H   H1692     1.0  0.37936  0.64647  0.09303  1.0000
  H   H1693     1.0  0.33866  0.64377  0.06707  1.0000
  H   H1694     1.0  0.26819  0.50982  0.27400  1.0000
  C   C1009     1.0  0.27682  0.55850  0.07641  1.0000
  C   C1010     1.0  0.36968  0.63506  0.10323  1.0000
  C   C1011     1.0  0.36552  0.61831  0.06606  1.0000
  N   N71       1.0  0.33662  0.65723  0.36040  1.0000
  C   C1012     1.0  0.34458  0.52882  0.44558  1.0000
  C   C1013     1.0  0.48842  0.62974  0.35757  1.0000
  H   H1695     1.0  0.41521  0.53790  0.33954  1.0000
  H   H1696     1.0  0.44296  0.57246  0.27594  1.0000
  H   H1697     1.0  0.38588  0.59236  0.29349  1.0000
  C   C1014     1.0  0.42932  0.54223  0.34160  1.0000
  H   H1698     1.0  0.46245  0.53180  0.15582  1.0000
  H   H1699     1.0  0.33542  0.62039  0.12599  1.0000
  H   H1700     1.0  0.37951  0.61949  0.10083  1.0000
  H   H1701     1.0  0.27873  0.60024  0.10973  1.0000
  H   H1702     1.0  0.36764  0.62095  0.04868  1.0000
  H   H1703     1.0  0.38142  0.61338  0.06964  1.0000
  H   H1704     1.0  0.35684  0.60531  0.07264  1.0000
  C   C1015     1.0  0.40179  0.59387  0.29399  1.0000
  C   C1016     1.0  0.44771  0.57831  0.28784  1.0000
  H   H1705     1.0  0.45857  0.54936  0.32300  1.0000
  Fe  Fe151     1.0  0.48014  0.45342  0.29633  1.0000
  H   H1706     1.0  0.25560  0.65269  0.99927  1.0000
  Fe  Fe152     1.0  0.33183  0.62625  0.01237  1.0000
  H   H1707     1.0  0.29648  0.52429  0.10107  1.0000
  C   C1017     1.0  0.29250  0.53316  0.13034  1.0000
  H   H1708     1.0  0.47519  0.55232  0.28645  1.0000
  H   H1709     1.0  0.46374  0.39639  0.33457  1.0000
  H   H1710     1.0  0.31367  0.53029  0.18969  1.0000
  C   C1018     1.0  0.35705  0.33315  0.48693  1.0000
  C   C1019     1.0  0.27575  0.52073  0.26133  1.0000
  H   H1711     1.0  0.29100  0.47411  0.23546  1.0000
  H   H1712     1.0  0.42297  0.50005  0.40019  1.0000
  N   N72       1.0  0.34914  0.63842  0.09654  1.0000
  H   H1713     1.0  0.29343  0.58824  0.08814  1.0000
  H   H1714     1.0  0.49118  0.58876  0.12259  1.0000
  C   C1020     1.0  0.37649  0.65474  0.34576  1.0000
  H   H1715     1.0  0.39972  0.60727  0.30172  1.0000
  H   H1716     1.0  0.43701  0.65110  0.15709  1.0000
  C   C1021     1.0  0.39558  0.60190  0.23056  1.0000
  C   C1022     1.0  0.45773  0.38279  0.33348  1.0000
  C   C1023     1.0  0.25202  0.59646  0.22937  1.0000
  S   S303      1.0  0.25351  0.52990  0.17547  1.0000
  H   H1717     1.0  0.29905  0.52430  0.17416  1.0000
  H   H1718     1.0  0.49048  0.44689  0.37086  1.0000
  C   C1024     1.0  0.43947  0.60484  0.17232  1.0000
  C   C1025     1.0  0.47148  0.56963  0.28526  1.0000
  H   H1719     1.0  0.30946  0.47012  0.25227  1.0000
  H   H1720     1.0  0.36134  0.49088  0.47277  1.0000
  S   S304      1.0  0.45110  0.55616  0.44706  1.0000
  C   C1026     1.0  0.47722  0.56900  0.15089  1.0000
  H   H1721     1.0  0.47074  0.57815  0.09209  1.0000
  H   H1722     1.0  0.25031  0.39919  0.07023  1.0000
  H   H1723     1.0  0.41023  0.59752  0.27747  1.0000
  C   C1027     1.0  0.47799  0.61256  0.44491  1.0000
  H   H1724     1.0  0.30873  0.53040  0.13286  1.0000
  Fe  Fe153     1.0  0.41840  0.58132  0.40311  1.0000
  Fe  Fe154     1.0  0.29078  0.62275  0.04263  1.0000
  H   H1725     1.0  0.44545  0.59567  0.28214  1.0000
  C   C1028     1.0  0.46367  0.34000  0.37213  1.0000
  C   C1029     1.0  0.25544  0.54133  0.10924  1.0000
  C   C1030     1.0  0.43539  0.48245  0.46828  1.0000
  C   C1031     1.0  0.48199  0.62685  0.47968  1.0000
  C   C1032     1.0  0.44271  0.58096  0.17312  1.0000
  C   C1033     1.0  0.27061  0.52537  0.24140  1.0000
  C   C1034     1.0  0.46213  0.62710  0.47638  1.0000
  H   H1726     1.0  0.46524  0.38339  0.36867  1.0000
  H   H1727     1.0  0.24651  0.60940  0.21681  1.0000
  H   H1728     1.0  0.33844  0.45461  0.22529  1.0000
  C   C1035     1.0  0.46012  0.61956  0.45927  1.0000
  H   H1729     1.0  0.31682  0.63681  0.32748  1.0000
  H   H1730     1.0  0.33927  0.54620  0.44184  1.0000
  H   H1731     1.0  0.36264  0.65119  0.06440  1.0000
  H   H1732     1.0  0.42458  0.55351  0.35231  1.0000
  H   H1733     1.0  0.33183  0.51538  0.21436  1.0000
  C   C1036     1.0  0.40574  0.50249  0.40589  1.0000
  H   H1734     1.0  0.30373  0.44817  0.24588  1.0000
  H   H1735     1.0  0.36166  0.47529  0.20212  1.0000
  N   N73       1.0  0.37722  0.49996  0.30670  1.0000
  C   C1037     1.0  0.36741  0.52088  0.29479  1.0000
  C   C1038     1.0  0.36006  0.48871  0.31984  1.0000
  C   C1039     1.0  0.39136  0.48630  0.29189  1.0000
  C   C1040     1.0  0.39014  0.50382  0.32023  1.0000
  C   C1041     1.0  0.38287  0.53366  0.27900  1.0000
  C   C1042     1.0  0.34507  0.49943  0.33734  1.0000
  C   C1043     1.0  0.38183  0.48375  0.27419  1.0000
  C   C1044     1.0  0.39833  0.48452  0.33642  1.0000
  H   H1736     1.0  0.35606  0.51897  0.28619  1.0000
  H   H1737     1.0  0.35800  0.53128  0.30579  1.0000
  H   H1738     1.0  0.36664  0.47234  0.32729  1.0000
  H   H1739     1.0  0.34996  0.48702  0.30980  1.0000
  H   H1740     1.0  0.40609  0.49216  0.28433  1.0000
  H   H1741     1.0  0.39660  0.47010  0.30065  1.0000
  H   H1742     1.0  0.40415  0.50988  0.31028  1.0000
  H   H1743     1.0  0.38131  0.51643  0.32900  1.0000
  H   H1744     1.0  0.39339  0.52467  0.26742  1.0000
  H   H1745     1.0  0.37398  0.54771  0.26983  1.0000
  H   H1746     1.0  0.39222  0.53931  0.28709  1.0000
  H   H1747     1.0  0.33395  0.48912  0.34658  1.0000
  H   H1748     1.0  0.35324  0.50211  0.34856  1.0000
  H   H1749     1.0  0.33551  0.51455  0.33076  1.0000
  H   H1750     1.0  0.36784  0.47654  0.28043  1.0000
  H   H1751     1.0  0.39359  0.47306  0.26476  1.0000
  H   H1752     1.0  0.37794  0.49883  0.26306  1.0000
  H   H1753     1.0  0.38555  0.47916  0.34910  1.0000
  H   H1754     1.0  0.40891  0.48897  0.34416  1.0000
  H   H1755     1.0  0.40751  0.47113  0.32903  1.0000
  N   N74       1.0  0.37837  0.50045  0.44090  1.0000
  C   C1045     1.0  0.36787  0.52320  0.43515  1.0000
  C   C1046     1.0  0.40110  0.49781  0.43017  1.0000
  C   C1047     1.0  0.37722  0.49356  0.46435  1.0000
  C   C1048     1.0  0.36746  0.48704  0.43402  1.0000
  H   H1756     1.0  0.34167  0.52390  0.46294  1.0000
  S   S305      1.0  0.36070  0.64042  0.00325  1.0000
  C   C1049     1.0  0.28538  0.65689  0.30108  1.0000
  C   C1050     1.0  0.37777  0.46347  0.43638  1.0000
  H   H1757     1.0  0.37631  0.53375  0.43874  1.0000
  H   H1758     1.0  0.36837  0.52807  0.41795  1.0000
  H   H1759     1.0  0.46957  0.56322  0.14122  1.0000
  H   H1760     1.0  0.40897  0.50809  0.43478  1.0000
  C   C1051     1.0  0.31434  0.64527  0.34044  1.0000
  H   H1761     1.0  0.37074  0.52299  0.47629  1.0000
  H   H1762     1.0  0.35118  0.48768  0.44325  1.0000
  H   H1763     1.0  0.36585  0.49321  0.41732  1.0000
  H   H1764     1.0  0.24420  0.65720  0.29030  1.0000
  H   H1765     1.0  0.34327  0.64637  0.39209  1.0000
  H   H1766     1.0  0.47847  0.59125  0.17973  1.0000
  S   S306      1.0  0.45865  0.65458  0.07533  1.0000
  H   H1767     1.0  0.39563  0.65229  0.01105  1.0000
  H   H1768     1.0  0.35712  0.62698  0.24673  1.0000
  H   H1769     1.0  0.34622  0.63198  0.34295  1.0000
  C   C1052     1.0  0.24644  0.62535  0.30808  1.0000
  H   H1770     1.0  0.30560  0.63537  0.10756  1.0000
  H   H1771     1.0  0.40967  0.48159  0.43542  1.0000
  H   H1772     1.0  0.32163  0.62044  0.23732  1.0000
  H   H1773     1.0  0.37968  0.45601  0.45273  1.0000
  H   H1774     1.0  0.47922  0.57670  0.26926  1.0000
  C   C1053     1.0  0.31724  0.62121  0.10387  1.0000
  H   H1775     1.0  0.41341  0.56032  0.29795  1.0000
  H   H1776     1.0  0.28165  0.58660  0.24125  1.0000
  N   N75       1.0  0.47886  0.35346  0.35858  1.0000
  H   H1777     1.0  0.43697  0.54380  0.16901  1.0000
  H   H1778     1.0  0.49259  0.42324  0.43783  1.0000
  H   H1779     1.0  0.32670  0.51645  0.16857  1.0000
  S   S307      1.0  0.42433  0.63844  0.26212  1.0000
  H   H1780     1.0  0.43863  0.52759  0.34956  1.0000
  H   H1781     1.0  0.43191  0.57476  0.18764  1.0000
  H   H1782     1.0  0.42134  0.64391  0.10612  1.0000
  C   C1054     1.0  0.44552  0.49730  0.45323  1.0000
  C   C1055     1.0  0.33584  0.64772  0.34247  1.0000
  S   S308      1.0  0.43400  0.64827  0.20131  1.0000
  H   H1783     1.0  0.38609  0.65075  0.22207  1.0000
  H   H1784     1.0  0.30653  0.54659  0.09867  1.0000
  H   H1785     1.0  0.36769  0.45499  0.43217  1.0000
  H   H1786     1.0  0.47979  0.61263  0.07404  1.0000
  C   C1056     1.0  0.45986  0.59247  0.09514  1.0000
  H   H1787     1.0  0.27372  0.61460  0.23301  1.0000
  H   H1788     1.0  0.32053  0.45649  0.20950  1.0000
  H   H1789     1.0  0.26551  0.53321  0.06931  1.0000
  H   H1790     1.0  0.35323  0.49944  0.18584  1.0000
  H   H1791     1.0  0.40189  0.56961  0.32161  1.0000
  H   H1792     1.0  0.31296  0.50367  0.23338  1.0000
  S   S309      1.0  0.41509  0.55024  0.42451  1.0000
  S   S310      1.0  0.29260  0.59690  0.28056  1.0000
  S   S311      1.0  0.26885  0.63332  0.07081  1.0000
  N   N76       1.0  0.32807  0.48640  0.20836  1.0000
  C   C1057     1.0  0.31046  0.49708  0.19678  1.0000
  C   C1058     1.0  0.32416  0.46490  0.22009  1.0000
  C   C1059     1.0  0.34894  0.48392  0.19343  1.0000
  C   C1060     1.0  0.32852  0.49975  0.22319  1.0000
  C   C1061     1.0  0.31294  0.51817  0.18152  1.0000
  C   C1062     1.0  0.30602  0.46461  0.23946  1.0000
  C   C1063     1.0  0.35077  0.47216  0.17583  1.0000
  C   C1064     1.0  0.34497  0.49091  0.23725  1.0000
  H   H1793     1.0  0.30778  0.48659  0.18765  1.0000
  H   H1794     1.0  0.29543  0.50042  0.20806  1.0000
  H   H1795     1.0  0.43674  0.57924  0.15973  1.0000
  H   H1796     1.0  0.44478  0.61975  0.45687  1.0000
  Fe  Fe155     1.0  0.44971  0.64916  0.27026  1.0000
  C   C1065     1.0  0.26713  0.41997  0.09781  1.0000
  C   C1066     1.0  0.46334  0.54533  0.18246  1.0000
  H   H1797     1.0  0.41290  0.59771  0.22644  1.0000
  Fe  Fe156     1.0  0.28364  0.58288  0.31481  1.0000
  N   N77       1.0  0.43423  0.57277  0.30942  1.0000
  H   H1798     1.0  0.44624  0.59982  0.34228  1.0000
  H   H1799     1.0  0.38786  0.47808  0.46811  1.0000
  S   S312      1.0  0.32180  0.64150  0.27593  1.0000
  H   H1800     1.0  0.46291  0.32771  0.36404  1.0000
  H   H1801     1.0  0.32356  0.62033  0.40609  1.0000
  C   C1067     1.0  0.32264  0.62735  0.38938  1.0000
  H   H1802     1.0  0.31108  0.60739  0.11408  1.0000
  H   H1803     1.0  0.37967  0.35312  0.47914  1.0000
  C   C1068     1.0  0.44267  0.55074  0.32021  1.0000
  H   H1804     1.0  0.41789  0.58872  0.33495  1.0000
  Fe  Fe157     1.0  0.41637  0.56568  0.45001  1.0000
  H   H1805     1.0  0.35747  0.62590  0.18357  1.0000
  H   H1806     1.0  0.28020  0.40907  0.10474  1.0000
  C   C1069     1.0  0.29271  0.53938  0.10655  1.0000
  H   H1807     1.0  0.43149  0.35142  0.36684  1.0000
  H   H1808     1.0  0.44447  0.53953  0.30982  1.0000
  H   H1809     1.0  0.26920  0.41738  0.08173  1.0000
  H   H1810     1.0  0.39172  0.61108  0.24313  1.0000
  H   H1811     1.0  0.37126  0.61912  0.13592  1.0000
  C   C1070     1.0  0.47944  0.56273  0.48892  1.0000
  H   H1812     1.0  0.48915  0.59836  0.14558  1.0000
  H   H1813     1.0  0.44734  0.49196  0.25788  1.0000
  H   H1814     1.0  0.34864  0.60514  0.10702  1.0000
  H   H1815     1.0  0.46621  0.60131  0.13449  1.0000
  S   S313      1.0  0.48278  0.35079  0.47997  1.0000
  C   C1071     1.0  0.37292  0.65109  0.17916  1.0000
  H   H1816     1.0  0.46920  0.33069  0.38674  1.0000
  H   H1817     1.0  0.28258  0.54625  0.04801  1.0000
  H   H1818     1.0  0.25964  0.52550  0.10516  1.0000
  C   C1072     1.0  0.46501  0.61197  0.08495  1.0000
  N   N78       1.0  0.46461  0.56812  0.17303  1.0000
  H   H1819     1.0  0.39310  0.46093  0.42553  1.0000
  C   C1073     1.0  0.27966  0.54012  0.06529  1.0000
  Fe  Fe158     1.0  0.29652  0.61444  0.99892  1.0000
  H   H1820     1.0  0.35893  0.33153  0.47087  1.0000
  H   H1821     1.0  0.43922  0.36763  0.38006  1.0000
  H   H1822     1.0  0.47581  0.64172  0.38540  1.0000
  C   C1074     1.0  0.26730  0.57340  0.10794  1.0000
  H   H1823     1.0  0.45343  0.61188  0.16539  1.0000
  H   H1824     1.0  0.46875  0.55665  0.21829  1.0000
  H   H1825     1.0  0.26308  0.62262  0.30678  1.0000
  H   H1826     1.0  0.48283  0.37883  0.39704  1.0000
  H   H1827     1.0  0.25383  0.58197  0.22324  1.0000
  H   H1828     1.0  0.24511  0.64375  0.25114  1.0000
  H   H1829     1.0  0.31857  0.62027  0.08732  1.0000
  C   C1075     1.0  0.28534  0.58486  0.10483  1.0000
  H   H1830     1.0  0.25250  0.53804  0.12675  1.0000
  C   C1076     1.0  0.46625  0.57322  0.20950  1.0000
  H   H1831     1.0  0.29118  0.56524  0.06998  1.0000
  C   C1077     1.0  0.48313  0.42454  0.47109  1.0000
  C   C1078     1.0  0.38304  0.50860  0.47504  1.0000
  C   C1079     1.0  0.47626  0.57483  0.18591  1.0000
  H   H1832     1.0  0.29683  0.57598  0.11481  1.0000
  H   H1833     1.0  0.24988  0.60989  0.26815  1.0000
  H   H1834     1.0  0.45437  0.54357  0.19890  1.0000
  H   H1835     1.0  0.32332  0.62081  0.20973  1.0000
  H   H1836     1.0  0.38795  0.64189  0.17194  1.0000
  H   H1837     1.0  0.48172  0.44175  0.46560  1.0000
  H   H1838     1.0  0.35288  0.64362  0.13415  1.0000
  H   H1839     1.0  0.47385  0.58194  0.21652  1.0000
  H   H1840     1.0  0.44934  0.58021  0.21212  1.0000
  S   S314      1.0  0.48104  0.50503  0.31080  1.0000
  H   H1841     1.0  0.34061  0.64528  0.23134  1.0000
  H   H1842     1.0  0.26896  0.43617  0.09709  1.0000
  H   H1843     1.0  0.26172  0.64951  0.10824  1.0000
  H   H1844     1.0  0.28357  0.54577  0.13887  1.0000
  H   H1845     1.0  0.47836  0.65320  0.41299  1.0000
  H   H1846     1.0  0.24576  0.42030  0.12706  1.0000
  H   H1847     1.0  0.42668  0.48623  0.48321  1.0000
  H   H1848     1.0  0.27965  0.57536  0.99426  1.0000
  C   C1080     1.0  0.48244  0.36459  0.39164  1.0000
  H   H1849     1.0  0.25908  0.57422  0.26799  1.0000
  H   H1850     1.0  0.24606  0.56167  0.25622  1.0000
  H   H1851     1.0  0.32652  0.65766  0.11724  1.0000
  S   S315      1.0  0.33059  0.59989  0.99777  1.0000
  H   H1852     1.0  0.49239  0.37939  0.35913  1.0000
  S   S316      1.0  0.24877  0.59402  0.15573  1.0000
  H   H1853     1.0  0.34235  0.64665  0.19631  1.0000
  H   H1854     1.0  0.38007  0.64380  0.12767  1.0000
  C   C1081     1.0  0.27427  0.65606  0.07495  1.0000
  H   H1855     1.0  0.39806  0.51342  0.46694  1.0000
  H   H1856     1.0  0.46913  0.35798  0.40233  1.0000
  C   C1082     1.0  0.33500  0.65899  0.10057  1.0000
  H   H1857     1.0  0.47854  0.57365  0.29649  1.0000
  H   H1858     1.0  0.45049  0.51908  0.18105  1.0000
  H   H1859     1.0  0.44830  0.63316  0.48706  1.0000
  H   H1860     1.0  0.49246  0.56523  0.18490  1.0000
  H   H1861     1.0  0.38221  0.64217  0.35852  1.0000
  C   C1083     1.0  0.48098  0.59076  0.13808  1.0000
  H   H1862     1.0  0.47477  0.63884  0.35057  1.0000
  H   H1863     1.0  0.48469  0.61399  0.36518  1.0000
  S   S317      1.0  0.39311  0.56123  0.48037  1.0000
  H   H1864     1.0  0.34193  0.65725  0.32713  1.0000
  C   C1084     1.0  0.36925  0.65453  0.22891  1.0000
  H   H1865     1.0  0.49280  0.44142  0.39815  1.0000
  H   H1866     1.0  0.36863  0.65669  0.24499  1.0000
  H   H1867     1.0  0.43593  0.57747  0.48921  1.0000
  H   H1868     1.0  0.36948  0.54130  0.98226  1.0000
  Fe  Fe159     1.0  0.40462  0.37546  0.49122  1.0000
  C   C1085     1.0  0.25633  0.32701  0.88593  1.0000
  H   H1869     1.0  0.34439  0.42858  0.67865  1.0000
  C   C1086     1.0  0.36878  0.34538  0.49159  1.0000
  C   C1087     1.0  0.24715  0.32816  0.60137  1.0000
  C   C1088     1.0  0.27748  0.34198  0.66401  1.0000
  C   C1089     1.0  0.40307  0.38895  0.69138  1.0000
  H   H1870     1.0  0.36806  0.38920  0.57786  1.0000
  S   S318      1.0  0.47413  0.52055  0.58996  1.0000
  H   H1871     1.0  0.41960  0.35669  0.56453  1.0000
  S   S319      1.0  0.47095  0.49221  0.54668  1.0000
  C   C1090     1.0  0.24640  0.39083  0.68908  1.0000
  H   H1872     1.0  0.34096  0.39962  0.57887  1.0000
  C   C1091     1.0  0.32387  0.54017  0.95747  1.0000
  H   H1873     1.0  0.34307  0.33200  0.59210  1.0000
  H   H1874     1.0  0.46547  0.58272  0.56046  1.0000
  C   C1092     1.0  0.30830  0.34328  0.72306  1.0000
  C   C1093     1.0  0.26802  0.38880  0.69418  1.0000
  H   H1875     1.0  0.32369  0.56590  0.91876  1.0000
  C   C1094     1.0  0.37206  0.40261  0.67578  1.0000
  H   H1876     1.0  0.42016  0.56529  0.51280  1.0000
  H   H1877     1.0  0.48180  0.45558  0.50938  1.0000
  H   H1878     1.0  0.33136  0.33890  0.76406  1.0000
  C   C1095     1.0  0.42059  0.52739  0.49818  1.0000
  H   H1879     1.0  0.33392  0.52624  0.98772  1.0000
  C   C1096     1.0  0.38184  0.44857  0.54129  1.0000
  S   S320      1.0  0.48445  0.63560  0.50160  1.0000
  H   H1880     1.0  0.41243  0.38393  0.67659  1.0000
  C   C1097     1.0  0.36174  0.42391  0.51669  1.0000
  H   H1881     1.0  0.31137  0.54779  0.98926  1.0000
  C   C1098     1.0  0.44982  0.55431  0.54679  1.0000
  C   C1099     1.0  0.26141  0.60181  0.94997  1.0000
  H   H1882     1.0  0.42352  0.44102  0.66148  1.0000
  H   H1883     1.0  0.39337  0.43410  0.71256  1.0000
  C   C1100     1.0  0.49145  0.39326  0.49754  1.0000
  Fe  Fe160     1.0  0.44438  0.47522  0.56037  1.0000
  S   S321      1.0  0.44198  0.47870  0.59331  1.0000
  S   S322      1.0  0.41487  0.47947  0.54876  1.0000
  H   H1884     1.0  0.27186  0.54556  0.98368  1.0000
  C   C1101     1.0  0.26879  0.56129  0.97431  1.0000
  H   H1885     1.0  0.24492  0.36950  0.78729  1.0000
  Fe  Fe161     1.0  0.46421  0.44760  0.59614  1.0000
  S   S323      1.0  0.45810  0.42100  0.62341  1.0000
  H   H1886     1.0  0.42536  0.32711  0.59333  1.0000
  H   H1887     1.0  0.27111  0.33210  0.88183  1.0000
  S   S324      1.0  0.46475  0.44308  0.56403  1.0000
  H   H1888     1.0  0.32496  0.61048  0.95044  1.0000
  Fe  Fe162     1.0  0.32761  0.34887  0.65331  1.0000
  S   S325      1.0  0.33577  0.37414  0.66400  1.0000
  S   S326      1.0  0.29606  0.35489  0.64564  1.0000
  H   H1889     1.0  0.43603  0.53276  0.53660  1.0000
  S   S327      1.0  0.38294  0.34432  0.66319  1.0000
  Fe  Fe163     1.0  0.35189  0.34754  0.68572  1.0000
  S   S328      1.0  0.34778  0.34956  0.71948  1.0000
  Fe  Fe164     1.0  0.36565  0.36877  0.64046  1.0000
  S   S329      1.0  0.37601  0.39642  0.61704  1.0000
  C   C1102     1.0  0.27324  0.57814  0.98032  1.0000
  S   S330      1.0  0.35609  0.34568  0.62775  1.0000
  C   C1103     1.0  0.47334  0.42621  0.50863  1.0000
  C   C1104     1.0  0.43308  0.33026  0.53558  1.0000
  C   C1105     1.0  0.32352  0.34370  0.73371  1.0000
  S   S331      1.0  0.25922  0.54241  0.94694  1.0000
  H   H1890     1.0  0.48165  0.37139  0.61971  1.0000
  H   H1891     1.0  0.38108  0.39434  0.66288  1.0000
  H   H1892     1.0  0.44138  0.50053  0.51261  1.0000
  C   C1106     1.0  0.47444  0.57710  0.52795  1.0000
  H   H1893     1.0  0.33417  0.60232  0.92596  1.0000
  H   H1894     1.0  0.38659  0.40078  0.52877  1.0000
  C   C1107     1.0  0.43587  0.41340  0.62122  1.0000
  C   C1108     1.0  0.43172  0.39346  0.63145  1.0000
  C   C1109     1.0  0.41354  0.38780  0.62993  1.0000
  C   C1110     1.0  0.39936  0.40230  0.61859  1.0000
  C   C1111     1.0  0.40359  0.42215  0.60842  1.0000
  C   C1112     1.0  0.42193  0.42755  0.60948  1.0000
  H   H1895     1.0  0.44259  0.38242  0.64043  1.0000
  H   H1896     1.0  0.41050  0.37233  0.63755  1.0000
  H   H1897     1.0  0.39256  0.43356  0.59989  1.0000
  H   H1898     1.0  0.42494  0.44293  0.60153  1.0000
  H   H1899     1.0  0.36551  0.43164  0.49985  1.0000
  H   H1900     1.0  0.39428  0.42416  0.51365  1.0000
  C   C1113     1.0  0.44002  0.58455  0.51829  1.0000
  H   H1901     1.0  0.25508  0.39201  0.91869  1.0000
  C   C1114     1.0  0.33426  0.59707  0.94301  1.0000
  C   C1115     1.0  0.39502  0.36958  0.70588  1.0000
  H   H1902     1.0  0.47679  0.38923  0.49631  1.0000
  H   H1903     1.0  0.45468  0.45507  0.51798  1.0000
  N   N79       1.0  0.38015  0.42573  0.54603  1.0000
  H   H1904     1.0  0.34877  0.46455  0.54097  1.0000
  C   C1116     1.0  0.35593  0.42113  0.66634  1.0000
  C   C1117     1.0  0.49064  0.37729  0.60389  1.0000
  H   H1905     1.0  0.29773  0.32882  0.78408  1.0000
  C   C1118     1.0  0.33912  0.55992  0.92368  1.0000
  H   H1906     1.0  0.38672  0.44138  0.67180  1.0000
  Fe  Fe165     1.0  0.49128  0.46022  0.55339  1.0000
  H   H1907     1.0  0.34831  0.43454  0.52426  1.0000
  H   H1908     1.0  0.39324  0.32925  0.55346  1.0000
  H   H1909     1.0  0.42280  0.43181  0.54651  1.0000
  C   C1119     1.0  0.41902  0.42664  0.67242  1.0000
  C   C1120     1.0  0.38166  0.41824  0.52618  1.0000
  H   H1910     1.0  0.36754  0.48078  0.52980  1.0000
  H   H1911     1.0  0.42306  0.41657  0.52761  1.0000
  C   C1121     1.0  0.43224  0.54281  0.54833  1.0000
  H   H1912     1.0  0.39862  0.42387  0.65437  1.0000
  C   C1122     1.0  0.27011  0.59839  0.96783  1.0000
  H   H1913     1.0  0.24954  0.42524  0.88338  1.0000
  H   H1914     1.0  0.25357  0.35674  0.64585  1.0000
  C   C1123     1.0  0.26083  0.56454  0.95601  1.0000
  C   C1124     1.0  0.31959  0.33870  0.75575  1.0000
  H   H1915     1.0  0.26411  0.34783  0.84202  1.0000
  H   H1916     1.0  0.46306  0.54220  0.55211  1.0000
  N   N80       1.0  0.45748  0.56726  0.52558  1.0000
  C   C1125     1.0  0.42687  0.57940  0.50510  1.0000
  C   C1126     1.0  0.36465  0.46482  0.53127  1.0000
  H   H1917     1.0  0.42992  0.53215  0.56404  1.0000
  H   H1918     1.0  0.40859  0.35702  0.70972  1.0000
  S   S332      1.0  0.27867  0.61927  0.97288  1.0000
  H   H1919     1.0  0.41451  0.39210  0.69896  1.0000
  H   H1920     1.0  0.43078  0.41310  0.66723  1.0000
  C   C1127     1.0  0.46739  0.55267  0.51037  1.0000
  C   C1128     1.0  0.30059  0.33294  0.76709  1.0000
  C   C1129     1.0  0.40591  0.35144  0.57587  1.0000
  H   H1921     1.0  0.36543  0.46316  0.51505  1.0000
  C   C1130     1.0  0.25669  0.58500  0.94413  1.0000
  H   H1922     1.0  0.39893  0.39581  0.55830  1.0000
  H   H1923     1.0  0.41979  0.34367  0.53692  1.0000
  C   C1131     1.0  0.36042  0.42252  0.56206  1.0000
  C   C1132     1.0  0.32390  0.57778  0.95281  1.0000
  H   H1924     1.0  0.48067  0.58707  0.51278  1.0000
  H   H1925     1.0  0.36231  0.43082  0.70150  1.0000
  C   C1133     1.0  0.35771  0.55110  0.95298  1.0000
  H   H1926     1.0  0.39616  0.41575  0.57230  1.0000
  H   H1927     1.0  0.45567  0.54551  0.50714  1.0000
  S   S333      1.0  0.38109  0.36248  0.51856  1.0000
  H   H1928     1.0  0.46535  0.45880  0.49063  1.0000
  H   H1929     1.0  0.45827  0.42161  0.50972  1.0000
  H   H1930     1.0  0.34620  0.43257  0.55687  1.0000
  H   H1931     1.0  0.42039  0.42728  0.68829  1.0000
  C   C1134     1.0  0.38561  0.42061  0.72028  1.0000
  H   H1932     1.0  0.41714  0.55401  0.54734  1.0000
  C   C1135     1.0  0.38431  0.53211  0.51604  1.0000
  C   C1136     1.0  0.38908  0.51390  0.53114  1.0000
  C   C1137     1.0  0.40964  0.50256  0.53000  1.0000
  C   C1138     1.0  0.42548  0.50939  0.51362  1.0000
  H   H1933     1.0  0.35699  0.39314  0.55484  1.0000
  H   H1934     1.0  0.36838  0.54091  0.51711  1.0000
  H   H1935     1.0  0.37684  0.50875  0.54388  1.0000
  H   H1936     1.0  0.39225  0.35494  0.56830  1.0000
  C   C1139     1.0  0.25738  0.34592  0.66001  1.0000
  H   H1937     1.0  0.44620  0.59855  0.50852  1.0000
  C   C1140     1.0  0.39682  0.42556  0.67088  1.0000
  C   C1141     1.0  0.26403  0.42203  0.91620  1.0000
  C   C1142     1.0  0.26605  0.46197  0.88205  1.0000
  H   H1938     1.0  0.36434  0.53412  0.95295  1.0000
  H   H1939     1.0  0.25968  0.45998  0.86910  1.0000
  C   C1143     1.0  0.26089  0.39985  0.92806  1.0000
  H   H1940     1.0  0.38475  0.50044  0.49133  1.0000
  H   H1941     1.0  0.34699  0.41503  0.65818  1.0000
  S   S334      1.0  0.42982  0.38483  0.50100  1.0000
  Fe  Fe166     1.0  0.47084  0.49221  0.58018  1.0000
  H   H1942     1.0  0.37423  0.42516  0.73433  1.0000
  H   H1943     1.0  0.35361  0.54497  0.89687  1.0000
  H   H1944     1.0  0.27553  0.41987  0.90140  1.0000
  H   H1945     1.0  0.27223  0.42778  0.92545  1.0000
  C   C1144     1.0  0.46881  0.45030  0.50614  1.0000
  H   H1946     1.0  0.26746  0.39862  0.70541  1.0000
  H   H1947     1.0  0.26890  0.47830  0.87782  1.0000
  H   H1948     1.0  0.25788  0.46320  0.91471  1.0000
  H   H1949     1.0  0.47867  0.53905  0.51737  1.0000
  C   C1145     1.0  0.34978  0.54015  0.91430  1.0000
  N   N81       1.0  0.38666  0.40838  0.68625  1.0000
  H   H1950     1.0  0.27393  0.34273  0.81582  1.0000
  C   C1146     1.0  0.36627  0.34766  0.51229  1.0000
  H   H1951     1.0  0.28143  0.45125  0.88274  1.0000
  H   H1952     1.0  0.27625  0.38995  0.93079  1.0000
  C   C1147     1.0  0.31943  0.53426  0.98169  1.0000
  H   H1953     1.0  0.38646  0.36288  0.69792  1.0000
  H   H1954     1.0  0.33911  0.52895  0.91781  1.0000
  C   C1148     1.0  0.41155  0.32816  0.58659  1.0000
  C   C1149     1.0  0.39997  0.53875  0.49938  1.0000
  H   H1955     1.0  0.27892  0.39411  0.67940  1.0000
  H   H1956     1.0  0.38512  0.37297  0.72101  1.0000
  C   C1150     1.0  0.37366  0.41601  0.70574  1.0000
  H   H1957     1.0  0.25052  0.39988  0.94375  1.0000
  H   H1958     1.0  0.27498  0.37218  0.70019  1.0000
  C   C1151     1.0  0.35667  0.39974  0.56852  1.0000
  H   H1959     1.0  0.36333  0.43320  0.65424  1.0000
  H   H1960     1.0  0.36043  0.42751  0.57674  1.0000
  H   H1961     1.0  0.41353  0.59278  0.50266  1.0000
  C   C1152     1.0  0.42025  0.41672  0.54454  1.0000
  H   H1962     1.0  0.43222  0.40405  0.55151  1.0000
  H   H1963     1.0  0.36394  0.40444  0.71549  1.0000
  C   C1153     1.0  0.39825  0.41293  0.55621  1.0000
  H   H1964     1.0  0.48086  0.59990  0.54222  1.0000
  H   H1965     1.0  0.47752  0.42005  0.52438  1.0000
  H   H1966     1.0  0.39665  0.45118  0.53005  1.0000
  H   H1967     1.0  0.48804  0.56472  0.53231  1.0000
  H   H1968     1.0  0.38240  0.45327  0.55593  1.0000
  H   H1969     1.0  0.42895  0.59032  0.53199  1.0000
  C   C1154     1.0  0.26069  0.35140  0.82599  1.0000
  C   C1155     1.0  0.46793  0.59167  0.54400  1.0000
  H   H1970     1.0  0.39700  0.40662  0.72618  1.0000
  H   H1971     1.0  0.30855  0.54452  0.95234  1.0000
  H   H1972     1.0  0.44367  0.56410  0.55897  1.0000
  C   C1156     1.0  0.28931  0.33767  0.73439  1.0000
  H   H1973     1.0  0.36675  0.56866  0.97186  1.0000
  H   H1974     1.0  0.35654  0.40932  0.51699  1.0000
  H   H1975     1.0  0.36282  0.39130  0.68701  1.0000
  H   H1976     1.0  0.45392  0.60403  0.54129  1.0000
  H   H1977     1.0  0.30885  0.52280  0.98690  1.0000
  C   C1157     1.0  0.35913  0.55508  0.97433  1.0000
  C   C1158     1.0  0.25058  0.45925  0.90342  1.0000
  H   H1978     1.0  0.33198  0.52511  0.95245  1.0000
  H   H1979     1.0  0.34872  0.57198  0.91525  1.0000
  H   H1980     1.0  0.40158  0.36116  0.58810  1.0000
  H   H1981     1.0  0.34422  0.55749  0.98573  1.0000
  H   H1982     1.0  0.30865  0.58169  0.94771  1.0000
  H   H1983     1.0  0.36880  0.55984  0.94076  1.0000
  H   H1984     1.0  0.27780  0.33692  0.72608  1.0000
  H   H1985     1.0  0.35039  0.59427  0.94563  1.0000
  H   H1986     1.0  0.24609  0.35398  0.71103  1.0000
  H   H1987     1.0  0.31759  0.33288  0.60811  1.0000
  H   H1988     1.0  0.34973  0.33976  0.54427  1.0000
  C   C1159     1.0  0.28227  0.32794  0.68235  1.0000
  N   N82       1.0  0.24465  0.43794  0.91155  1.0000
  H   H1989     1.0  0.48800  0.55839  0.58674  1.0000
  H   H1990     1.0  0.36464  0.53209  0.91955  1.0000
  C   C1160     1.0  0.28546  0.33238  0.75637  1.0000
  H   H1991     1.0  0.24769  0.36704  0.73039  1.0000
  H   H1992     1.0  0.24826  0.43517  0.95362  1.0000
  H   H1993     1.0  0.47892  0.38559  0.59394  1.0000
  H   H1994     1.0  0.31957  0.57700  0.96998  1.0000
  N   N83       1.0  0.33640  0.55717  0.94725  1.0000
  H   H1995     1.0  0.31111  0.34726  0.70608  1.0000
  H   H1996     1.0  0.26064  0.36818  0.81896  1.0000
  C   C1161     1.0  0.35190  0.33783  0.52827  1.0000
  H   H1997     1.0  0.44747  0.33696  0.52954  1.0000
  H   H1998     1.0  0.25890  0.61742  0.94022  1.0000
  H   H1999     1.0  0.48196  0.38516  0.53214  1.0000
  N   N84       1.0  0.48997  0.41685  0.49194  1.0000
  H   H2000     1.0  0.25071  0.58771  0.92992  1.0000
  H   H2001     1.0  0.24883  0.38023  0.67792  1.0000
  C   C1162     1.0  0.39138  0.74561  0.00016  1.0000
  H   H2002     1.0  0.37592  0.66192  0.18745  1.0000
  H   H2003     1.0  0.42034  0.83264  0.10666  1.0000
  C   C1163     1.0  0.25903  0.90239  0.22411  1.0000
  C   C1164     1.0  0.25723  0.70853  0.01274  1.0000
  C   C1165     1.0  0.42079  0.66670  0.18278  1.0000
  Fe  Fe167     1.0  0.42880  0.73148  0.06197  1.0000
  H   H2004     1.0  0.44101  0.92125  0.01142  1.0000
  H   H2005     1.0  0.48987  0.75867  0.99931  1.0000
  Fe  Fe168     1.0  0.28919  0.75717  0.31870  1.0000
  S   S335      1.0  0.28354  0.75459  0.28804  1.0000
  S   S336      1.0  0.32239  0.74918  0.32286  1.0000
  Fe  Fe169     1.0  0.26225  0.78596  0.28917  1.0000
  H   H2006     1.0  0.44563  0.89344  0.03967  1.0000
  H   H2007     1.0  0.48579  0.66301  0.27501  1.0000
  S   S337      1.0  0.27008  0.78984  0.31825  1.0000
  S   S338      1.0  0.26329  0.74125  0.33893  1.0000
  Fe  Fe170     1.0  0.43481  0.69464  0.25062  1.0000
  S   S339      1.0  0.40827  0.68747  0.24125  1.0000
  S   S340      1.0  0.43728  0.72871  0.24280  1.0000
  H   H2008     1.0  0.45545  0.78261  0.00304  1.0000
  C   C1166     1.0  0.41495  0.67904  0.14697  1.0000
  H   H2009     1.0  0.25344  0.91803  0.17410  1.0000
  C   C1167     1.0  0.43386  0.80124  0.10137  1.0000
  S   S341      1.0  0.42826  0.67615  0.28381  1.0000
  Fe  Fe171     1.0  0.27494  0.78883  0.06051  1.0000
  H   H2010     1.0  0.41446  0.92918  0.04733  1.0000
  C   C1168     1.0  0.40576  0.68388  0.18868  1.0000
  S   S342      1.0  0.27462  0.81142  0.08006  1.0000
  H   H2011     1.0  0.30931  0.83470  0.06535  1.0000
  H   H2012     1.0  0.24402  0.72224  0.01195  1.0000
  S   S343      1.0  0.45766  0.92951  0.12605  1.0000
  H   H2013     1.0  0.31745  0.86559  0.02929  1.0000
  Fe  Fe172     1.0  0.34052  0.83663  0.15248  1.0000
  S   S344      1.0  0.34419  0.86510  0.16183  1.0000
  S   S345      1.0  0.31281  0.83944  0.13838  1.0000
  Fe  Fe173     1.0  0.38224  0.81119  0.16253  1.0000
  S   S346      1.0  0.38978  0.83751  0.17246  1.0000
  S   S347      1.0  0.40231  0.77921  0.16141  1.0000
  Fe  Fe174     1.0  0.35596  0.84191  0.18899  1.0000
  S   S348      1.0  0.34488  0.84510  0.22272  1.0000
  Fe  Fe175     1.0  0.37735  0.85809  0.14427  1.0000
  S   S349      1.0  0.39121  0.88180  0.11743  1.0000
  S   S350      1.0  0.34951  0.81392  0.18107  1.0000
  S   S351      1.0  0.37273  0.83116  0.13295  1.0000
  H   H2014     1.0  0.48996  0.80655  0.01770  1.0000
  C   C1169     1.0  0.28179  0.79849  0.18299  1.0000
  C   C1170     1.0  0.29775  0.80897  0.17068  1.0000
  C   C1171     1.0  0.29333  0.82613  0.15441  1.0000
  C   C1172     1.0  0.27306  0.83269  0.15046  1.0000
  H   H2015     1.0  0.31797  0.67480  0.39729  1.0000
  H   H2016     1.0  0.28508  0.78524  0.19557  1.0000
  H   H2017     1.0  0.31343  0.80360  0.17363  1.0000
  H   H2018     1.0  0.26958  0.84602  0.13795  1.0000
  S   S352      1.0  0.24673  0.71318  0.30380  1.0000
  C   C1173     1.0  0.43894  0.91624  0.12419  1.0000
  C   C1174     1.0  0.42947  0.90310  0.14195  1.0000
  C   C1175     1.0  0.41455  0.89249  0.14027  1.0000
  C   C1176     1.0  0.40932  0.89489  0.12076  1.0000
  C   C1177     1.0  0.41906  0.90770  0.10305  1.0000
  C   C1178     1.0  0.43357  0.91857  0.10479  1.0000
  H   H2019     1.0  0.43354  0.90127  0.15702  1.0000
  H   H2020     1.0  0.40713  0.88253  0.15402  1.0000
  H   H2021     1.0  0.41565  0.90895  0.08782  1.0000
  H   H2022     1.0  0.44070  0.92864  0.09104  1.0000
  Fe  Fe176     1.0  0.46771  0.95038  0.09484  1.0000
  C   C1179     1.0  0.38317  0.67816  0.02728  1.0000
  H   H2023     1.0  0.27054  0.94881  0.37002  1.0000
  H   H2024     1.0  0.26537  0.90086  0.04828  1.0000
  C   C1180     1.0  0.39527  0.69853  0.17392  1.0000
  H   H2025     1.0  0.38361  0.71175  0.17865  1.0000
  H   H2026     1.0  0.40168  0.68568  0.20468  1.0000
  C   C1181     1.0  0.42651  0.74290  0.22079  1.0000
  C   C1182     1.0  0.42356  0.73232  0.20660  1.0000
  C   C1183     1.0  0.41522  0.74367  0.18894  1.0000
  C   C1184     1.0  0.41030  0.76564  0.18501  1.0000
  C   C1185     1.0  0.41266  0.77632  0.19943  1.0000
  C   C1186     1.0  0.42092  0.76493  0.21725  1.0000
  H   H2027     1.0  0.42810  0.71541  0.20896  1.0000
  H   H2028     1.0  0.41250  0.73543  0.17831  1.0000
  H   H2029     1.0  0.40857  0.79332  0.19668  1.0000
  H   H2030     1.0  0.42306  0.77319  0.22826  1.0000
  C   C1187     1.0  0.28449  0.82026  0.24996  1.0000
  C   C1188     1.0  0.29037  0.82746  0.22827  1.0000
  C   C1189     1.0  0.30890  0.83510  0.21992  1.0000
  C   C1190     1.0  0.32152  0.83583  0.23326  1.0000
  C   C1191     1.0  0.31569  0.82866  0.25499  1.0000
  C   C1192     1.0  0.29737  0.82050  0.26330  1.0000
  H   H2031     1.0  0.28088  0.82650  0.21787  1.0000
  H   H2032     1.0  0.31342  0.84045  0.20314  1.0000
  H   H2033     1.0  0.32559  0.82894  0.26532  1.0000
  H   H2034     1.0  0.29327  0.81446  0.27998  1.0000
  N   N85       1.0  0.46849  0.71635  0.14580  1.0000
  C   C1193     1.0  0.28512  0.69880  0.28043  1.0000
  C   C1194     1.0  0.35504  0.66811  0.35380  1.0000
  C   C1195     1.0  0.26852  0.69378  0.29684  1.0000
  H   H2035     1.0  0.28503  0.71496  0.27236  1.0000
  C   C1196     1.0  0.33584  0.72677  0.31268  1.0000
  C   C1197     1.0  0.32476  0.71338  0.30913  1.0000
  C   C1198     1.0  0.33555  0.69517  0.30154  1.0000
  C   C1199     1.0  0.35743  0.69037  0.29725  1.0000
  C   C1200     1.0  0.36855  0.70407  0.30024  1.0000
  C   C1201     1.0  0.35775  0.72216  0.30816  1.0000
  H   H2036     1.0  0.30785  0.71672  0.31273  1.0000
  H   H2037     1.0  0.32695  0.68456  0.29933  1.0000
  H   H2038     1.0  0.38545  0.70049  0.29694  1.0000
  H   H2039     1.0  0.36636  0.73257  0.31079  1.0000
  H   H2040     1.0  0.25482  0.66487  0.03467  1.0000
  S   S353      1.0  0.26102  0.81109  0.25998  1.0000
  C   C1202     1.0  0.34389  0.67312  0.02458  1.0000
  H   H2041     1.0  0.46650  0.80535  0.99418  1.0000
  H   H2042     1.0  0.44273  0.79434  0.13846  1.0000
  H   H2043     1.0  0.26946  0.87906  0.32543  1.0000
  H   H2044     1.0  0.29700  0.85294  0.30525  1.0000
  H   H2045     1.0  0.25820  0.82958  0.37276  1.0000
  C   C1203     1.0  0.35052  0.93128  0.07488  1.0000
  Fe  Fe177     1.0  0.29908  0.77341  0.02128  1.0000
  C   C1204     1.0  0.39977  0.93034  0.04216  1.0000
  S   S354      1.0  0.42845  0.70689  0.04458  1.0000
  N   N86       1.0  0.47206  0.90876  0.99568  1.0000
  H   H2046     1.0  0.42693  0.80277  0.08752  1.0000
  H   H2047     1.0  0.32781  0.69597  0.37724  1.0000
  H   H2048     1.0  0.30209  0.88316  0.01210  1.0000
  H   H2049     1.0  0.28459  0.92807  0.41255  1.0000
  H   H2050     1.0  0.45607  0.84792  0.12994  1.0000
  C   C1205     1.0  0.27722  0.92717  0.39973  1.0000
  H   H2051     1.0  0.35217  0.68231  0.34121  1.0000
  H   H2052     1.0  0.45860  0.68091  0.19363  1.0000
  H   H2053     1.0  0.29590  0.94681  0.37497  1.0000
  C   C1206     1.0  0.44641  0.88852  0.02481  1.0000
  N   N87       1.0  0.32180  0.76969  0.11634  1.0000
  C   C1207     1.0  0.27917  0.94730  0.38256  1.0000
  H   H2054     1.0  0.28809  0.86266  0.18337  1.0000
  H   H2055     1.0  0.37038  0.75659  0.03761  1.0000
  H   H2056     1.0  0.30040  0.88166  0.14731  1.0000
  C   C1208     1.0  0.46903  0.78881  0.99254  1.0000
  C   C1209     1.0  0.28407  0.66985  0.05823  1.0000
  H   H2057     1.0  0.28151  0.88714  0.29220  1.0000
  H   H2058     1.0  0.34614  0.91743  0.08688  1.0000
  H   H2059     1.0  0.36570  0.78450  0.00331  1.0000
  H   H2060     1.0  0.29661  0.85168  0.00226  1.0000
  H   H2061     1.0  0.27205  0.89962  0.37805  1.0000
  H   H2062     1.0  0.47059  0.92647  0.01925  1.0000
  H   H2063     1.0  0.45604  0.79909  0.04373  1.0000
  H   H2064     1.0  0.39203  0.94980  0.10764  1.0000
  C   C1210     1.0  0.45671  0.72288  0.12808  1.0000
  H   H2065     1.0  0.27994  0.90399  0.15025  1.0000
  N   N88       1.0  0.26078  0.88608  0.19232  1.0000
  C   C1211     1.0  0.34188  0.80045  0.09880  1.0000
  H   H2066     1.0  0.35469  0.79338  0.10751  1.0000
  H   H2067     1.0  0.33930  0.81777  0.09726  1.0000
  H   H2068     1.0  0.34689  0.79731  0.08260  1.0000
  S   S355      1.0  0.29142  0.71298  0.08700  1.0000
  C   C1212     1.0  0.38460  0.95160  0.04390  1.0000
  C   C1213     1.0  0.26144  0.80529  0.17916  1.0000
  H   H2069     1.0  0.28275  0.77200  0.14903  1.0000
  H   H2070     1.0  0.46693  0.67806  0.39773  1.0000
  H   H2071     1.0  0.35003  0.72844  0.09054  1.0000
  C   C1214     1.0  0.45410  0.86083  0.09770  1.0000
  H   H2072     1.0  0.44896  0.78990  0.09946  1.0000
  H   H2073     1.0  0.26888  0.84479  0.04563  1.0000
  S   S356      1.0  0.39998  0.68455  0.08887  1.0000
  C   C1215     1.0  0.44097  0.81119  0.13890  1.0000
  H   H2074     1.0  0.24752  0.89894  0.37344  1.0000
  H   H2075     1.0  0.35452  0.67743  0.10723  1.0000
  H   H2076     1.0  0.26810  0.83517  0.30230  1.0000
  H   H2077     1.0  0.36163  0.94187  0.09685  1.0000
  C   C1216     1.0  0.49277  0.68418  0.13175  1.0000
  C   C1217     1.0  0.42491  0.98978  0.02062  1.0000
  H   H2078     1.0  0.36197  0.66978  0.21993  1.0000
  H   H2079     1.0  0.25962  0.82786  0.11707  1.0000
  S   S357      1.0  0.43836  0.96425  0.02962  1.0000
  C   C1218     1.0  0.34912  0.76214  0.14005  1.0000
  S   S358      1.0  0.44432  0.97725  0.08136  1.0000
  Fe  Fe178     1.0  0.45800  0.96558  0.05146  1.0000
  H   H2080     1.0  0.41854  0.67712  0.13083  1.0000
  S   S359      1.0  0.38670  0.71477  0.13487  1.0000
  H   H2081     1.0  0.44189  0.86517  0.08804  1.0000
  H   H2082     1.0  0.25897  0.84213  0.19376  1.0000
  H   H2083     1.0  0.36781  0.73016  0.99707  1.0000
  C   C1219     1.0  0.28225  0.85177  0.03557  1.0000
  C   C1220     1.0  0.49051  0.70556  0.13773  1.0000
  C   C1221     1.0  0.24659  0.83059  0.10950  1.0000
  H   H2084     1.0  0.40412  0.92911  0.02533  1.0000
  H   H2085     1.0  0.45491  0.68848  0.15767  1.0000
  C   C1222     1.0  0.45064  0.81091  0.15748  1.0000
  C   C1223     1.0  0.25565  0.90393  0.42578  1.0000
  H   H2086     1.0  0.28140  0.79531  0.12829  1.0000
  H   H2087     1.0  0.47785  0.76580  0.14489  1.0000
  C   C1224     1.0  0.39987  0.69615  0.15307  1.0000
  C   C1225     1.0  0.47201  0.81328  0.10966  1.0000
  C   C1226     1.0  0.26648  0.84257  0.31588  1.0000
  C   C1227     1.0  0.46778  0.69222  0.18259  1.0000
  H   H2088     1.0  0.46599  0.73086  0.11351  1.0000
  H   H2089     1.0  0.29933  0.74927  0.12339  1.0000
  H   H2090     1.0  0.35277  0.76096  0.09729  1.0000
  H   H2091     1.0  0.27205  0.89681  0.26881  1.0000
  H   H2092     1.0  0.48352  0.69317  0.35833  1.0000
  C   C1228     1.0  0.36937  0.74637  0.99674  1.0000
  H   H2093     1.0  0.31862  0.80309  0.02667  1.0000
  S   S360      1.0  0.37047  0.66664  0.28935  1.0000
  S   S361      1.0  0.26946  0.79710  0.02764  1.0000
  H   H2094     1.0  0.35648  0.67882  0.07960  1.0000
  H   H2095     1.0  0.38419  0.79627  0.00812  1.0000
  H   H2096     1.0  0.31491  0.80061  0.12402  1.0000
  C   C1229     1.0  0.44982  0.90669  0.00573  1.0000
  C   C1230     1.0  0.38160  0.66249  0.01752  1.0000
  H   H2097     1.0  0.42287  0.79467  0.11541  1.0000
  C   C1231     1.0  0.31718  0.67381  0.36475  1.0000
  C   C1232     1.0  0.30018  0.76618  0.11762  1.0000
  S   S362      1.0  0.45877  0.66838  0.23802  1.0000
  S   S363      1.0  0.32180  0.78407  0.99178  1.0000
  C   C1233     1.0  0.30155  0.68270  0.27398  1.0000
  C   C1234     1.0  0.43642  0.82315  0.10260  1.0000
  H   H2098     1.0  0.30480  0.84566  0.08801  1.0000
  H   H2099     1.0  0.26563  0.89627  0.02351  1.0000
  H   H2100     1.0  0.39297  0.96395  0.03344  1.0000
  H   H2101     1.0  0.39259  0.91663  0.05082  1.0000
  H   H2102     1.0  0.28441  0.88298  0.41239  1.0000
  H   H2103     1.0  0.27287  0.85664  0.07490  1.0000
  H   H2104     1.0  0.32335  0.90082  0.02401  1.0000
  Fe  Fe179     1.0  0.28647  0.74202  0.06178  1.0000
  H   H2105     1.0  0.31538  0.68592  0.35010  1.0000
  C   C1235     1.0  0.44734  0.84607  0.11882  1.0000
  H   H2106     1.0  0.28375  0.87870  0.07220  1.0000
  H   H2107     1.0  0.30019  0.89654  0.16585  1.0000
  C   C1236     1.0  0.28395  0.69172  0.08209  1.0000
  N   N89       1.0  0.28424  0.87077  0.04251  1.0000
  C   C1237     1.0  0.28841  0.68794  0.06171  1.0000
  C   C1238     1.0  0.32729  0.76095  0.13775  1.0000
  C   C1239     1.0  0.33674  0.82732  0.01480  1.0000
  C   C1240     1.0  0.28582  0.86459  0.06543  1.0000
  C   C1241     1.0  0.28206  0.77813  0.13217  1.0000
  H   H2108     1.0  0.25030  0.74672  0.26150  1.0000
  C   C1242     1.0  0.26773  0.88296  0.41951  1.0000
  H   H2109     1.0  0.26995  0.86857  0.16697  1.0000
  Fe  Fe180     1.0  0.39455  0.70941  0.06030  1.0000
  H   H2110     1.0  0.37276  0.97276  0.10026  1.0000
  H   H2111     1.0  0.46926  0.85401  0.08851  1.0000
  H   H2112     1.0  0.27098  0.68063  0.11469  1.0000
  H   H2113     1.0  0.43075  0.85261  0.12533  1.0000
  H   H2114     1.0  0.35948  0.78315  0.04019  1.0000
  N   N90       1.0  0.34569  0.75563  0.23856  1.0000
  C   C1243     1.0  0.35592  0.75735  0.25555  1.0000
  C   C1244     1.0  0.33906  0.73460  0.24499  1.0000
  C   C1245     1.0  0.32680  0.77349  0.23734  1.0000
  C   C1246     1.0  0.36149  0.75741  0.21814  1.0000
  C   C1247     1.0  0.36260  0.77849  0.25282  1.0000
  C   C1248     1.0  0.35682  0.71494  0.24553  1.0000
  C   C1249     1.0  0.30816  0.76975  0.23024  1.0000
  C   C1250     1.0  0.35482  0.75424  0.19900  1.0000
  H   H2115     1.0  0.34527  0.75469  0.27125  1.0000
  H   H2116     1.0  0.37038  0.74510  0.25680  1.0000
  H   H2117     1.0  0.32978  0.73287  0.23425  1.0000
  H   H2118     1.0  0.32858  0.73321  0.26086  1.0000
  H   H2119     1.0  0.31991  0.77776  0.25304  1.0000
  H   H2120     1.0  0.33137  0.78810  0.22684  1.0000
  H   H2121     1.0  0.36579  0.77316  0.21341  1.0000
  H   H2122     1.0  0.37632  0.74592  0.22013  1.0000
  H   H2123     1.0  0.37588  0.78067  0.23938  1.0000
  H   H2124     1.0  0.34958  0.79227  0.25105  1.0000
  H   H2125     1.0  0.36814  0.77841  0.26712  1.0000
  H   H2126     1.0  0.36696  0.71413  0.25645  1.0000
  H   H2127     1.0  0.34987  0.70062  0.25129  1.0000
  H   H2128     1.0  0.36648  0.71389  0.22966  1.0000
  H   H2129     1.0  0.29660  0.78475  0.22791  1.0000
  H   H2130     1.0  0.29987  0.75847  0.24254  1.0000
  H   H2131     1.0  0.31264  0.76410  0.21533  1.0000
  H   H2132     1.0  0.35009  0.73894  0.20179  1.0000
  H   H2133     1.0  0.36835  0.75439  0.18553  1.0000
  H   H2134     1.0  0.34222  0.76733  0.19398  1.0000
  H   H2135     1.0  0.42384  0.81725  0.14330  1.0000
  S   S364      1.0  0.39431  0.73604  0.07506  1.0000
  H   H2136     1.0  0.26737  0.87039  0.43398  1.0000
  H   H2137     1.0  0.32509  0.74442  0.14385  1.0000
  Fe  Fe181     1.0  0.40360  0.66696  0.27301  1.0000
  C   C1251     1.0  0.32119  0.79315  0.11007  1.0000
  Fe  Fe182     1.0  0.40257  0.71088  0.10223  1.0000
  S   S365      1.0  0.25615  0.76365  0.07110  1.0000
  H   H2138     1.0  0.33199  0.76569  0.08412  1.0000
  H   H2139     1.0  0.27377  0.96170  0.38934  1.0000
  H   H2140     1.0  0.25775  0.86131  0.22040  1.0000
  H   H2141     1.0  0.29822  0.82615  0.31807  1.0000
  S   S366      1.0  0.43704  0.70828  0.09057  1.0000
  S   S367      1.0  0.44226  0.76094  0.04725  1.0000
  C   C1252     1.0  0.48109  0.79091  0.06090  1.0000
  H   H2142     1.0  0.34905  0.77763  0.14329  1.0000
  H   H2143     1.0  0.26941  0.90758  0.23144  1.0000
  H   H2144     1.0  0.47255  0.69072  0.32652  1.0000
  H   H2145     1.0  0.31425  0.68647  0.26111  1.0000
  N   N91       1.0  0.25127  0.86342  0.31368  1.0000
  C   C1253     1.0  0.49290  0.77483  0.07350  1.0000
  H   H2146     1.0  0.44198  0.80214  0.17202  1.0000
  H   H2147     1.0  0.44293  0.83071  0.08625  1.0000
  H   H2148     1.0  0.30057  0.69621  0.38468  1.0000
  C   C1254     1.0  0.41661  0.76282  0.00644  1.0000
  C   C1255     1.0  0.25564  0.69218  0.00087  1.0000
  H   H2149     1.0  0.38075  0.92398  0.08353  1.0000
  H   H2150     1.0  0.38817  0.66508  0.33982  1.0000
  H   H2151     1.0  0.47396  0.79588  0.11338  1.0000
  H   H2152     1.0  0.27141  0.84419  0.01082  1.0000
  C   C1256     1.0  0.27480  0.88239  0.28111  1.0000
  H   H2153     1.0  0.26035  0.83147  0.33015  1.0000
  N   N92       1.0  0.39710  0.76658  0.99785  1.0000
  C   C1257     1.0  0.31617  0.68564  0.38206  1.0000
  C   C1258     1.0  0.27233  0.89396  0.20443  1.0000
  H   H2154     1.0  0.24410  0.75475  0.22507  1.0000
  H   H2155     1.0  0.27277  0.87102  0.00583  1.0000
  C   C1259     1.0  0.34577  0.67795  0.09508  1.0000
  H   H2156     1.0  0.33158  0.69976  0.03982  1.0000
  H   H2157     1.0  0.29625  0.77058  0.10167  1.0000
  H   H2158     1.0  0.34779  0.97400  0.05598  1.0000
  H   H2159     1.0  0.29620  0.91178  0.03152  1.0000
  H   H2160     1.0  0.43539  0.75224  0.13595  1.0000
  C   C1260     1.0  0.28874  0.84231  0.31822  1.0000
  H   H2161     1.0  0.35726  0.67394  0.36706  1.0000
  H   H2162     1.0  0.45823  0.87388  0.02366  1.0000
  H   H2163     1.0  0.37149  0.95224  0.03629  1.0000
  Fe  Fe183     1.0  0.25408  0.76910  0.03728  1.0000
  H   H2164     1.0  0.32870  0.67133  0.02354  1.0000
  S   S368      1.0  0.35823  0.85915  0.00022  1.0000
  C   C1261     1.0  0.30840  0.89741  0.03443  1.0000
  H   H2165     1.0  0.28823  0.66672  0.04255  1.0000
  H   H2166     1.0  0.39895  0.97524  0.09640  1.0000
  C   C1262     1.0  0.48918  0.77537  0.99969  1.0000
  H   H2167     1.0  0.41996  0.77791  0.00752  1.0000
  S   S369      1.0  0.30563  0.76689  0.05378  1.0000
  H   H2168     1.0  0.28646  0.87005  0.27366  1.0000
  H   H2169     1.0  0.25974  0.92045  0.35948  1.0000
  H   H2170     1.0  0.42840  0.74159  0.11759  1.0000
  H   H2171     1.0  0.25357  0.79970  0.35998  1.0000
  H   H2172     1.0  0.41435  0.75372  0.02293  1.0000
  H   H2173     1.0  0.48722  0.66454  0.32730  1.0000
  C   C1263     1.0  0.46125  0.76612  0.05818  1.0000
  C   C1264     1.0  0.25395  0.87506  0.29108  1.0000
  H   H2174     1.0  0.46757  0.70435  0.19129  1.0000
  H   H2175     1.0  0.25608  0.66893  0.31997  1.0000
  N   N93       1.0  0.37658  0.95618  0.06575  1.0000
  C   C1265     1.0  0.30341  0.87844  0.02895  1.0000
  C   C1266     1.0  0.26533  0.88823  0.04024  1.0000
  H   H2176     1.0  0.48405  0.80672  0.05710  1.0000
  S   S370      1.0  0.47950  0.93715  0.06549  1.0000
  H   H2177     1.0  0.26698  0.77587  0.13010  1.0000
  H   H2178     1.0  0.47930  0.73018  0.16601  1.0000
  S   S371      1.0  0.36650  0.71227  0.04654  1.0000
  C   C1267     1.0  0.24436  0.85305  0.19897  1.0000
  C   C1268     1.0  0.37996  0.78083  0.00986  1.0000
  C   C1269     1.0  0.24634  0.71477  0.24385  1.0000
  S   S372      1.0  0.28325  0.74575  0.02837  1.0000
  C   C1270     1.0  0.43494  0.73727  0.13211  1.0000
  N   N94       1.0  0.25526  0.92348  0.40864  1.0000
  H   H2179     1.0  0.32332  0.73066  0.10278  1.0000
  N   N95       1.0  0.44970  0.82340  0.11766  1.0000
  H   H2180     1.0  0.32005  0.85727  0.06407  1.0000
  C   C1271     1.0  0.34553  0.68921  0.03375  1.0000
  C   C1272     1.0  0.46946  0.73506  0.15386  1.0000
  C   C1273     1.0  0.33811  0.73468  0.10343  1.0000
  H   H2181     1.0  0.35383  0.74956  0.15335  1.0000
  H   H2182     1.0  0.43455  0.73457  0.99399  1.0000
  C   C1274     1.0  0.37389  0.77256  0.03371  1.0000
  H   H2183     1.0  0.30421  0.66082  0.33582  1.0000
  C   C1275     1.0  0.33657  0.75866  0.09966  1.0000
  H   H2184     1.0  0.40202  0.97221  0.06223  1.0000
  H   H2185     1.0  0.45411  0.70878  0.12409  1.0000
  C   C1276     1.0  0.27437  0.67779  0.09889  1.0000
  H   H2186     1.0  0.31024  0.80086  0.09911  1.0000
  C   C1277     1.0  0.48881  0.75445  0.07843  1.0000
  C   C1278     1.0  0.30627  0.84975  0.07063  1.0000
  H   H2187     1.0  0.40729  0.94571  0.07355  1.0000
  H   H2188     1.0  0.42375  0.72910  0.14453  1.0000
  Fe  Fe184     1.0  0.25610  0.74133  0.30805  1.0000
  H   H2189     1.0  0.45602  0.87565  0.10088  1.0000
  H   H2190     1.0  0.29585  0.83875  0.03791  1.0000
  H   H2191     1.0  0.33489  0.83082  0.03011  1.0000
  H   H2192     1.0  0.24671  0.91633  0.22017  1.0000
  Fe  Fe185     1.0  0.43388  0.68395  0.07466  1.0000
  H   H2193     1.0  0.28860  0.84581  0.33358  1.0000
  H   H2194     1.0  0.31617  0.76958  0.14953  1.0000
  H   H2195     1.0  0.26010  0.71957  0.23202  1.0000
  H   H2196     1.0  0.34323  0.72628  0.11837  1.0000
  C   C1279     1.0  0.34843  0.83840  0.99713  1.0000
  H   H2197     1.0  0.36160  0.75892  0.12637  1.0000
  H   H2198     1.0  0.39283  0.73559  0.01590  1.0000
  H   H2199     1.0  0.46705  0.67498  0.36324  1.0000
  H   H2200     1.0  0.35690  0.75195  0.00959  1.0000
  H   H2201     1.0  0.29579  0.69864  0.04870  1.0000
  H   H2202     1.0  0.43135  0.88410  0.02566  1.0000
  H   H2203     1.0  0.48152  0.88714  0.03657  1.0000
  H   H2204     1.0  0.26200  0.90583  0.43889  1.0000
  H   H2205     1.0  0.33627  0.94388  0.07478  1.0000
  H   H2206     1.0  0.46956  0.75933  0.12444  1.0000
  C   C1280     1.0  0.42530  0.66423  0.16188  1.0000
  C   C1281     1.0  0.32762  0.81145  0.01291  1.0000
  H   H2207     1.0  0.47591  0.81759  0.09217  1.0000
  C   C1282     1.0  0.48211  0.91512  0.01030  1.0000
  C   C1283     1.0  0.45730  0.70170  0.16342  1.0000
  H   H2208     1.0  0.39836  0.67999  0.02830  1.0000
  H   H2209     1.0  0.28763  0.91390  0.39297  1.0000
  H   H2210     1.0  0.48818  0.67196  0.14564  1.0000
  H   H2211     1.0  0.44916  0.82684  0.16034  1.0000
  H   H2212     1.0  0.33378  0.69275  0.09431  1.0000
  C   C1284     1.0  0.28991  0.89068  0.15905  1.0000
  C   C1285     1.0  0.24959  0.82400  0.09065  1.0000
  H   H2213     1.0  0.44948  0.74783  0.00276  1.0000
  C   C1286     1.0  0.26909  0.66025  0.09524  1.0000
  H   H2214     1.0  0.25165  0.94421  0.43013  1.0000
  C   C1287     1.0  0.47316  0.75005  0.07068  1.0000
  C   C1288     1.0  0.27695  0.87595  0.17581  1.0000
  H   H2215     1.0  0.46708  0.80223  0.15570  1.0000
  H   H2216     1.0  0.26201  0.68187  0.24728  1.0000
  C   C1289     1.0  0.36512  0.69176  0.03514  1.0000
  C   C1290     1.0  0.24571  0.90459  0.18275  1.0000
  H   H2217     1.0  0.24632  0.68976  0.22766  1.0000
  C   C1291     1.0  0.48621  0.67946  0.33204  1.0000
  H   H2218     1.0  0.35551  0.92637  0.05950  1.0000
  H   H2219     1.0  0.25994  0.87823  0.40919  1.0000
  H   H2220     1.0  0.31062  0.89422  0.05085  1.0000
  C   C1292     1.0  0.39438  0.95972  0.07336  1.0000
  C   C1293     1.0  0.36808  0.93806  0.08095  1.0000
  H   H2221     1.0  0.47057  0.73415  0.07403  1.0000
  C   C1294     1.0  0.48105  0.66896  0.40391  1.0000
  C   C1295     1.0  0.38908  0.96453  0.09569  1.0000
  Fe  Fe186     1.0  0.43146  0.65983  0.23093  1.0000
  H   H2222     1.0  0.45376  0.74214  0.16206  1.0000
  H   H2223     1.0  0.44128  0.70982  0.16957  1.0000
  C   C1296     1.0  0.46520  0.78659  0.05342  1.0000
  S   S373      1.0  0.48227  0.98545  0.04020  1.0000
  H   H2224     1.0  0.38627  0.77286  0.04178  1.0000
  C   C1297     1.0  0.25715  0.82227  0.16282  1.0000
  H   H2225     1.0  0.25848  0.70167  0.02936  1.0000
  H   H2226     1.0  0.27170  0.71477  0.00506  1.0000
  C   C1298     1.0  0.24391  0.88172  0.04921  1.0000
  C   C1299     1.0  0.25340  0.87623  0.32830  1.0000
  H   H2227     1.0  0.48663  0.77549  0.01658  1.0000
  C   C1300     1.0  0.28079  0.85502  0.01228  1.0000
  C   C1301     1.0  0.25700  0.90963  0.37503  1.0000
  C   C1302     1.0  0.47856  0.75274  0.13717  1.0000
  C   C1303     1.0  0.48332  0.67731  0.35609  1.0000
  H   H2228     1.0  0.48744  0.87566  0.00227  1.0000
  H   H2229     1.0  0.28526  0.88120  0.20981  1.0000
  C   C1304     1.0  0.48942  0.81883  0.11737  1.0000
  H   H2230     1.0  0.25048  0.86742  0.34493  1.0000
  H   H2231     1.0  0.32232  0.66353  0.09137  1.0000
  H   H2232     1.0  0.27990  0.90701  0.19428  1.0000
  C   C1305     1.0  0.26879  0.67286  0.30724  1.0000
  H   H2233     1.0  0.34993  0.97727  0.08052  1.0000
  H   H2234     1.0  0.25239  0.86515  0.28073  1.0000
  H   H2235     1.0  0.48513  0.93982  0.16292  1.0000
  C   C1306     1.0  0.24904  0.87016  0.20770  1.0000
  C   C1307     1.0  0.24426  0.92223  0.39211  1.0000
  H   H2236     1.0  0.48445  0.82509  0.13194  1.0000
  C   C1308     1.0  0.43650  0.75040  0.99438  1.0000
  H   H2237     1.0  0.24953  0.71435  0.25943  1.0000
  H   H2238     1.0  0.48373  0.68544  0.11960  1.0000
  C   C1309     1.0  0.35928  0.97550  0.06462  1.0000
  C   C1310     1.0  0.24699  0.69169  0.24340  1.0000
  H   H2239     1.0  0.48338  0.67720  0.41534  1.0000
  C   C1311     1.0  0.30159  0.66169  0.28427  1.0000
  H   H2240     1.0  0.27077  0.68071  0.99989  1.0000
  H   H2241     1.0  0.48392  0.68330  0.17845  1.0000
  C   C1312     1.0  0.33082  0.80592  0.99344  1.0000
  H   H2242     1.0  0.25185  0.89017  0.23627  1.0000
  H   H2243     1.0  0.30277  0.66727  0.36922  1.0000
  S   S374      1.0  0.49280  0.96936  0.08773  1.0000
  C   C1313     1.0  0.49230  0.89735  0.02658  1.0000
  H   H2244     1.0  0.44105  0.90581  0.99403  1.0000
  H   H2245     1.0  0.36546  0.66098  0.16595  1.0000
  H   H2246     1.0  0.42466  0.98343  0.99088  1.0000
  C   C1314     1.0  0.36198  0.65990  0.01613  1.0000
  C   C1315     1.0  0.24328  0.94195  0.41872  1.0000
  Fe  Fe187     1.0  0.24334  0.77381  0.33553  1.0000
  C   C1316     1.0  0.34296  0.81664  0.97575  1.0000
  H   H2247     1.0  0.40620  0.98698  0.73504  1.0000
  C   C1317     1.0  0.47681  0.88062  0.97374  1.0000
  S   S375      1.0  0.41065  0.87584  0.98509  1.0000
  H   H2248     1.0  0.46958  0.85637  0.85733  1.0000
  H   H2249     1.0  0.47235  0.88504  0.81846  1.0000
  C   C1318     1.0  0.46630  0.92075  0.87587  1.0000
  H   H2250     1.0  0.42968  0.87192  0.86894  1.0000
  H   H2251     1.0  0.39787  0.97508  0.79902  1.0000
  H   H2252     1.0  0.44944  0.87427  0.83277  1.0000
  H   H2253     1.0  0.47686  0.89138  0.95818  1.0000
  C   C1319     1.0  0.44061  0.86348  0.87963  1.0000
  C   C1320     1.0  0.45426  0.89983  0.84535  1.0000
  C   C1321     1.0  0.46004  0.89922  0.88012  1.0000
  H   H2254     1.0  0.38537  0.78109  0.96920  1.0000
  C   C1322     1.0  0.44253  0.96899  0.92367  1.0000
  Fe  Fe188     1.0  0.42988  0.86321  0.95692  1.0000
  S   S376      1.0  0.40293  0.85649  0.94753  1.0000
  S   S377      1.0  0.46066  0.84155  0.95996  1.0000
  Fe  Fe189     1.0  0.40747  0.90718  0.96306  1.0000
  S   S378      1.0  0.37828  0.90436  0.95471  1.0000
  H   H2255     1.0  0.25428  0.67833  0.96541  1.0000
  H   H2256     1.0  0.43330  0.99083  0.75222  1.0000
  Fe  Fe190     1.0  0.40039  0.88977  0.92881  1.0000
  S   S379      1.0  0.39466  0.89978  0.89577  1.0000
  S   S380      1.0  0.42941  0.89495  0.93578  1.0000
  C   C1323     1.0  0.27975  0.97813  0.62765  1.0000
  H   H2257     1.0  0.41127  0.80316  0.95161  1.0000
  N   N96       1.0  0.46683  0.88799  0.86194  1.0000
  S   S381      1.0  0.44613  0.97355  0.79440  1.0000
  H   H2258     1.0  0.38983  0.96959  0.92389  1.0000
  H   H2259     1.0  0.47257  0.85751  0.88234  1.0000
  H   H2260     1.0  0.45872  0.91535  0.83787  1.0000
  C   C1324     1.0  0.38240  0.98510  0.80395  1.0000
  Fe  Fe191     1.0  0.47921  0.95553  0.79433  1.0000
  H   H2261     1.0  0.46199  0.95962  0.96431  1.0000
  H   H2262     1.0  0.41184  0.95591  0.83540  1.0000
  H   H2263     1.0  0.42406  0.79550  0.97341  1.0000
  H   H2264     1.0  0.37185  0.97466  0.81431  1.0000
  H   H2265     1.0  0.45958  0.92785  0.89001  1.0000
  C   C1325     1.0  0.41068  0.97698  0.95814  1.0000
  C   C1326     1.0  0.47152  0.92600  0.97614  1.0000
  H   H2266     1.0  0.24974  0.89831  0.50438  1.0000
  H   H2267     1.0  0.27638  0.97149  0.64483  1.0000
  H   H2268     1.0  0.36560  0.98673  0.78034  1.0000
  H   H2269     1.0  0.27453  0.96863  0.61929  1.0000
  S   S382      1.0  0.48121  0.96241  0.82468  1.0000
  H   H2270     1.0  0.49293  0.90306  0.84411  1.0000
  H   H2271     1.0  0.39744  0.81044  0.97582  1.0000
  H   H2272     1.0  0.36640  0.96435  0.94170  1.0000
  H   H2273     1.0  0.45993  0.93192  0.86261  1.0000
  Fe  Fe192     1.0  0.38332  0.87164  0.97428  1.0000
  Fe  Fe193     1.0  0.44967  0.98292  0.82292  1.0000
  H   H2274     1.0  0.43968  0.84660  0.88312  1.0000
  H   H2275     1.0  0.44145  0.75908  0.97816  1.0000
  H   H2276     1.0  0.46580  0.88927  0.89434  1.0000
  H   H2277     1.0  0.29687  0.97605  0.62213  1.0000
  H   H2278     1.0  0.36943  0.96337  0.91476  1.0000
  H   H2279     1.0  0.44275  0.90207  0.88524  1.0000
  C   C1327     1.0  0.43356  0.95240  0.93737  1.0000
  C   C1328     1.0  0.41790  0.95638  0.95492  1.0000
  H   H2280     1.0  0.43916  0.93654  0.93468  1.0000
  C   C1329     1.0  0.40208  0.92397  0.88372  1.0000
  C   C1330     1.0  0.40309  0.93168  0.86209  1.0000
  C   C1331     1.0  0.41105  0.94996  0.85210  1.0000
  C   C1332     1.0  0.41756  0.96073  0.86387  1.0000
  C   C1333     1.0  0.41628  0.95315  0.88548  1.0000
  C   C1334     1.0  0.40832  0.93498  0.89542  1.0000
  H   H2281     1.0  0.39816  0.92323  0.85301  1.0000
  H   H2282     1.0  0.46272  0.92292  0.96559  1.0000
  H   H2283     1.0  0.42147  0.96132  0.89456  1.0000
  H   H2284     1.0  0.40698  0.92957  0.91219  1.0000
  H   H2285     1.0  0.39847  0.98021  0.97155  1.0000
  H   H2286     1.0  0.43740  0.90359  0.85245  1.0000
  C   C1335     1.0  0.37271  0.97193  0.92534  1.0000
  H   H2287     1.0  0.38186  0.98342  0.88294  1.0000
  C   C1336     1.0  0.43565  0.98953  0.92741  1.0000
  H   H2288     1.0  0.45485  0.96590  0.91031  1.0000
  H   H2289     1.0  0.34566  0.81226  0.96068  1.0000
  H   H2290     1.0  0.36063  0.84151  0.96380  1.0000
  C   C1337     1.0  0.46125  0.94848  0.97976  1.0000
  H   H2291     1.0  0.36643  0.75615  0.98137  1.0000
  S   S383      1.0  0.40804  0.93601  0.97402  1.0000
  C   C1338     1.0  0.45607  0.88873  0.82722  1.0000
  H   H2292     1.0  0.46094  0.87724  0.98067  1.0000
  H   H2293     1.0  0.48728  0.86550  0.97080  1.0000
  H   H2294     1.0  0.44446  0.94975  0.98716  1.0000
  H   H2295     1.0  0.44689  0.89955  0.81572  1.0000
  C   C1339     1.0  0.40880  0.79761  0.96897  1.0000
  C   C1340     1.0  0.46342  0.86575  0.86991  1.0000
  H   H2296     1.0  0.34223  0.98460  0.89611  1.0000
  S   S384      1.0  0.42537  0.98475  0.85236  1.0000
  C   C1341     1.0  0.47249  0.81861  0.90691  1.0000
  C   C1342     1.0  0.46190  0.82688  0.92486  1.0000
  C   C1343     1.0  0.47324  0.83189  0.93714  1.0000
  C   C1344     1.0  0.35163  0.83301  0.97755  1.0000
  H   H2297     1.0  0.46379  0.81487  0.89727  1.0000
  H   H2298     1.0  0.44503  0.82925  0.92925  1.0000
  C   C1345     1.0  0.48962  0.88721  0.85228  1.0000
  S   S385      1.0  0.49049  0.92225  0.78951  1.0000
  H   H2299     1.0  0.43514  0.86886  0.89480  1.0000
  H   H2300     1.0  0.41108  0.76604  0.96502  1.0000
  H   H2301     1.0  0.48349  0.91926  0.87289  1.0000
  H   H2302     1.0  0.46859  0.78830  0.97628  1.0000
  C   C1346     1.0  0.40035  0.77702  0.97486  1.0000
  C   C1347     1.0  0.48518  0.88894  0.98878  1.0000
  H   H2303     1.0  0.35209  0.98538  0.86876  1.0000
  H   H2304     1.0  0.25510  0.70085  0.98444  1.0000
  H   H2305     1.0  0.40254  0.73644  0.98884  1.0000
  H   H2306     1.0  0.48763  0.92660  0.96679  1.0000
  H   H2307     1.0  0.46932  0.95400  0.98923  1.0000
  H   H2308     1.0  0.58649  0.22193  0.09687  1.0000
  H   H2309     1.0  0.68330  0.18014  0.02737  1.0000
  H   H2310     1.0  0.61704  0.13428  0.17722  1.0000
  H   H2311     1.0  0.71488  0.10855  0.28262  1.0000
  H   H2312     1.0  0.73938  0.10601  0.26389  1.0000
  S   S386      1.0  0.71495  0.00744  0.15535  1.0000
  N   N97       1.0  0.56252  0.24457  0.11187  1.0000
  C   C1348     1.0  0.52069  0.03417  0.07849  1.0000
  Fe  Fe194     1.0  0.69137  0.04717  0.21613  1.0000
  S   S387      1.0  0.65922  0.05482  0.23540  1.0000
  S   S388      1.0  0.71901  0.05737  0.22000  1.0000
  Fe  Fe195     1.0  0.52467  0.11889  0.00401  1.0000
  H   H2313     1.0  0.67779  0.28669  0.09603  1.0000
  C   C1349     1.0  0.68061  0.11978  0.17410  1.0000
  S   S389      1.0  0.57865  0.09797  0.02097  1.0000
  H   H2314     1.0  0.59992  0.03233  0.13045  1.0000
  S   S390      1.0  0.56505  0.30716  0.35429  1.0000
  H   H2315     1.0  0.64454  0.28698  0.28847  1.0000
  C   C1350     1.0  0.70546  0.24257  0.27922  1.0000
  C   C1351     1.0  0.70988  0.01988  0.01097  1.0000
  Fe  Fe196     1.0  0.59384  0.30959  0.36363  1.0000
  S   S391      1.0  0.62461  0.28756  0.35456  1.0000
  C   C1352     1.0  0.69294  0.99403  0.13350  1.0000
  S   S392      1.0  0.52104  0.30248  0.40538  1.0000
  C   C1353     1.0  0.57159  0.26272  0.09721  1.0000
  Fe  Fe197     1.0  0.62426  0.19626  0.09064  1.0000
  S   S393      1.0  0.65839  0.18272  0.08139  1.0000
  S   S394      1.0  0.59929  0.17770  0.09368  1.0000
  Fe  Fe198     1.0  0.63333  0.23578  0.09912  1.0000
  S   S395      1.0  0.66797  0.22522  0.09049  1.0000
  H   H2316     1.0  0.61064  0.05420  0.04667  1.0000
  Fe  Fe199     1.0  0.66097  0.21564  0.06378  1.0000
  S   S396      1.0  0.67614  0.22472  0.02985  1.0000
  Fe  Fe200     1.0  0.66197  0.19369  0.10913  1.0000
  S   S397      1.0  0.68222  0.17384  0.13198  1.0000
  S   S398      1.0  0.62652  0.22846  0.07096  1.0000
  S   S399      1.0  0.62757  0.20494  0.11988  1.0000
  Fe  Fe201     1.0  0.68455  0.17297  0.28306  1.0000
  S   S400      1.0  0.65650  0.16507  0.30712  1.0000
  S   S401      1.0  0.71649  0.16885  0.28906  1.0000
  Fe  Fe202     1.0  0.66113  0.19092  0.24782  1.0000
  S   S402      1.0  0.63079  0.18459  0.26863  1.0000
  S   S403      1.0  0.66195  0.20996  0.21495  1.0000
  Fe  Fe203     1.0  0.63993  0.19682  0.29258  1.0000
  S   S404      1.0  0.61436  0.21790  0.31116  1.0000
  Fe  Fe204     1.0  0.64992  0.15351  0.28125  1.0000
  S   S405      1.0  0.63628  0.12441  0.29025  1.0000
  S   S406      1.0  0.66870  0.20582  0.27068  1.0000
  S   S407      1.0  0.67959  0.15873  0.25823  1.0000
  C   C1354     1.0  0.67646  0.18316  0.15552  1.0000
  C   C1355     1.0  0.66156  0.20153  0.15776  1.0000
  C   C1356     1.0  0.65690  0.20901  0.17641  1.0000
  C   C1357     1.0  0.66684  0.19818  0.19312  1.0000
  C   C1358     1.0  0.68163  0.17958  0.19114  1.0000
  C   C1359     1.0  0.68657  0.17217  0.17223  1.0000
  H   H2317     1.0  0.65398  0.21041  0.14492  1.0000
  H   H2318     1.0  0.64579  0.22350  0.17782  1.0000
  H   H2319     1.0  0.68969  0.17132  0.20385  1.0000
  H   H2320     1.0  0.69841  0.15811  0.17044  1.0000
  C   C1360     1.0  0.62256  0.26698  0.34357  1.0000
  C   C1361     1.0  0.63997  0.25704  0.33048  1.0000
  C   C1362     1.0  0.63802  0.24138  0.32083  1.0000
  C   C1363     1.0  0.61862  0.23569  0.32428  1.0000
  C   C1364     1.0  0.60149  0.24528  0.33774  1.0000
  C   C1365     1.0  0.60350  0.26065  0.34750  1.0000
  H   H2321     1.0  0.65482  0.26178  0.32738  1.0000
  H   H2322     1.0  0.65132  0.23402  0.31046  1.0000
  H   H2323     1.0  0.58651  0.24079  0.34064  1.0000
  H   H2324     1.0  0.59027  0.26738  0.35828  1.0000
  C   C1366     1.0  0.56529  0.29290  0.45758  1.0000
  H   H2325     1.0  0.71533  0.19428  0.00851  1.0000
  H   H2326     1.0  0.59748  0.30423  0.28790  1.0000
  H   H2327     1.0  0.62181  0.09958  0.18483  1.0000
  H   H2328     1.0  0.61232  0.05218  0.11287  1.0000
  H   H2329     1.0  0.60788  0.06511  0.07879  1.0000
  H   H2330     1.0  0.57558  0.27917  0.12043  1.0000
  H   H2331     1.0  0.58241  0.04932  0.01202  1.0000
  C   C1367     1.0  0.56621  0.24691  0.47171  1.0000
  H   H2332     1.0  0.72300  0.26733  0.15577  1.0000
  C   C1368     1.0  0.59431  0.17136  0.07147  1.0000
  C   C1369     1.0  0.58093  0.15730  0.07452  1.0000
  C   C1370     1.0  0.57610  0.15245  0.05722  1.0000
  C   C1371     1.0  0.58436  0.16190  0.03669  1.0000
  S   S408      1.0  0.62232  0.26857  0.10546  1.0000
  C   C1372     1.0  0.60288  0.18050  0.05093  1.0000
  H   H2333     1.0  0.57416  0.15022  0.09034  1.0000
  H   H2334     1.0  0.56563  0.14176  0.05977  1.0000
  C   C1373     1.0  0.71187  0.04310  0.00246  1.0000
  C   C1374     1.0  0.65418  0.07410  0.25053  1.0000
  C   C1375     1.0  0.66704  0.08878  0.24663  1.0000
  C   C1376     1.0  0.66174  0.10458  0.25859  1.0000
  C   C1377     1.0  0.64379  0.10538  0.27459  1.0000
  C   C1378     1.0  0.63123  0.09056  0.27852  1.0000
  C   C1379     1.0  0.63627  0.07515  0.26640  1.0000
  H   H2335     1.0  0.68080  0.08821  0.23421  1.0000
  H   H2336     1.0  0.67150  0.11601  0.25555  1.0000
  H   H2337     1.0  0.61737  0.09112  0.29090  1.0000
  H   H2338     1.0  0.62626  0.06392  0.26945  1.0000
  H   H2339     1.0  0.50486  0.27991  0.47322  1.0000
  C   C1380     1.0  0.66291  0.28762  0.05978  1.0000
  H   H2340     1.0  0.70426  0.22723  0.05557  1.0000
  C   C1381     1.0  0.50489  0.06817  0.06017  1.0000
  H   H2341     1.0  0.60218  0.02805  0.02073  1.0000
  H   H2342     1.0  0.73798  0.05340  0.08350  1.0000
  H   H2343     1.0  0.56345  0.29622  0.47334  1.0000
  H   H2344     1.0  0.55027  0.28032  0.43990  1.0000
  C   C1382     1.0  0.72217  0.11022  0.32616  1.0000
  C   C1383     1.0  0.71336  0.13010  0.31529  1.0000
  C   C1384     1.0  0.72635  0.14402  0.30314  1.0000
  S   S409      1.0  0.73517  0.28166  0.19259  1.0000
  H   H2345     1.0  0.73830  0.11679  0.12032  1.0000
  H   H2346     1.0  0.71220  0.09954  0.33572  1.0000
  H   H2347     1.0  0.69663  0.13467  0.31641  1.0000
  H   H2348     1.0  0.62857  0.25136  0.47993  1.0000
  S   S410      1.0  0.53973  0.08479  0.00932  1.0000
  H   H2349     1.0  0.58220  0.20434  0.13676  1.0000
  H   H2350     1.0  0.62343  0.29744  0.23129  1.0000
  H   H2351     1.0  0.56902  0.23223  0.44483  1.0000
  C   C1385     1.0  0.62495  0.02151  0.10627  1.0000
  H   H2352     1.0  0.61388  0.24558  0.14844  1.0000
  H   H2353     1.0  0.61658  0.02988  0.06473  1.0000
  H   H2354     1.0  0.73095  0.17811  0.07173  1.0000
  C   C1386     1.0  0.71065  0.23280  0.03920  1.0000
  C   C1387     1.0  0.69992  0.23330  0.02365  1.0000
  H   H2355     1.0  0.67418  0.00366  0.18290  1.0000
  H   H2356     1.0  0.71777  0.10159  0.12883  1.0000
  H   H2357     1.0  0.70281  0.01813  0.02804  1.0000
  N   N98       1.0  0.71624  0.24330  0.14334  1.0000
  N   N99       1.0  0.72707  0.16918  0.03266  1.0000
  C   C1388     1.0  0.69401  0.24572  0.15570  1.0000
  C   C1389     1.0  0.71685  0.23988  0.12176  1.0000
  H   H2358     1.0  0.63080  0.09376  0.00778  1.0000
  H   H2359     1.0  0.55074  0.01653  0.00812  1.0000
  C   C1390     1.0  0.69108  0.24683  0.17901  1.0000
  C   C1391     1.0  0.71017  0.21996  0.12047  1.0000
  S   S411      1.0  0.70112  0.31705  0.46420  1.0000
  H   H2360     1.0  0.71118  0.27738  0.13335  1.0000
  S   S412      1.0  0.73607  0.09531  0.16952  1.0000
  H   H2361     1.0  0.68651  0.23287  0.15568  1.0000
  H   H2362     1.0  0.68393  0.26010  0.14813  1.0000
  H   H2363     1.0  0.70678  0.25348  0.11329  1.0000
  C   C1392     1.0  0.63553  0.25568  0.24452  1.0000
  H   H2364     1.0  0.53598  0.24993  0.44978  1.0000
  H   H2365     1.0  0.62590  0.30284  0.30506  1.0000
  H   H2366     1.0  0.73708  0.23195  0.28474  1.0000
  C   C1393     1.0  0.69663  0.30058  0.30292  1.0000
  S   S413      1.0  0.67542  0.29681  0.21512  1.0000
  H   H2367     1.0  0.69812  0.23180  0.18838  1.0000
  H   H2368     1.0  0.51046  0.23952  0.12511  1.0000
  H   H2369     1.0  0.67408  0.24968  0.18594  1.0000
  H   H2370     1.0  0.71157  0.21983  0.10363  1.0000
  H   H2371     1.0  0.69364  0.21962  0.12798  1.0000
  H   H2372     1.0  0.72058  0.20532  0.12665  1.0000
  H   H2373     1.0  0.63646  0.01867  0.11649  1.0000
  H   H2374     1.0  0.58112  0.28344  0.45310  1.0000
  H   H2375     1.0  0.72395  0.20129  0.18205  1.0000
  C   C1394     1.0  0.64183  0.10657  0.20274  1.0000
  C   C1395     1.0  0.64848  0.13847  0.20897  1.0000
  C   C1396     1.0  0.63143  0.14269  0.22846  1.0000
  H   H2376     1.0  0.65684  0.09814  0.20759  1.0000
  H   H2377     1.0  0.62972  0.10485  0.21744  1.0000
  H   H2378     1.0  0.66223  0.12785  0.21497  1.0000
  H   H2379     1.0  0.65308  0.12730  0.16050  1.0000
  H   H2380     1.0  0.60849  0.13804  0.20312  1.0000
  H   H2381     1.0  0.63838  0.14745  0.23950  1.0000
  H   H2382     1.0  0.62503  0.12852  0.23716  1.0000
  C   C1397     1.0  0.69727  0.29021  0.06388  1.0000
  C   C1398     1.0  0.64306  0.27654  0.45959  1.0000
  C   C1399     1.0  0.53910  0.25174  0.11701  1.0000
  H   H2383     1.0  0.68734  0.28863  0.31247  1.0000
  H   H2384     1.0  0.49669  0.25534  0.47830  1.0000
  C   C1400     1.0  0.50996  0.31661  0.42553  1.0000
  H   H2385     1.0  0.58041  0.25547  0.43779  1.0000
  H   H2386     1.0  0.73107  0.07951  0.25015  1.0000
  H   H2387     1.0  0.50548  0.08441  0.05278  1.0000
  H   H2388     1.0  0.65196  0.22774  0.42277  1.0000
  H   H2389     1.0  0.50263  0.00988  0.08624  1.0000
  C   C1401     1.0  0.72820  0.24576  0.99674  1.0000
  Fe  Fe205     1.0  0.71556  0.02424  0.18090  1.0000
  N   N100      1.0  0.73820  0.22688  0.25357  1.0000
  H   H2390     1.0  0.71125  0.29729  0.05675  1.0000
  S   S414      1.0  0.66189  0.30854  0.43512  1.0000
  H   H2391     1.0  0.65336  0.12182  0.00474  1.0000
  H   H2392     1.0  0.53486  0.26415  0.12651  1.0000
  H   H2393     1.0  0.55574  0.21291  0.15023  1.0000
  H   H2394     1.0  0.53273  0.25986  0.10258  1.0000
  H   H2395     1.0  0.70356  0.19065  0.04953  1.0000
  C   C1402     1.0  0.63284  0.27874  0.16668  1.0000
  C   C1403     1.0  0.55888  0.01049  0.99361  1.0000
  H   H2396     1.0  0.71786  0.24575  0.38451  1.0000
  H   H2397     1.0  0.55536  0.00568  0.05939  1.0000
  H   H2398     1.0  0.56853  0.03001  0.09087  1.0000
  H   H2399     1.0  0.71491  0.24142  0.21816  1.0000
  H   H2400     1.0  0.55186  0.29028  0.10999  1.0000
  C   C1404     1.0  0.70886  0.23078  0.23285  1.0000
  C   C1405     1.0  0.57173  0.23893  0.13144  1.0000
  H   H2401     1.0  0.64967  0.09356  0.17381  1.0000
  H   H2402     1.0  0.64732  0.07237  0.99656  1.0000
  H   H2403     1.0  0.63842  0.07726  0.19708  1.0000
  N   N101      1.0  0.72522  0.06508  0.28328  1.0000
  H   H2404     1.0  0.58848  0.24038  0.12723  1.0000
  S   S415      1.0  0.57793  0.15720  0.01440  1.0000
  C   C1406     1.0  0.64189  0.29833  0.45396  1.0000
  H   H2405     1.0  0.58632  0.07817  0.12276  1.0000
  C   C1407     1.0  0.63002  0.29920  0.28907  1.0000
  H   H2406     1.0  0.56861  0.99779  0.11872  1.0000
  H   H2407     1.0  0.56423  0.21186  0.11064  1.0000
  H   H2408     1.0  0.73659  0.32301  0.32538  1.0000
  C   C1408     1.0  0.69245  0.00020  0.15222  1.0000
  H   H2409     1.0  0.72902  0.03100  0.29038  1.0000
  H   H2410     1.0  0.73499  0.04235  0.26315  1.0000
  C   C1409     1.0  0.50776  0.26509  0.46763  1.0000
  H   H2411     1.0  0.56882  0.24152  0.06729  1.0000
  C   C1410     1.0  0.63765  0.09389  0.18849  1.0000
  C   C1411     1.0  0.61647  0.99319  0.99989  1.0000
  H   H2412     1.0  0.69603  0.05331  0.00416  1.0000
  C   C1412     1.0  0.50833  0.05161  0.00974  1.0000
  C   C1413     1.0  0.57757  0.24140  0.45015  1.0000
  H   H2413     1.0  0.69298  0.23416  0.27991  1.0000
  H   H2414     1.0  0.70704  0.13503  0.04739  1.0000
  C   C1414     1.0  0.64454  0.13742  0.99817  1.0000
  H   H2415     1.0  0.63661  0.14531  0.01163  1.0000
  Fe  Fe206     1.0  0.65853  0.30290  0.18859  1.0000
  S   S416      1.0  0.68741  0.30447  0.16358  1.0000
  H   H2416     1.0  0.54859  0.00088  0.99151  1.0000
  N   N102      1.0  0.67290  0.25878  0.39158  1.0000
  C   C1415     1.0  0.65051  0.26012  0.40347  1.0000
  C   C1416     1.0  0.67791  0.28028  0.38781  1.0000
  C   C1417     1.0  0.68678  0.24287  0.40526  1.0000
  C   C1418     1.0  0.67460  0.25187  0.37138  1.0000
  C   C1419     1.0  0.64278  0.23912  0.41163  1.0000
  H   H2417     1.0  0.53308  0.29438  0.45844  1.0000
  N   N103      1.0  0.72977  0.00371  0.00695  1.0000
  H   H2418     1.0  0.52365  0.23411  0.14673  1.0000
  C   C1420     1.0  0.58718  0.26153  0.27684  1.0000
  C   C1421     1.0  0.53049  0.25238  0.46624  1.0000
  H   H2419     1.0  0.69018  0.17985  0.00016  1.0000
  H   H2420     1.0  0.68059  0.24376  0.42215  1.0000
  H   H2421     1.0  0.68685  0.22654  0.40415  1.0000
  H   H2422     1.0  0.67150  0.23569  0.37477  1.0000
  H   H2423     1.0  0.66214  0.26141  0.36284  1.0000
  H   H2424     1.0  0.66428  0.29565  0.35968  1.0000
  H   H2425     1.0  0.73917  0.23660  0.04533  1.0000
  H   H2426     1.0  0.64660  0.30466  0.14721  1.0000
  H   H2427     1.0  0.58667  0.26059  0.29370  1.0000
  H   H2428     1.0  0.69227  0.31087  0.33193  1.0000
  H   H2429     1.0  0.64792  0.26755  0.41729  1.0000
  C   C1422     1.0  0.62105  0.25844  0.14806  1.0000
  S   S417      1.0  0.54429  0.06467  0.06647  1.0000
  H   H2430     1.0  0.70618  0.17248  0.08563  1.0000
  H   H2431     1.0  0.68656  0.31275  0.29315  1.0000
  H   H2432     1.0  0.69095  0.12393  0.15855  1.0000
  C   C1423     1.0  0.71112  0.17373  0.05204  1.0000
  H   H2433     1.0  0.56424  0.23171  0.48267  1.0000
  H   H2434     1.0  0.52067  0.31335  0.34311  1.0000
  N   N104      1.0  0.61466  0.28522  0.26470  1.0000
  H   H2435     1.0  0.72461  0.21205  0.28495  1.0000
  H   H2436     1.0  0.66843  0.27019  0.06231  1.0000
  H   H2437     1.0  0.50359  0.26930  0.45186  1.0000
  H   H2438     1.0  0.73523  0.23169  0.16712  1.0000
  C   C1424     1.0  0.73720  0.14623  0.03508  1.0000
  H   H2439     1.0  0.70405  0.25731  0.26725  1.0000
  H   H2440     1.0  0.69763  0.01743  0.00386  1.0000
  H   H2441     1.0  0.68700  0.31151  0.08639  1.0000
  H   H2442     1.0  0.72761  0.17022  0.99990  1.0000
  H   H2443     1.0  0.70265  0.24769  0.29438  1.0000
  C   C1425     1.0  0.63959  0.29171  0.14748  1.0000
  H   H2444     1.0  0.59382  0.28161  0.24625  1.0000
  C   C1426     1.0  0.72754  0.31339  0.40694  1.0000
  C   C1427     1.0  0.73992  0.06178  0.12652  1.0000
  H   H2445     1.0  0.73521  0.06877  0.14082  1.0000
  H   H2446     1.0  0.71716  0.12324  0.10700  1.0000
  H   H2447     1.0  0.68000  0.29894  0.01797  1.0000
  H   H2448     1.0  0.65025  0.25905  0.23364  1.0000
  H   H2449     1.0  0.65068  0.28541  0.03308  1.0000
  C   C1428     1.0  0.72303  0.13032  0.03856  1.0000
  S   S418      1.0  0.57718  0.31564  0.39588  1.0000
  H   H2450     1.0  0.72386  0.04150  0.11776  1.0000
  C   C1429     1.0  0.50401  0.32156  0.34444  1.0000
  H   H2451     1.0  0.63945  0.27040  0.39351  1.0000
  H   H2452     1.0  0.56444  0.30821  0.44632  1.0000
  H   H2453     1.0  0.68524  0.09619  0.30347  1.0000
  H   H2454     1.0  0.68165  0.07679  0.29089  1.0000
  C   C1430     1.0  0.71938  0.16857  0.07259  1.0000
  C   C1431     1.0  0.62328  0.26235  0.16692  1.0000
  H   H2455     1.0  0.60422  0.18332  0.01784  1.0000
  H   H2456     1.0  0.62253  0.16792  0.16240  1.0000
  C   C1432     1.0  0.70467  0.30976  0.31764  1.0000
  H   H2457     1.0  0.62297  0.26115  0.23537  1.0000
  H   H2458     1.0  0.71772  0.29761  0.32330  1.0000
  C   C1433     1.0  0.66403  0.29855  0.37530  1.0000
  H   H2459     1.0  0.63709  0.23834  0.24938  1.0000
  C   C1434     1.0  0.74097  0.24820  0.24033  1.0000
  N   N105      1.0  0.58868  0.04422  0.10120  1.0000
  C   C1435     1.0  0.57057  0.05846  0.11237  1.0000
  H   H2460     1.0  0.70053  0.24017  0.99036  1.0000
  C   C1436     1.0  0.71169  0.29932  0.01758  1.0000
  C   C1437     1.0  0.60598  0.03820  0.11346  1.0000
  H   H2461     1.0  0.58352  0.00634  0.13227  1.0000
  Fe  Fe207     1.0  0.72672  0.06432  0.18490  1.0000
  C   C1438     1.0  0.61878  0.16476  0.17989  1.0000
  H   H2462     1.0  0.55668  0.06170  0.10500  1.0000
  H   H2463     1.0  0.56551  0.05081  0.12905  1.0000
  C   C1439     1.0  0.67478  0.99901  0.16839  1.0000
  H   H2464     1.0  0.57674  0.29415  0.09436  1.0000
  H   H2465     1.0  0.58266  0.06866  0.07368  1.0000
  H   H2466     1.0  0.53353  0.02411  0.08539  1.0000
  H   H2467     1.0  0.67691  0.28446  0.40313  1.0000
  H   H2468     1.0  0.73291  0.23893  0.11208  1.0000
  H   H2469     1.0  0.71542  0.31553  0.42057  1.0000
  C   C1440     1.0  0.52173  0.05508  0.06865  1.0000
  C   C1441     1.0  0.62112  0.14081  0.18901  1.0000
  H   H2470     1.0  0.56579  0.21492  0.07435  1.0000
  H   H2471     1.0  0.67009  0.31314  0.37267  1.0000
  H   H2472     1.0  0.69723  0.25974  0.18125  1.0000
  H   H2473     1.0  0.53256  0.21915  0.12608  1.0000
  S   S419      1.0  0.69726  0.05722  0.18108  1.0000
  H   H2474     1.0  0.65387  0.15344  0.20137  1.0000
  H   H2475     1.0  0.57746  0.21535  0.15942  1.0000
  H   H2476     1.0  0.67793  0.07258  0.31860  1.0000
  C   C1442     1.0  0.72025  0.05706  0.12227  1.0000
  H   H2477     1.0  0.57722  0.25277  0.47767  1.0000
  H   H2478     1.0  0.70434  0.28795  0.09419  1.0000
  C   C1443     1.0  0.60412  0.04377  0.06128  1.0000
  H   H2479     1.0  0.70335  0.26429  0.35419  1.0000
  H   H2480     1.0  0.63302  0.02687  0.08996  1.0000
  C   C1444     1.0  0.70871  0.23987  0.00246  1.0000
  H   H2481     1.0  0.64662  0.26848  0.26485  1.0000
  H   H2482     1.0  0.70065  0.22070  0.22825  1.0000
  C   C1445     1.0  0.72404  0.04477  0.27820  1.0000
  C   C1446     1.0  0.71105  0.06836  0.30403  1.0000
  H   H2483     1.0  0.64077  0.29911  0.11403  1.0000
  S   S420      1.0  0.70754  0.01351  0.21605  1.0000
  C   C1447     1.0  0.70245  0.04238  0.27648  1.0000
  C   C1448     1.0  0.68790  0.07910  0.30366  1.0000
  H   H2484     1.0  0.71539  0.11708  0.25502  1.0000
  C   C1449     1.0  0.54780  0.28245  0.45636  1.0000
  H   H2485     1.0  0.70463  0.08480  0.26241  1.0000
  H   H2486     1.0  0.55982  0.08932  0.12056  1.0000
  H   H2487     1.0  0.69701  0.24014  0.24337  1.0000
  H   H2488     1.0  0.61202  0.99483  0.01657  1.0000
  H   H2489     1.0  0.71123  0.05312  0.31556  1.0000
  H   H2490     1.0  0.70993  0.29245  0.29234  1.0000
  C   C1450     1.0  0.61163  0.29157  0.28549  1.0000
  H   H2491     1.0  0.69820  0.16523  0.05534  1.0000
  C   C1451     1.0  0.72440  0.20492  0.16485  1.0000
  C   C1452     1.0  0.61015  0.28175  0.48448  1.0000
  H   H2492     1.0  0.60854  0.27821  0.29878  1.0000
  Fe  Fe208     1.0  0.73606  0.02472  0.21713  1.0000
  H   H2493     1.0  0.69541  0.05509  0.26469  1.0000
  H   H2494     1.0  0.69156  0.04113  0.29197  1.0000
  H   H2495     1.0  0.55714  0.02060  0.12964  1.0000
  H   H2496     1.0  0.68179  0.10254  0.17750  1.0000
  C   C1453     1.0  0.63135  0.26548  0.26414  1.0000
  H   H2497     1.0  0.61775  0.25252  0.18179  1.0000
  H   H2498     1.0  0.72607  0.15161  0.07702  1.0000
  C   C1454     1.0  0.58021  0.99606  0.99676  1.0000
  C   C1455     1.0  0.69087  0.29236  0.02914  1.0000
  H   H2499     1.0  0.72239  0.12718  0.02325  1.0000
  C   C1456     1.0  0.70985  0.24491  0.40113  1.0000
  H   H2500     1.0  0.71122  0.25882  0.40645  1.0000
  H   H2501     1.0  0.71277  0.06910  0.11038  1.0000
  Fe  Fe209     1.0  0.54737  0.09034  0.03770  1.0000
  N   N106      1.0  0.64235  0.12945  0.19343  1.0000
  C   C1457     1.0  0.65807  0.13187  0.17304  1.0000
  C   C1458     1.0  0.62461  0.31184  0.46319  1.0000
  H   H2502     1.0  0.61852  0.15590  0.22427  1.0000
  H   H2503     1.0  0.69420  0.28061  0.37942  1.0000
  H   H2504     1.0  0.69376  0.27500  0.03078  1.0000
  N   N107      1.0  0.54552  0.26219  0.47202  1.0000
  H   H2505     1.0  0.57945  0.08945  0.09720  1.0000
  H   H2506     1.0  0.68701  0.12402  0.18581  1.0000
  C   C1459     1.0  0.56854  0.28252  0.10635  1.0000
  H   H2507     1.0  0.73585  0.19185  0.15845  1.0000
  H   H2508     1.0  0.70898  0.20427  0.16259  1.0000
  C   C1460     1.0  0.57212  0.01200  0.12170  1.0000
  C   C1461     1.0  0.59577  0.05630  0.07913  1.0000
  C   C1462     1.0  0.62732  0.27170  0.12892  1.0000
  H   H2509     1.0  0.62804  0.25311  0.27842  1.0000
  C   C1463     1.0  0.62729  0.26823  0.47503  1.0000
  H   H2510     1.0  0.65893  0.14867  0.16689  1.0000
  C   C1464     1.0  0.58876  0.03223  0.01266  1.0000
  Fe  Fe210     1.0  0.70353  0.30189  0.18982  1.0000
  H   H2511     1.0  0.70430  0.02747  0.27118  1.0000
  C   C1465     1.0  0.59781  0.17588  0.03365  1.0000
  H   H2512     1.0  0.64070  0.31039  0.04148  1.0000
  H   H2513     1.0  0.49456  0.30957  0.35326  1.0000
  H   H2514     1.0  0.63304  0.31392  0.27786  1.0000
  H   H2515     1.0  0.59481  0.31409  0.48439  1.0000
  H   H2516     1.0  0.70803  0.05640  0.13685  1.0000
  Fe  Fe211     1.0  0.56102  0.13141  0.01533  1.0000
  H   H2517     1.0  0.62883  0.17232  0.18517  1.0000
  H   H2518     1.0  0.60248  0.17285  0.18528  1.0000
  H   H2519     1.0  0.70660  0.23591  0.35947  1.0000
  C   C1466     1.0  0.72685  0.21657  0.24340  1.0000
  H   H2520     1.0  0.69288  0.25275  0.33957  1.0000
  C   C1467     1.0  0.69567  0.25113  0.35560  1.0000
  H   H2521     1.0  0.61314  0.19140  0.04834  1.0000
  H   H2522     1.0  0.65526  0.29048  0.07572  1.0000
  H   H2523     1.0  0.70275  0.27287  0.06510  1.0000
  N   N108      1.0  0.68116  0.29852  0.05019  1.0000
  S   S421      1.0  0.73637  0.28439  0.35894  1.0000
  H   H2524     1.0  0.72962  0.11524  0.04831  1.0000
  H   H2525     1.0  0.71862  0.23090  0.41050  1.0000
  C   C1468     1.0  0.60847  0.30355  0.47799  1.0000
  C   C1469     1.0  0.72054  0.08295  0.26514  1.0000
  C   C1470     1.0  0.69525  0.17258  0.01537  1.0000
  H   H2526     1.0  0.72830  0.09318  0.09153  1.0000
  C   C1471     1.0  0.72509  0.30212  0.39318  1.0000
  H   H2527     1.0  0.71085  0.29634  0.39625  1.0000
  H   H2528     1.0  0.72027  0.20359  0.25502  1.0000
  S   S422      1.0  0.63558  0.28293  0.19065  1.0000
  H   H2529     1.0  0.70651  0.99493  0.12088  1.0000
  H   H2530     1.0  0.72493  0.28963  0.02495  1.0000
  C   C1472     1.0  0.60693  0.32392  0.24525  1.0000
  H   H2531     1.0  0.73422  0.31024  0.09756  1.0000
  C   C1473     1.0  0.72272  0.10476  0.26705  1.0000
  H   H2532     1.0  0.50068  0.06473  0.01802  1.0000
  C   C1474     1.0  0.72714  0.22792  0.27593  1.0000
  C   C1475     1.0  0.72271  0.26408  0.14039  1.0000
  C   C1476     1.0  0.69074  0.29445  0.08636  1.0000
  C   C1477     1.0  0.58095  0.02522  0.10038  1.0000
  H   H2533     1.0  0.70253  0.32437  0.35341  1.0000
  H   H2534     1.0  0.59355  0.01413  0.09232  1.0000
  C   C1478     1.0  0.52605  0.23503  0.12954  1.0000
  H   H2535     1.0  0.62637  0.24238  0.42038  1.0000
  C   C1479     1.0  0.64563  0.29319  0.04682  1.0000
  C   C1480     1.0  0.57462  0.07997  0.11306  1.0000
  C   C1481     1.0  0.59401  0.28172  0.26277  1.0000
  C   C1482     1.0  0.63637  0.28848  0.12870  1.0000
  C   C1483     1.0  0.62162  0.30211  0.24654  1.0000
  C   C1484     1.0  0.71720  0.17685  0.01346  1.0000
  S   S423      1.0  0.53001  0.12395  0.03424  1.0000
  H   H2536     1.0  0.59118  0.03862  0.05771  1.0000
  H   H2537     1.0  0.65649  0.26608  0.45253  1.0000
  H   H2538     1.0  0.72961  0.01838  0.04148  1.0000
  H   H2539     1.0  0.56472  0.26825  0.08284  1.0000
  C   C1485     1.0  0.56130  0.22997  0.08002  1.0000
  H   H2540     1.0  0.56374  0.25018  0.14204  1.0000
  H   H2541     1.0  0.72588  0.25872  0.23780  1.0000
  H   H2542     1.0  0.58114  0.29507  0.26676  1.0000
  H   H2543     1.0  0.63114  0.99945  0.99329  1.0000
  H   H2544     1.0  0.59749  0.24713  0.27193  1.0000
  C   C1486     1.0  0.56914  0.22638  0.10063  1.0000
  H   H2545     1.0  0.63169  0.28710  0.05677  1.0000
  C   C1487     1.0  0.73906  0.24521  0.01216  1.0000
  H   H2546     1.0  0.64259  0.23184  0.39858  1.0000
  Fe  Fe212     1.0  0.54813  0.31624  0.38490  1.0000
  H   H2547     1.0  0.71716  0.07839  0.31098  1.0000
  H   H2548     1.0  0.58872  0.25763  0.09155  1.0000
  C   C1488     1.0  0.57152  0.21659  0.14502  1.0000
  C   C1489     1.0  0.73137  0.22614  0.15447  1.0000
  H   H2549     1.0  0.50296  0.02389  0.00363  1.0000
  H   H2550     1.0  0.57638  0.02371  0.02233  1.0000
  H   H2551     1.0  0.54405  0.23469  0.08231  1.0000
  H   H2552     1.0  0.52102  0.04224  0.01808  1.0000
  H   H2553     1.0  0.73794  0.20904  0.23075  1.0000
  C   C1490     1.0  0.73032  0.23853  0.03342  1.0000
  H   H2554     1.0  0.62066  0.00614  0.10804  1.0000
  H   H2555     1.0  0.53007  0.23629  0.47601  1.0000
  H   H2556     1.0  0.72091  0.04819  0.01134  1.0000
  H   H2557     1.0  0.63742  0.30417  0.24674  1.0000
  C   C1491     1.0  0.50321  0.02610  0.07897  1.0000
  H   H2558     1.0  0.59313  0.23128  0.45175  1.0000
  H   H2559     1.0  0.64770  0.30185  0.38416  1.0000
  H   H2560     1.0  0.57118  0.26146  0.27532  1.0000
  H   H2561     1.0  0.71546  0.29666  0.00122  1.0000
  H   H2562     1.0  0.71407  0.32429  0.12929  1.0000
  C   C1492     1.0  0.72773  0.10980  0.11501  1.0000
  C   C1493     1.0  0.72318  0.32507  0.09598  1.0000
  H   H2563     1.0  0.73495  0.31364  0.15486  1.0000
  H   H2564     1.0  0.51567  0.05809  0.99340  1.0000
  H   H2565     1.0  0.69497  0.15571  0.01822  1.0000
  H   H2566     1.0  0.61606  0.12779  0.99934  1.0000
  H   H2567     1.0  0.73745  0.19714  0.03320  1.0000
  H   H2568     1.0  0.59146  0.32349  0.24264  1.0000
  C   C1494     1.0  0.73993  0.09539  0.09940  1.0000
  C   C1495     1.0  0.67508  0.32226  0.04667  1.0000
  H   H2569     1.0  0.71098  0.31623  0.01664  1.0000
  H   H2570     1.0  0.65464  0.32137  0.07916  1.0000
  Fe  Fe213     1.0  0.56924  0.09575  0.99200  1.0000
  C   C1496     1.0  0.63627  0.08757  0.99309  1.0000
  C   C1497     1.0  0.74089  0.29822  0.37584  1.0000
  H   H2571     1.0  0.74042  0.31345  0.29169  1.0000
  C   C1498     1.0  0.49326  0.03735  0.01056  1.0000
  H   H2572     1.0  0.72082  0.32422  0.27627  1.0000
  H   H2573     1.0  0.73661  0.32580  0.22327  1.0000
  C   C1499     1.0  0.59582  0.02816  0.99004  1.0000
  S   S424      1.0  0.65839  0.09942  0.91647  1.0000
  S   S425      1.0  0.52100  0.00195  0.80733  1.0000
  C   C1500     1.0  0.71603  0.99325  0.85183  1.0000
  N   N109      1.0  0.64107  0.29087  0.55094  1.0000
  H   H2574     1.0  0.67742  0.13172  0.96340  1.0000
  H   H2575     1.0  0.51066  0.18103  0.64667  1.0000
  H   H2576     1.0  0.54247  0.17421  0.91417  1.0000
  H   H2577     1.0  0.65533  0.14737  0.98754  1.0000
  H   H2578     1.0  0.51617  0.04629  0.73439  1.0000
  C   C1501     1.0  0.50635  0.12699  0.79127  1.0000
  H   H2579     1.0  0.54805  0.08357  0.73610  1.0000
  H   H2580     1.0  0.64326  0.15446  0.95045  1.0000
  N   N110      1.0  0.59946  0.00555  0.98797  1.0000
  H   H2581     1.0  0.68930  0.25812  0.54835  1.0000
  N   N111      1.0  0.51278  0.02374  0.87537  1.0000
  N   N112      1.0  0.63554  0.12460  0.96882  1.0000
  Fe  Fe214     1.0  0.55523  0.07930  0.87258  1.0000
  S   S426      1.0  0.56437  0.11062  0.86574  1.0000
  S   S427      1.0  0.54523  0.06207  0.90539  1.0000
  Fe  Fe215     1.0  0.56173  0.07792  0.82669  1.0000
  S   S428      1.0  0.57231  0.10872  0.81578  1.0000
  S   S429      1.0  0.55734  0.06197  0.80285  1.0000
  Fe  Fe216     1.0  0.59036  0.09693  0.84185  1.0000
  S   S430      1.0  0.62393  0.09965  0.83681  1.0000
  Fe  Fe217     1.0  0.54534  0.11950  0.84057  1.0000
  S   S431      1.0  0.52243  0.15004  0.83350  1.0000
  S   S432      1.0  0.58242  0.06482  0.85037  1.0000
  S   S433      1.0  0.53356  0.08935  0.84991  1.0000
  S   S434      1.0  0.59225  0.08123  0.96647  1.0000
  H   H2582     1.0  0.67029  0.03063  0.85824  1.0000
  H   H2583     1.0  0.49325  0.03139  0.96062  1.0000
  H   H2584     1.0  0.62947  0.26151  0.56166  1.0000
  H   H2585     1.0  0.49649  0.05301  0.85914  1.0000
  H   H2586     1.0  0.55096  0.16445  0.88052  1.0000
  C   C1502     1.0  0.67440  0.02136  0.82133  1.0000
  H   H2587     1.0  0.56420  0.14309  0.92254  1.0000
  H   H2588     1.0  0.53503  0.00263  0.91478  1.0000
  H   H2589     1.0  0.62549  0.30426  0.51164  1.0000
  H   H2590     1.0  0.53430  0.04195  0.85314  1.0000
  Fe  Fe218     1.0  0.56977  0.29687  0.52040  1.0000
  C   C1503     1.0  0.50725  0.04563  0.76923  1.0000
  C   C1504     1.0  0.59272  0.01485  0.94993  1.0000
  Fe  Fe219     1.0  0.52556  0.30993  0.54387  1.0000
  C   C1505     1.0  0.61666  0.12279  0.96165  1.0000
  H   H2591     1.0  0.60946  0.02622  0.75118  1.0000
  H   H2592     1.0  0.52096  0.02960  0.91191  1.0000
  H   H2593     1.0  0.61863  0.00756  0.81482  1.0000
  C   C1506     1.0  0.63275  0.31218  0.53857  1.0000
  S   S435      1.0  0.72246  0.01844  0.87500  1.0000
  S   S436      1.0  0.54027  0.31488  0.50944  1.0000
  S   S437      1.0  0.55461  0.28983  0.55437  1.0000
  S   S438      1.0  0.71678  0.06599  0.90347  1.0000
  C   C1507     1.0  0.67254  0.13191  0.94879  1.0000
  H   H2594     1.0  0.53633  0.15037  0.87323  1.0000
  S   S439      1.0  0.69230  0.05862  0.95349  1.0000
  H   H2595     1.0  0.67566  0.00798  0.83492  1.0000
  C   C1508     1.0  0.69165  0.99464  0.88496  1.0000
  C   C1509     1.0  0.60779  0.00432  0.96513  1.0000
  H   H2596     1.0  0.64792  0.27344  0.51411  1.0000
  C   C1510     1.0  0.49532  0.16463  0.80573  1.0000
  C   C1511     1.0  0.49544  0.04299  0.87527  1.0000
  H   H2597     1.0  0.56245  0.00388  0.80880  1.0000
  C   C1512     1.0  0.63134  0.27429  0.54740  1.0000
  H   H2598     1.0  0.54196  0.23462  0.51286  1.0000
  H   H2599     1.0  0.52119  0.17652  0.94945  1.0000
  H   H2600     1.0  0.50121  0.14909  0.87796  1.0000
  C   C1513     1.0  0.69011  0.05154  0.83918  1.0000
  C   C1514     1.0  0.49974  0.10180  0.94397  1.0000
  C   C1515     1.0  0.50392  0.15166  0.90934  1.0000
  H   H2601     1.0  0.57017  0.11672  0.91900  1.0000
  C   C1516     1.0  0.64774  0.10255  0.97497  1.0000
  H   H2602     1.0  0.50188  0.05489  0.94761  1.0000
  S   S440      1.0  0.72310  0.01920  0.93323  1.0000
  H   H2603     1.0  0.61794  0.01933  0.85995  1.0000
  H   H2604     1.0  0.57958  0.00658  0.95312  1.0000
  C   C1517     1.0  0.51665  0.12975  0.80569  1.0000
  C   C1518     1.0  0.66154  0.05976  0.81001  1.0000
  H   H2605     1.0  0.62870  0.05313  0.84182  1.0000
  H   H2606     1.0  0.59072  0.14001  0.94652  1.0000
  H   H2607     1.0  0.49551  0.03212  0.74883  1.0000
  H   H2608     1.0  0.53953  0.12177  0.90361  1.0000
  H   H2609     1.0  0.62146  0.11284  0.94950  1.0000
  H   H2610     1.0  0.67962  0.14388  0.93616  1.0000
  C   C1519     1.0  0.55892  0.06678  0.92211  1.0000
  C   C1520     1.0  0.54920  0.06699  0.94304  1.0000
  C   C1521     1.0  0.55931  0.07181  0.95647  1.0000
  C   C1522     1.0  0.57960  0.07555  0.94935  1.0000
  C   C1523     1.0  0.58988  0.07420  0.92868  1.0000
  C   C1524     1.0  0.57933  0.07039  0.91483  1.0000
  C   C1525     1.0  0.56254  0.13298  0.91255  1.0000
  H   H2611     1.0  0.55148  0.07214  0.97245  1.0000
  H   H2612     1.0  0.60585  0.07637  0.92332  1.0000
  H   H2613     1.0  0.58709  0.06997  0.89868  1.0000
  H   H2614     1.0  0.60586  0.11486  0.97490  1.0000
  H   H2615     1.0  0.51295  0.03896  0.96936  1.0000
  H   H2616     1.0  0.58681  0.03174  0.95004  1.0000
  H   H2617     1.0  0.53026  0.07338  0.77216  1.0000
  H   H2618     1.0  0.66513  0.25411  0.56579  1.0000
  S   S441      1.0  0.49548  0.29805  0.55972  1.0000
  Fe  Fe220     1.0  0.71141  0.03403  0.90336  1.0000
  H   H2619     1.0  0.63262  0.25385  0.52629  1.0000
  C   C1526     1.0  0.66885  0.01387  0.80392  1.0000
  Fe  Fe221     1.0  0.72518  0.05162  0.93536  1.0000
  H   H2620     1.0  0.57147  0.13723  0.89632  1.0000
  C   C1527     1.0  0.55303  0.01272  0.86602  1.0000
  C   C1528     1.0  0.63823  0.03838  0.83684  1.0000
  H   H2621     1.0  0.67083  0.29929  0.54703  1.0000
  Fe  Fe222     1.0  0.68975  0.02732  0.94936  1.0000
  C   C1529     1.0  0.64584  0.06436  0.79533  1.0000
  C   C1530     1.0  0.63388  0.29177  0.57401  1.0000
  C   C1531     1.0  0.53771  0.26704  0.49379  1.0000
  C   C1532     1.0  0.57995  0.04394  0.79493  1.0000
  C   C1533     1.0  0.58617  0.04185  0.77389  1.0000
  C   C1534     1.0  0.60450  0.02758  0.76751  1.0000
  C   C1535     1.0  0.61619  0.01485  0.78231  1.0000
  C   C1536     1.0  0.60970  0.01687  0.80334  1.0000
  C   C1537     1.0  0.59180  0.03151  0.80962  1.0000
  H   H2622     1.0  0.57704  0.05153  0.76248  1.0000
  H   H2623     1.0  0.51236  0.09529  0.93241  1.0000
  H   H2624     1.0  0.64640  0.13546  0.93523  1.0000
  H   H2625     1.0  0.58692  0.03284  0.82592  1.0000
  H   H2626     1.0  0.65288  0.09480  0.96115  1.0000
  C   C1538     1.0  0.49639  0.17791  0.65839  1.0000
  H   H2627     1.0  0.62963  0.06993  0.80356  1.0000
  C   C1539     1.0  0.64870  0.10054  0.89412  1.0000
  C   C1540     1.0  0.62712  0.10599  0.89466  1.0000
  C   C1541     1.0  0.61926  0.10557  0.87726  1.0000
  C   C1542     1.0  0.63303  0.10090  0.85884  1.0000
  C   C1543     1.0  0.65463  0.09682  0.85792  1.0000
  C   C1544     1.0  0.66245  0.09592  0.87572  1.0000
  H   H2628     1.0  0.61647  0.10985  0.90880  1.0000
  H   H2629     1.0  0.60261  0.10900  0.87809  1.0000
  H   H2630     1.0  0.66535  0.09394  0.84353  1.0000
  H   H2631     1.0  0.67914  0.09207  0.87507  1.0000
  H   H2632     1.0  0.62307  0.08380  0.98867  1.0000
  H   H2633     1.0  0.55025  0.27117  0.49909  1.0000
  H   H2634     1.0  0.69079  0.02358  0.81531  1.0000
  C   C1545     1.0  0.66865  0.04489  0.84550  1.0000
  C   C1546     1.0  0.64309  0.26282  0.52917  1.0000
  N   N113      1.0  0.52621  0.15433  0.90579  1.0000
  H   H2635     1.0  0.51543  0.24580  0.50889  1.0000
  H   H2636     1.0  0.67750  0.05855  0.79993  1.0000
  H   H2637     1.0  0.55530  0.00767  0.85096  1.0000
  H   H2638     1.0  0.69038  0.06616  0.82695  1.0000
  H   H2639     1.0  0.52891  0.11726  0.81099  1.0000
  H   H2640     1.0  0.51575  0.09645  0.75837  1.0000
  H   H2641     1.0  0.61653  0.29416  0.57843  1.0000
  C   C1547     1.0  0.52039  0.07902  0.76006  1.0000
  H   H2642     1.0  0.67027  0.28537  0.52837  1.0000
  H   H2643     1.0  0.52570  0.25438  0.52657  1.0000
  H   H2644     1.0  0.59488  0.15309  0.96474  1.0000
  H   H2645     1.0  0.50750  0.21875  0.63798  1.0000
  H   H2646     1.0  0.53131  0.14946  0.94870  1.0000
  H   H2647     1.0  0.65162  0.30975  0.50682  1.0000
  H   H2648     1.0  0.69358  0.05486  0.85324  1.0000
  H   H2649     1.0  0.62195  0.01146  0.95896  1.0000
  C   C1548     1.0  0.52262  0.18354  0.87246  1.0000
  C   C1549     1.0  0.49406  0.22139  0.63008  1.0000
  H   H2650     1.0  0.50891  0.06292  0.88822  1.0000
  H   H2651     1.0  0.57542  0.00242  0.77068  1.0000
  H   H2652     1.0  0.65985  0.00594  0.94192  1.0000
  H   H2653     1.0  0.65714  0.25125  0.53330  1.0000
  H   H2654     1.0  0.63073  0.03622  0.82483  1.0000
  S   S442      1.0  0.63884  0.99661  0.77430  1.0000
  H   H2655     1.0  0.58668  0.32313  0.62089  1.0000
  H   H2656     1.0  0.50940  0.12400  0.89478  1.0000
  C   C1550     1.0  0.73421  0.00210  0.98417  1.0000
  H   H2657     1.0  0.61937  0.15202  0.98218  1.0000
  H   H2658     1.0  0.53358  0.06405  0.94875  1.0000
  C   C1551     1.0  0.63481  0.02005  0.85579  1.0000
  N   N114      1.0  0.66058  0.04092  0.82805  1.0000
  S   S443      1.0  0.58044  0.32491  0.52326  1.0000
  H   H2659     1.0  0.49453  0.07643  0.73510  1.0000
  H   H2660     1.0  0.64350  0.00460  0.85213  1.0000
  H   H2661     1.0  0.52753  0.08009  0.72577  1.0000
  C   C1552     1.0  0.64024  0.30900  0.58127  1.0000
  H   H2662     1.0  0.55943  0.02374  0.97991  1.0000
  H   H2663     1.0  0.68116  0.26968  0.57091  1.0000
  H   H2664     1.0  0.64964  0.07740  0.78194  1.0000
  Fe  Fe223     1.0  0.56255  0.31986  0.55626  1.0000
  C   C1553     1.0  0.53360  0.03054  0.86854  1.0000
  H   H2665     1.0  0.64630  0.05077  0.78860  1.0000
  N   N115      1.0  0.50124  0.06931  0.76665  1.0000
  H   H2666     1.0  0.49355  0.00847  0.90319  1.0000
  C   C1554     1.0  0.67529  0.26579  0.55856  1.0000
  C   C1555     1.0  0.70878  0.00127  0.87034  1.0000
  H   H2667     1.0  0.65866  0.07449  0.81600  1.0000
  H   H2668     1.0  0.65724  0.05727  0.85312  1.0000
  C   C1556     1.0  0.60304  0.14373  0.95250  1.0000
  H   H2669     1.0  0.71922  0.04609  0.98556  1.0000
  H   H2670     1.0  0.72032  0.99951  0.97986  1.0000
  S   S444      1.0  0.67775  0.03992  0.91934  1.0000
  Fe  Fe224     1.0  0.68361  0.07063  0.92169  1.0000
  H   H2671     1.0  0.67934  0.11648  0.94404  1.0000
  C   C1557     1.0  0.52673  0.17015  0.91802  1.0000
  C   C1558     1.0  0.53946  0.13320  0.91306  1.0000
  H   H2672     1.0  0.73727  0.01719  0.97379  1.0000
  H   H2673     1.0  0.52194  0.03959  0.77551  1.0000
  H   H2674     1.0  0.56718  0.01871  0.86534  1.0000
  H   H2675     1.0  0.61499  0.28111  0.54505  1.0000
  H   H2676     1.0  0.63459  0.30733  0.59855  1.0000
  C   C1559     1.0  0.51097  0.14832  0.81333  1.0000
  H   H2677     1.0  0.66232  0.10260  0.97975  1.0000
  H   H2678     1.0  0.67562  0.02217  0.78806  1.0000
  H   H2679     1.0  0.65742  0.30759  0.57819  1.0000
  H   H2680     1.0  0.73492  0.25071  0.98029  1.0000
  H   H2681     1.0  0.54298  0.05780  0.74101  1.0000
  C   C1560     1.0  0.62781  0.13563  0.98715  1.0000
  H   H2682     1.0  0.61198  0.15342  0.93903  1.0000
  H   H2683     1.0  0.68596  0.00062  0.89934  1.0000
  H   H2684     1.0  0.52347  0.99803  0.85858  1.0000
  C   C1561     1.0  0.66459  0.28613  0.54525  1.0000
  H   H2685     1.0  0.51920  0.20325  0.61000  1.0000
  H   H2686     1.0  0.73718  0.12363  0.96390  1.0000
  H   H2687     1.0  0.63276  0.32508  0.57417  1.0000
  C   C1562     1.0  0.63507  0.31387  0.51481  1.0000
  H   H2688     1.0  0.52172  0.02125  0.75109  1.0000
  H   H2689     1.0  0.63942  0.27648  0.58417  1.0000
  H   H2690     1.0  0.51084  0.11242  0.78581  1.0000
  H   H2691     1.0  0.63881  0.02244  0.86997  1.0000
  H   H2692     1.0  0.65191  0.01566  0.80534  1.0000
  H   H2693     1.0  0.52022  0.10636  0.96205  1.0000
  C   C1563     1.0  0.64856  0.13730  0.95057  1.0000
  H   H2694     1.0  0.72929  0.99826  0.84048  1.0000
  H   H2695     1.0  0.50425  0.16087  0.94737  1.0000
  S   S445      1.0  0.59139  0.27128  0.50497  1.0000
  H   H2696     1.0  0.53596  0.03923  0.87942  1.0000
  H   H2697     1.0  0.70299  0.03885  0.83400  1.0000
  H   H2698     1.0  0.53271  0.12602  0.92933  1.0000
  H   H2699     1.0  0.60132  0.01390  0.93362  1.0000
  S   S446      1.0  0.67846  0.00285  0.97684  1.0000
  C   C1564     1.0  0.53531  0.07468  0.73945  1.0000
  H   H2700     1.0  0.64066  0.32426  0.54005  1.0000
  C   C1565     1.0  0.53469  0.16221  0.88286  1.0000
  H   H2701     1.0  0.61031  0.03463  0.98282  1.0000
  H   H2702     1.0  0.49588  0.16111  0.66000  1.0000
  H   H2703     1.0  0.61582  0.31749  0.54504  1.0000
  C   C1566     1.0  0.50231  0.21040  0.61097  1.0000
  H   H2704     1.0  0.55225  0.99892  0.87918  1.0000
  H   H2705     1.0  0.52470  0.18402  0.85537  1.0000
  C   C1567     1.0  0.51126  0.01267  0.85894  1.0000
  C   C1568     1.0  0.51020  0.03638  0.74950  1.0000
  H   H2706     1.0  0.51276  0.07704  0.80443  1.0000
  C   C1569     1.0  0.50148  0.06699  0.80586  1.0000
  C   C1570     1.0  0.52984  0.24922  0.51128  1.0000
  H   H2707     1.0  0.58407  0.03845  0.98112  1.0000
  H   H2708     1.0  0.67505  0.99667  0.80534  1.0000
  H   H2709     1.0  0.50103  0.22216  0.59608  1.0000
  H   H2710     1.0  0.51434  0.02271  0.84290  1.0000
  H   H2711     1.0  0.49501  0.03820  0.78112  1.0000
  C   C1571     1.0  0.51958  0.01316  0.91366  1.0000
  C   C1572     1.0  0.50421  0.10822  0.96058  1.0000
  H   H2712     1.0  0.51597  0.18531  0.91335  1.0000
  H   H2713     1.0  0.52849  0.19684  0.87448  1.0000
  S   S447      1.0  0.55388  0.12970  0.98470  1.0000
  C   C1573     1.0  0.52048  0.16361  0.94219  1.0000
  H   H2714     1.0  0.49892  0.14294  0.92557  1.0000
  C   C1574     1.0  0.49946  0.13997  0.89436  1.0000
  C   C1575     1.0  0.51038  0.00888  0.89653  1.0000
  H   H2715     1.0  0.50976  0.05033  0.80715  1.0000
  H   H2716     1.0  0.73066  0.09576  0.94925  1.0000
  C   C1576     1.0  0.49821  0.04470  0.96341  1.0000
  S   S448      1.0  0.57651  0.31909  0.58386  1.0000
  H   H2717     1.0  0.57227  0.99625  0.74797  1.0000
  H   H2718     1.0  0.52493  0.28124  0.49399  1.0000
  H   H2719     1.0  0.50925  0.00911  0.92922  1.0000
  C   C1577     1.0  0.49432  0.05725  0.89041  1.0000
  H   H2720     1.0  0.50554  0.18601  0.87847  1.0000
  H   H2721     1.0  0.49768  0.17957  0.67404  1.0000
  C   C1578     1.0  0.74292  0.09216  0.95814  1.0000
  H   H2722     1.0  0.49442  0.19779  0.61111  1.0000
  C   C1579     1.0  0.70927  0.33828  0.34459  1.0000
  Fe  Fe225     1.0  0.67955  0.33884  0.16399  1.0000
  H   H2723     1.0  0.70427  0.36492  0.05850  1.0000
  S   S449      1.0  0.68272  0.36270  0.13386  1.0000
  H   H2724     1.0  0.50466  0.33216  0.37167  1.0000
  H   H2725     1.0  0.53620  0.42475  0.27187  1.0000
  S   S450      1.0  0.65441  0.34515  0.24132  1.0000
  Fe  Fe226     1.0  0.56197  0.34165  0.34132  1.0000
  H   H2726     1.0  0.51207  0.54850  0.25910  1.0000
  H   H2727     1.0  0.62092  0.38403  0.48785  1.0000
  H   H2728     1.0  0.67425  0.40276  0.47398  1.0000
  H   H2729     1.0  0.50263  0.62727  0.34521  1.0000
  S   S451      1.0  0.64904  0.33765  0.18703  1.0000
  Fe  Fe227     1.0  0.68208  0.42413  0.28793  1.0000
  S   S452      1.0  0.67355  0.40768  0.32142  1.0000
  S   S453      1.0  0.70108  0.40543  0.26346  1.0000
  Fe  Fe228     1.0  0.65786  0.46647  0.29729  1.0000
  S   S454      1.0  0.64755  0.45335  0.33156  1.0000
  S   S455      1.0  0.64743  0.50077  0.28385  1.0000
  Fe  Fe229     1.0  0.68050  0.43548  0.32971  1.0000
  S   S456      1.0  0.69449  0.43170  0.35814  1.0000
  Fe  Fe230     1.0  0.64147  0.42734  0.32007  1.0000
  S   S457      1.0  0.61133  0.41558  0.33281  1.0000
  S   S458      1.0  0.69165  0.45056  0.29611  1.0000
  S   S459      1.0  0.64950  0.44164  0.28581  1.0000
  C   C1580     1.0  0.67569  0.61924  0.43071  1.0000
  H   H2730     1.0  0.52962  0.43629  0.36006  1.0000
  H   H2731     1.0  0.68908  0.32914  0.04466  1.0000
  Fe  Fe231     1.0  0.50801  0.48008  0.30065  1.0000
  S   S460      1.0  0.54010  0.48619  0.29672  1.0000
  H   H2732     1.0  0.53062  0.64300  0.36141  1.0000
  S   S461      1.0  0.59019  0.58041  0.36734  1.0000
  Fe  Fe232     1.0  0.57554  0.57687  0.34232  1.0000
  S   S462      1.0  0.56971  0.54515  0.34269  1.0000
  H   H2733     1.0  0.52778  0.57416  0.26189  1.0000
  H   H2734     1.0  0.52131  0.52502  0.45196  1.0000
  C   C1581     1.0  0.59916  0.41667  0.46251  1.0000
  H   H2735     1.0  0.67803  0.63433  0.41957  1.0000
  H   H2736     1.0  0.52145  0.34980  0.45004  1.0000
  H   H2737     1.0  0.56378  0.40875  0.41851  1.0000
  Fe  Fe233     1.0  0.57183  0.34992  0.38026  1.0000
  C   C1582     1.0  0.67807  0.43329  0.47519  1.0000
  S   S463      1.0  0.66222  0.57057  0.42892  1.0000
  S   S464      1.0  0.55685  0.35125  0.30812  1.0000
  H   H2738     1.0  0.58595  0.56191  0.43084  1.0000
  H   H2739     1.0  0.70731  0.56403  0.47560  1.0000
  H   H2740     1.0  0.51945  0.48667  0.39295  1.0000
  H   H2741     1.0  0.69759  0.36367  0.30180  1.0000
  C   C1583     1.0  0.62742  0.36263  0.36510  1.0000
  C   C1584     1.0  0.58826  0.56669  0.44467  1.0000
  C   C1585     1.0  0.64849  0.59176  0.36277  1.0000
  C   C1586     1.0  0.63263  0.59470  0.38027  1.0000
  C   C1587     1.0  0.63705  0.58853  0.40052  1.0000
  C   C1588     1.0  0.65737  0.57901  0.40334  1.0000
  C   C1589     1.0  0.67345  0.57624  0.38583  1.0000
  C   C1590     1.0  0.66906  0.58303  0.36548  1.0000
  H   H2742     1.0  0.61696  0.60183  0.37806  1.0000
  H   H2743     1.0  0.62464  0.59074  0.41399  1.0000
  H   H2744     1.0  0.68924  0.56900  0.38792  1.0000
  H   H2745     1.0  0.73278  0.41343  0.43383  1.0000
  H   H2746     1.0  0.51204  0.50929  0.43907  1.0000
  H   H2747     1.0  0.61037  0.44154  0.26528  1.0000
  S   S465      1.0  0.73285  0.49966  0.37924  1.0000
  C   C1591     1.0  0.50957  0.38848  0.28147  1.0000
  C   C1592     1.0  0.52670  0.37250  0.28591  1.0000
  C   C1593     1.0  0.53459  0.37053  0.30386  1.0000
  C   C1594     1.0  0.52542  0.38464  0.31737  1.0000
  C   C1595     1.0  0.50842  0.40083  0.31274  1.0000
  C   C1596     1.0  0.65190  0.62174  0.43977  1.0000
  H   H2748     1.0  0.70503  0.61746  0.48189  1.0000
  H   H2749     1.0  0.53164  0.38330  0.33114  1.0000
  C   C1597     1.0  0.68164  0.62898  0.46115  1.0000
  C   C1598     1.0  0.70286  0.45287  0.36270  1.0000
  C   C1599     1.0  0.69647  0.45803  0.38267  1.0000
  C   C1600     1.0  0.70506  0.47278  0.38776  1.0000
  H   H2750     1.0  0.68530  0.45006  0.39447  1.0000
  H   H2751     1.0  0.70031  0.47616  0.40339  1.0000
  C   C1601     1.0  0.59092  0.43486  0.32348  1.0000
  C   C1602     1.0  0.57091  0.43065  0.32639  1.0000
  C   C1603     1.0  0.55514  0.44611  0.31783  1.0000
  C   C1604     1.0  0.55929  0.46591  0.30691  1.0000
  C   C1605     1.0  0.57923  0.46996  0.30415  1.0000
  C   C1606     1.0  0.59500  0.45438  0.31212  1.0000
  H   H2752     1.0  0.56777  0.41536  0.33490  1.0000
  H   H2753     1.0  0.53989  0.44269  0.31968  1.0000
  H   H2754     1.0  0.58265  0.48514  0.29568  1.0000
  H   H2755     1.0  0.61046  0.45744  0.30936  1.0000
  C   C1607     1.0  0.62427  0.51273  0.29873  1.0000
  C   C1608     1.0  0.61820  0.53462  0.29447  1.0000
  C   C1609     1.0  0.60111  0.54455  0.30768  1.0000
  C   C1610     1.0  0.58981  0.53270  0.32500  1.0000
  C   C1611     1.0  0.59501  0.51077  0.32849  1.0000
  C   C1612     1.0  0.61233  0.50086  0.31546  1.0000
  H   H2756     1.0  0.62710  0.54395  0.28132  1.0000
  H   H2757     1.0  0.59646  0.56133  0.30407  1.0000
  H   H2758     1.0  0.58616  0.50142  0.34165  1.0000
  H   H2759     1.0  0.61658  0.48408  0.31862  1.0000
  H   H2760     1.0  0.66495  0.33537  0.31388  1.0000
  C   C1613     1.0  0.67611  0.45455  0.46533  1.0000
  S   S466      1.0  0.68659  0.51332  0.42356  1.0000
  H   H2761     1.0  0.55542  0.51741  0.38519  1.0000
  H   H2762     1.0  0.50460  0.53571  0.41110  1.0000
  C   C1614     1.0  0.51298  0.57667  0.38290  1.0000
  H   H2763     1.0  0.62794  0.41999  0.40500  1.0000
  Fe  Fe234     1.0  0.60731  0.60207  0.34115  1.0000
  H   H2764     1.0  0.53676  0.57582  0.44770  1.0000
  C   C1615     1.0  0.66747  0.36215  0.24695  1.0000
  C   C1616     1.0  0.68678  0.36596  0.23480  1.0000
  C   C1617     1.0  0.69677  0.37957  0.23980  1.0000
  C   C1618     1.0  0.68745  0.38965  0.25675  1.0000
  C   C1619     1.0  0.66799  0.38608  0.26875  1.0000
  C   C1620     1.0  0.65829  0.37197  0.26412  1.0000
  H   H2765     1.0  0.69405  0.35833  0.22166  1.0000
  H   H2766     1.0  0.71165  0.38251  0.23045  1.0000
  H   H2767     1.0  0.66076  0.39366  0.28198  1.0000
  H   H2768     1.0  0.64378  0.36838  0.27397  1.0000
  H   H2769     1.0  0.49761  0.55607  0.42570  1.0000
  H   H2770     1.0  0.60487  0.39994  0.46115  1.0000
  H   H2771     1.0  0.51268  0.57937  0.36592  1.0000
  C   C1621     1.0  0.69743  0.35227  0.11187  1.0000
  C   C1622     1.0  0.52646  0.62030  0.30262  1.0000
  N   N116      1.0  0.68973  0.61354  0.44656  1.0000
  H   H2772     1.0  0.71560  0.40519  0.39878  1.0000
  H   H2773     1.0  0.52011  0.58055  0.41819  1.0000
  H   H2774     1.0  0.65915  0.39784  0.39790  1.0000
  S   S467      1.0  0.73087  0.49275  0.44080  1.0000
  S   S468      1.0  0.69516  0.52773  0.46338  1.0000
  H   H2775     1.0  0.71865  0.58618  0.46945  1.0000
  C   C1623     1.0  0.54941  0.53154  0.41295  1.0000
  C   C1624     1.0  0.58155  0.52603  0.25558  1.0000
  C   C1625     1.0  0.72782  0.32744  0.28823  1.0000
  H   H2776     1.0  0.57872  0.53083  0.28674  1.0000
  H   H2777     1.0  0.66628  0.47819  0.43937  1.0000
  C   C1626     1.0  0.53357  0.56188  0.44383  1.0000
  H   H2778     1.0  0.58527  0.56575  0.26921  1.0000
  C   C1627     1.0  0.51600  0.47100  0.39415  1.0000
  Fe  Fe235     1.0  0.56833  0.62354  0.32286  1.0000
  N   N117      1.0  0.52598  0.46306  0.37411  1.0000
  H   H2779     1.0  0.71960  0.34033  0.35421  1.0000
  C   C1628     1.0  0.52304  0.44108  0.37552  1.0000
  C   C1629     1.0  0.54896  0.46404  0.36787  1.0000
  C   C1630     1.0  0.65780  0.33191  0.06367  1.0000
  H   H2780     1.0  0.50352  0.38994  0.26754  1.0000
  H   H2781     1.0  0.71840  0.37714  0.19183  1.0000
  Fe  Fe236     1.0  0.67427  0.33008  0.44754  1.0000
  H   H2782     1.0  0.73883  0.48425  0.34146  1.0000
  H   H2783     1.0  0.50206  0.45589  0.47639  1.0000
  H   H2784     1.0  0.51354  0.65591  0.39373  1.0000
  H   H2785     1.0  0.63100  0.35879  0.34925  1.0000
  H   H2786     1.0  0.53590  0.46185  0.41770  1.0000
  H   H2787     1.0  0.55450  0.46534  0.35058  1.0000
  H   H2788     1.0  0.64559  0.63537  0.44765  1.0000
  C   C1631     1.0  0.50060  0.40289  0.29466  1.0000
  H   H2789     1.0  0.55645  0.40709  0.45685  1.0000
  H   H2790     1.0  0.50123  0.32727  0.32816  1.0000
  H   H2791     1.0  0.56641  0.53727  0.48576  1.0000
  H   H2792     1.0  0.55163  0.47850  0.37123  1.0000
  H   H2793     1.0  0.67273  0.59040  0.46769  1.0000
  H   H2794     1.0  0.51490  0.62002  0.46730  1.0000
  H   H2795     1.0  0.59082  0.58306  0.43922  1.0000
  H   H2796     1.0  0.67200  0.34471  0.33352  1.0000
  Fe  Fe237     1.0  0.72904  0.52458  0.44770  1.0000
  C   C1632     1.0  0.60739  0.55176  0.45270  1.0000
  H   H2797     1.0  0.72720  0.36129  0.27431  1.0000
  H   H2798     1.0  0.59133  0.51917  0.48202  1.0000
  C   C1633     1.0  0.58856  0.62653  0.42510  1.0000
  N   N118      1.0  0.59060  0.40533  0.26702  1.0000
  C   C1634     1.0  0.60328  0.40098  0.28383  1.0000
  C   C1635     1.0  0.59750  0.42336  0.25021  1.0000
  C   C1636     1.0  0.59589  0.38586  0.25775  1.0000
  C   C1637     1.0  0.56765  0.41010  0.27701  1.0000
  C   C1638     1.0  0.60021  0.38163  0.30169  1.0000
  C   C1639     1.0  0.59670  0.44339  0.25806  1.0000
  C   C1640     1.0  0.50828  0.61522  0.30046  1.0000
  C   C1641     1.0  0.55254  0.42467  0.26302  1.0000
  H   H2799     1.0  0.62024  0.39934  0.27680  1.0000
  H   H2800     1.0  0.59951  0.41451  0.29173  1.0000
  Fe  Fe238     1.0  0.72088  0.51047  0.41040  1.0000
  H   H2801     1.0  0.55095  0.52462  0.42945  1.0000
  H   H2802     1.0  0.61312  0.38154  0.25193  1.0000
  H   H2803     1.0  0.59151  0.37207  0.26988  1.0000
  H   H2804     1.0  0.56179  0.39526  0.28368  1.0000
  H   H2805     1.0  0.56508  0.41755  0.29075  1.0000
  H   H2806     1.0  0.60830  0.38164  0.31421  1.0000
  H   H2807     1.0  0.58348  0.38198  0.30905  1.0000
  H   H2808     1.0  0.60731  0.36659  0.29631  1.0000
  C   C1642     1.0  0.72049  0.33665  0.07599  1.0000
  H   H2809     1.0  0.59746  0.45695  0.24453  1.0000
  H   H2810     1.0  0.58219  0.44742  0.26966  1.0000
  H   H2811     1.0  0.61156  0.37263  0.36675  1.0000
  C   C1643     1.0  0.55030  0.51316  0.40255  1.0000
  H   H2812     1.0  0.53388  0.36168  0.27536  1.0000
  C   C1644     1.0  0.49766  0.61296  0.44792  1.0000
  H   H2813     1.0  0.58779  0.61635  0.39726  1.0000
  H   H2814     1.0  0.55386  0.41950  0.24827  1.0000
  H   H2815     1.0  0.58810  0.42820  0.23775  1.0000
  C   C1645     1.0  0.58513  0.38685  0.23972  1.0000
  H   H2816     1.0  0.70913  0.64076  0.46197  1.0000
  H   H2817     1.0  0.68564  0.38307  0.35878  1.0000
  C   C1646     1.0  0.52983  0.64090  0.29531  1.0000
  H   H2818     1.0  0.51149  0.60837  0.43656  1.0000
  H   H2819     1.0  0.50219  0.62806  0.38392  1.0000
  S   S469      1.0  0.65698  0.35219  0.46908  1.0000
  H   H2820     1.0  0.61391  0.41839  0.24190  1.0000
  H   H2821     1.0  0.57494  0.60232  0.24784  1.0000
  H   H2822     1.0  0.54706  0.56246  0.24239  1.0000
  C   C1647     1.0  0.52785  0.54161  0.26276  1.0000
  H   H2823     1.0  0.66791  0.62454  0.47325  1.0000
  Fe  Fe239     1.0  0.67487  0.37554  0.44689  1.0000
  H   H2824     1.0  0.64294  0.33838  0.05789  1.0000
  H   H2825     1.0  0.58039  0.44900  0.37277  1.0000
  H   H2826     1.0  0.62353  0.32868  0.45875  1.0000
  S   S470      1.0  0.58822  0.63333  0.46380  1.0000
  C   C1648     1.0  0.55686  0.62633  0.41426  1.0000
  H   H2827     1.0  0.67635  0.56607  0.31592  1.0000
  C   C1649     1.0  0.72175  0.60046  0.41912  1.0000
  H   H2828     1.0  0.68797  0.54621  0.30001  1.0000
  H   H2829     1.0  0.72812  0.35042  0.31597  1.0000
  H   H2830     1.0  0.52347  0.40953  0.48428  1.0000
  C   C1650     1.0  0.67316  0.55607  0.30668  1.0000
  H   H2831     1.0  0.50892  0.45974  0.42798  1.0000
  H   H2832     1.0  0.52005  0.65261  0.33855  1.0000
  H   H2833     1.0  0.64465  0.38729  0.35238  1.0000
  C   C1651     1.0  0.57651  0.63353  0.44320  1.0000
  C   C1652     1.0  0.69494  0.36376  0.09182  1.0000
  H   H2834     1.0  0.72583  0.39709  0.16939  1.0000
  N   N119      1.0  0.55609  0.55584  0.27249  1.0000
  H   H2835     1.0  0.68407  0.37873  0.09012  1.0000
  H   H2836     1.0  0.57287  0.53032  0.24260  1.0000
  H   H2837     1.0  0.72350  0.45831  0.33253  1.0000
  H   H2838     1.0  0.66691  0.56700  0.29318  1.0000
  C   C1653     1.0  0.72682  0.47715  0.35294  1.0000
  H   H2839     1.0  0.62348  0.58119  0.45729  1.0000
  C   C1654     1.0  0.67291  0.41909  0.46611  1.0000
  H   H2840     1.0  0.54533  0.64478  0.45943  1.0000
  H   H2841     1.0  0.60635  0.53561  0.45252  1.0000
  C   C1655     1.0  0.67202  0.34747  0.31660  1.0000
  S   S471      1.0  0.54868  0.60346  0.34756  1.0000
  C   C1656     1.0  0.49724  0.41427  0.45287  1.0000
  H   H2842     1.0  0.53802  0.60818  0.30959  1.0000
  C   C1657     1.0  0.71801  0.46259  0.34778  1.0000
  H   H2843     1.0  0.64766  0.60735  0.45070  1.0000
  C   C1658     1.0  0.65914  0.39329  0.38309  1.0000
  N   N120      1.0  0.66253  0.52690  0.33853  1.0000
  C   C1659     1.0  0.65667  0.54291  0.31954  1.0000
  C   C1660     1.0  0.64579  0.51390  0.34730  1.0000
  C   C1661     1.0  0.68320  0.51249  0.33286  1.0000
  C   C1662     1.0  0.66436  0.53839  0.35435  1.0000
  C   C1663     1.0  0.62483  0.52506  0.35896  1.0000
  C   C1664     1.0  0.68479  0.50067  0.31537  1.0000
  C   C1665     1.0  0.66947  0.52459  0.37539  1.0000
  H   H2844     1.0  0.65288  0.53527  0.30845  1.0000
  H   H2845     1.0  0.64217  0.55443  0.32419  1.0000
  H   H2846     1.0  0.65127  0.49903  0.35811  1.0000
  H   H2847     1.0  0.64214  0.50850  0.33450  1.0000
  H   H2848     1.0  0.69632  0.52111  0.32826  1.0000
  H   H2849     1.0  0.68670  0.50025  0.34687  1.0000
  H   H2850     1.0  0.67711  0.54740  0.34775  1.0000
  H   H2851     1.0  0.65015  0.55071  0.35771  1.0000
  H   H2852     1.0  0.62641  0.52823  0.37388  1.0000
  H   H2853     1.0  0.61819  0.53996  0.34904  1.0000
  H   H2854     1.0  0.61330  0.51465  0.36312  1.0000
  H   H2855     1.0  0.68255  0.51148  0.30023  1.0000
  H   H2856     1.0  0.67354  0.48996  0.32007  1.0000
  H   H2857     1.0  0.70069  0.49076  0.31242  1.0000
  H   H2858     1.0  0.68654  0.52161  0.37496  1.0000
  H   H2859     1.0  0.66468  0.50921  0.37958  1.0000
  H   H2860     1.0  0.66104  0.53295  0.38839  1.0000
  N   N121      1.0  0.64132  0.38222  0.38597  1.0000
  C   C1666     1.0  0.62142  0.39864  0.38831  1.0000
  H   H2861     1.0  0.69282  0.38705  0.38103  1.0000
  C   C1667     1.0  0.64217  0.36446  0.40500  1.0000
  C   C1668     1.0  0.61705  0.40926  0.40730  1.0000
  C   C1669     1.0  0.62190  0.35584  0.41528  1.0000
  H   H2862     1.0  0.60748  0.39236  0.38942  1.0000
  H   H2863     1.0  0.62153  0.41140  0.37394  1.0000
  C   C1670     1.0  0.56287  0.39386  0.42927  1.0000
  H   H2864     1.0  0.64637  0.36954  0.41773  1.0000
  H   H2865     1.0  0.60100  0.41901  0.40893  1.0000
  H   H2866     1.0  0.61794  0.39763  0.42224  1.0000
  Fe  Fe240     1.0  0.69648  0.49769  0.45403  1.0000
  C   C1671     1.0  0.66840  0.46171  0.44670  1.0000
  H   H2867     1.0  0.60994  0.36015  0.40561  1.0000
  H   H2868     1.0  0.61475  0.36071  0.43059  1.0000
  C   C1672     1.0  0.72243  0.33544  0.32282  1.0000
  H   H2869     1.0  0.49732  0.57421  0.39181  1.0000
  C   C1673     1.0  0.71150  0.61560  0.43443  1.0000
  H   H2870     1.0  0.66941  0.32870  0.03161  1.0000
  S   S472      1.0  0.70273  0.36649  0.46210  1.0000
  H   H2871     1.0  0.68147  0.58103  0.35191  1.0000
  H   H2872     1.0  0.52591  0.44021  0.41511  1.0000
  H   H2873     1.0  0.51158  0.50888  0.36404  1.0000
  H   H2874     1.0  0.50027  0.42088  0.38365  1.0000
  S   S473      1.0  0.72249  0.54211  0.41575  1.0000
  S   S474      1.0  0.68230  0.47209  0.47710  1.0000
  C   C1674     1.0  0.53310  0.56675  0.42024  1.0000
  C   C1675     1.0  0.54495  0.63529  0.43122  1.0000
  S   S475      1.0  0.69779  0.33655  0.18844  1.0000
  S   S476      1.0  0.59436  0.59653  0.31574  1.0000
  H   H2875     1.0  0.55778  0.52205  0.28331  1.0000
  C   C1676     1.0  0.64406  0.37408  0.36625  1.0000
  H   H2876     1.0  0.58710  0.42338  0.45269  1.0000
  H   H2877     1.0  0.68851  0.64234  0.48443  1.0000
  C   C1677     1.0  0.55473  0.63863  0.44585  1.0000
  H   H2878     1.0  0.60542  0.62308  0.42279  1.0000
  H   H2879     1.0  0.65483  0.35088  0.40121  1.0000
  C   C1678     1.0  0.72049  0.48224  0.37298  1.0000
  C   C1679     1.0  0.56477  0.35637  0.43547  1.0000
  S   S477      1.0  0.57069  0.37792  0.39388  1.0000
  C   C1680     1.0  0.57169  0.56979  0.26124  1.0000
  N   N122      1.0  0.53052  0.54917  0.41142  1.0000
  C   C1681     1.0  0.53044  0.55759  0.38829  1.0000
  H   H2880     1.0  0.56073  0.44222  0.39517  1.0000
  H   H2881     1.0  0.64358  0.62471  0.42661  1.0000
  C   C1682     1.0  0.68877  0.59134  0.45847  1.0000
  H   H2882     1.0  0.54610  0.54842  0.44829  1.0000
  H   H2883     1.0  0.67965  0.60726  0.42074  1.0000
  C   C1683     1.0  0.52234  0.45730  0.41467  1.0000
  C   C1684     1.0  0.70336  0.58137  0.47432  1.0000
  H   H2884     1.0  0.54564  0.56217  0.37987  1.0000
  H   H2885     1.0  0.52869  0.54533  0.38072  1.0000
  H   H2886     1.0  0.72951  0.38419  0.41526  1.0000
  H   H2887     1.0  0.49729  0.35339  0.39362  1.0000
  H   H2888     1.0  0.62153  0.55476  0.44044  1.0000
  H   H2889     1.0  0.56558  0.43078  0.37217  1.0000
  C   C1685     1.0  0.49706  0.65110  0.28279  1.0000
  H   H2890     1.0  0.52813  0.63924  0.43330  1.0000
  C   C1686     1.0  0.51002  0.52513  0.44249  1.0000
  S   S478      1.0  0.58325  0.63156  0.34550  1.0000
  H   H2891     1.0  0.50554  0.59937  0.30648  1.0000
  H   H2892     1.0  0.50109  0.41135  0.32344  1.0000
  H   H2893     1.0  0.56718  0.34231  0.42942  1.0000
  H   H2894     1.0  0.55988  0.34043  0.46817  1.0000
  H   H2895     1.0  0.52468  0.44091  0.46165  1.0000
  H   H2896     1.0  0.65638  0.45323  0.42374  1.0000
  C   C1687     1.0  0.69719  0.63225  0.47291  1.0000
  C   C1688     1.0  0.72874  0.40107  0.40740  1.0000
  H   H2897     1.0  0.54767  0.57250  0.41147  1.0000
  H   H2898     1.0  0.73785  0.60303  0.41174  1.0000
  C   C1689     1.0  0.54642  0.56174  0.29359  1.0000
  C   C1690     1.0  0.53159  0.54814  0.30907  1.0000
  H   H2899     1.0  0.71330  0.60332  0.40613  1.0000
  H   H2900     1.0  0.59219  0.37253  0.23299  1.0000
  H   H2901     1.0  0.55885  0.56174  0.30181  1.0000
  H   H2902     1.0  0.53713  0.57806  0.29161  1.0000
  H   H2903     1.0  0.56829  0.38645  0.24570  1.0000
  H   H2904     1.0  0.51673  0.55059  0.30371  1.0000
  H   H2905     1.0  0.52734  0.55328  0.32438  1.0000
  H   H2906     1.0  0.53896  0.53123  0.31238  1.0000
  H   H2907     1.0  0.54842  0.59906  0.25337  1.0000
  C   C1691     1.0  0.56327  0.59374  0.25920  1.0000
  H   H2908     1.0  0.62581  0.33837  0.41891  1.0000
  S   S479      1.0  0.49602  0.47809  0.27307  1.0000
  C   C1692     1.0  0.56447  0.44532  0.37783  1.0000
  H   H2909     1.0  0.58733  0.40047  0.22660  1.0000
  H   H2910     1.0  0.60493  0.33057  0.25934  1.0000
  H   H2911     1.0  0.65727  0.40842  0.37135  1.0000
  H   H2912     1.0  0.59609  0.53248  0.25030  1.0000
  H   H2913     1.0  0.51400  0.41410  0.45143  1.0000
  H   H2914     1.0  0.51239  0.34930  0.34744  1.0000
  H   H2915     1.0  0.69142  0.58040  0.44762  1.0000
  C   C1693     1.0  0.56567  0.37568  0.42140  1.0000
  N   N123      1.0  0.71167  0.33039  0.30800  1.0000
  H   H2916     1.0  0.56403  0.53775  0.40553  1.0000
  C   C1694     1.0  0.61791  0.44586  0.48734  1.0000
  C   C1695     1.0  0.69390  0.34819  0.30238  1.0000
  N   N124      1.0  0.61001  0.55373  0.47377  1.0000
  C   C1696     1.0  0.51005  0.54225  0.42205  1.0000
  H   H2917     1.0  0.55460  0.44120  0.25923  1.0000
  H   H2918     1.0  0.52544  0.53202  0.27886  1.0000
  S   S480      1.0  0.49448  0.45367  0.32298  1.0000
  H   H2919     1.0  0.53522  0.50149  0.34501  1.0000
  C   C1697     1.0  0.57867  0.62271  0.41069  1.0000
  S   S481      1.0  0.64216  0.59742  0.33781  1.0000
  C   C1698     1.0  0.71164  0.33293  0.11394  1.0000
  H   H2920     1.0  0.56115  0.59859  0.27439  1.0000
  Fe  Fe241     1.0  0.56527  0.60940  0.36966  1.0000
  H   H2921     1.0  0.57368  0.56652  0.45678  1.0000
  C   C1699     1.0  0.68140  0.38083  0.37611  1.0000
  H   H2922     1.0  0.61204  0.42540  0.45550  1.0000
  S   S482      1.0  0.55215  0.64762  0.29887  1.0000
  H   H2923     1.0  0.65908  0.36267  0.36361  1.0000
  H   H2924     1.0  0.64373  0.54436  0.46665  1.0000
  S   S483      1.0  0.54195  0.35072  0.37101  1.0000
  Fe  Fe242     1.0  0.68881  0.54303  0.43132  1.0000
  H   H2925     1.0  0.51810  0.55954  0.45356  1.0000
  H   H2926     1.0  0.53188  0.42907  0.38654  1.0000
  C   C1700     1.0  0.56070  0.35535  0.45738  1.0000
  H   H2927     1.0  0.53510  0.50820  0.40630  1.0000
  C   C1701     1.0  0.66529  0.42623  0.44742  1.0000
  C   C1702     1.0  0.66268  0.44760  0.43794  1.0000
  C   C1703     1.0  0.72089  0.41418  0.42480  1.0000
  S   S484      1.0  0.59160  0.34394  0.34900  1.0000
  C   C1704     1.0  0.70634  0.35592  0.07396  1.0000
  C   C1705     1.0  0.55749  0.37371  0.46517  1.0000
  C   C1706     1.0  0.56811  0.53340  0.27566  1.0000
  H   H2928     1.0  0.72962  0.37497  0.38361  1.0000
  H   H2929     1.0  0.63080  0.51171  0.46617  1.0000
  H   H2930     1.0  0.57842  0.56723  0.24492  1.0000
  S   S485      1.0  0.68938  0.35461  0.42387  1.0000
  H   H2931     1.0  0.68337  0.36376  0.38283  1.0000
  H   H2932     1.0  0.71144  0.63198  0.42519  1.0000
  S   S486      1.0  0.54420  0.61826  0.39876  1.0000
  S   S487      1.0  0.65854  0.40865  0.43605  1.0000
  H   H2933     1.0  0.56210  0.49940  0.40823  1.0000
  H   H2934     1.0  0.59684  0.58728  0.46954  1.0000
  C   C1707     1.0  0.55876  0.39290  0.45100  1.0000
  H   H2935     1.0  0.53565  0.53117  0.25138  1.0000
  H   H2936     1.0  0.58649  0.50860  0.25912  1.0000
  C   C1708     1.0  0.53968  0.55962  0.25943  1.0000
  C   C1709     1.0  0.50027  0.43774  0.38244  1.0000
  H   H2937     1.0  0.71472  0.43091  0.41824  1.0000
  H   H2938     1.0  0.51592  0.59125  0.38556  1.0000
  H   H2939     1.0  0.49866  0.47444  0.39654  1.0000
  H   H2940     1.0  0.62773  0.34743  0.37655  1.0000
  H   H2941     1.0  0.66136  0.36284  0.31263  1.0000
  Fe  Fe243     1.0  0.71555  0.34283  0.44130  1.0000
  Fe  Fe244     1.0  0.66814  0.33193  0.21174  1.0000
  H   H2942     1.0  0.69708  0.35279  0.34331  1.0000
  H   H2943     1.0  0.66246  0.34557  0.06656  1.0000
  H   H2944     1.0  0.72264  0.61313  0.44492  1.0000
  H   H2945     1.0  0.67581  0.64501  0.45226  1.0000
  C   C1710     1.0  0.49366  0.63053  0.29041  1.0000
  C   C1711     1.0  0.51515  0.65627  0.28528  1.0000
  H   H2946     1.0  0.61401  0.33498  0.23153  1.0000
  H   H2947     1.0  0.72328  0.58376  0.42741  1.0000
  H   H2948     1.0  0.69186  0.34909  0.28619  1.0000
  H   H2949     1.0  0.73764  0.43755  0.38414  1.0000
  C   C1712     1.0  0.61189  0.57623  0.47166  1.0000
  H   H2950     1.0  0.70768  0.40808  0.43612  1.0000
  H   H2951     1.0  0.73442  0.34162  0.19782  1.0000
  H   H2952     1.0  0.49427  0.52773  0.45276  1.0000
  C   C1713     1.0  0.52033  0.65679  0.35344  1.0000
  C   C1714     1.0  0.58915  0.41881  0.48545  1.0000
  C   C1715     1.0  0.63220  0.51579  0.48069  1.0000
  C   C1716     1.0  0.51852  0.50043  0.35089  1.0000
  H   H2953     1.0  0.73612  0.41278  0.36422  1.0000
  C   C1717     1.0  0.51277  0.33991  0.44666  1.0000
  H   H2954     1.0  0.63276  0.41560  0.47942  1.0000
  C   C1718     1.0  0.73173  0.38191  0.17948  1.0000
  C   C1719     1.0  0.49965  0.61966  0.46539  1.0000
  C   C1720     1.0  0.49316  0.33760  0.45909  1.0000
  H   H2955     1.0  0.73722  0.37063  0.16881  1.0000
  S   S488      1.0  0.73444  0.32783  0.05302  1.0000
  C   C1721     1.0  0.63017  0.53957  0.47874  1.0000
  Fe  Fe245     1.0  0.68558  0.34181  0.48340  1.0000
  C   C1722     1.0  0.50045  0.33968  0.35613  1.0000
  H   H2956     1.0  0.53613  0.33168  0.42008  1.0000
  C   C1723     1.0  0.52101  0.32972  0.42965  1.0000
  C   C1724     1.0  0.51574  0.44286  0.47759  1.0000
  H   H2957     1.0  0.74050  0.39159  0.20334  1.0000
  H   H2958     1.0  0.52064  0.47111  0.34221  1.0000
  H   H2959     1.0  0.64806  0.50769  0.48353  1.0000
  C   C1725     1.0  0.51530  0.47746  0.35690  1.0000
  H   H2960     1.0  0.51035  0.50903  0.33780  1.0000
  H   H2961     1.0  0.49520  0.39791  0.45468  1.0000
  H   H2962     1.0  0.49805  0.47850  0.36120  1.0000
  H   H2963     1.0  0.60937  0.45209  0.47423  1.0000
  H   H2964     1.0  0.61569  0.59853  0.48834  1.0000
  H   H2965     1.0  0.52640  0.44800  0.48461  1.0000
  C   C1726     1.0  0.73858  0.34621  0.27691  1.0000
  H   H2966     1.0  0.74311  0.35859  0.22480  1.0000
  H   H2967     1.0  0.74047  0.37900  0.35612  1.0000
  H   H2968     1.0  0.63294  0.45136  0.48208  1.0000
  H   H2969     1.0  0.58120  0.43554  0.48538  1.0000
  H   H2970     1.0  0.50422  0.38528  0.48630  1.0000
  H   H2971     1.0  0.68359  0.42779  0.48987  1.0000
  H   H2972     1.0  0.51633  0.41857  0.62447  1.0000
  H   H2973     1.0  0.63477  0.57473  0.49067  1.0000
  H   H2974     1.0  0.52790  0.42020  0.58471  1.0000
  C   C1727     1.0  0.70157  0.61208  0.62671  1.0000
  H   H2975     1.0  0.59944  0.57264  0.64193  1.0000
  Fe  Fe246     1.0  0.54788  0.59151  0.52602  1.0000
  H   H2976     1.0  0.71976  0.43576  0.55043  1.0000
  Fe  Fe247     1.0  0.62794  0.63812  0.77881  1.0000
  H   H2977     1.0  0.62902  0.33036  0.50746  1.0000
  S   S489      1.0  0.62837  0.60447  0.77848  1.0000
  H   H2978     1.0  0.70078  0.48323  0.55216  1.0000
  Fe  Fe248     1.0  0.54988  0.34257  0.51477  1.0000
  C   C1728     1.0  0.59037  0.53171  0.56431  1.0000
  S   S490      1.0  0.64187  0.64526  0.80268  1.0000
  Fe  Fe249     1.0  0.72415  0.53154  0.70223  1.0000
  S   S491      1.0  0.72110  0.56466  0.68415  1.0000
  H   H2979     1.0  0.71886  0.45931  0.57389  1.0000
  Fe  Fe250     1.0  0.70420  0.51809  0.67203  1.0000
  S   S492      1.0  0.69992  0.55051  0.65170  1.0000
  S   S493      1.0  0.69819  0.48937  0.66387  1.0000
  Fe  Fe251     1.0  0.73198  0.55049  0.65548  1.0000
  Fe  Fe252     1.0  0.68947  0.56165  0.68230  1.0000
  S   S494      1.0  0.66490  0.59084  0.68541  1.0000
  H   H2980     1.0  0.56001  0.41351  0.52328  1.0000
  S   S495      1.0  0.69114  0.52929  0.70273  1.0000
  Fe  Fe253     1.0  0.63159  0.45741  0.59693  1.0000
  S   S496      1.0  0.64471  0.46437  0.56224  1.0000
  S   S497      1.0  0.63096  0.48258  0.61476  1.0000
  Fe  Fe254     1.0  0.61474  0.42005  0.59265  1.0000
  S   S498      1.0  0.62641  0.42484  0.55784  1.0000
  S   S499      1.0  0.59643  0.39466  0.61046  1.0000
  Fe  Fe255     1.0  0.65522  0.42948  0.56554  1.0000
  S   S500      1.0  0.68668  0.41624  0.54788  1.0000
  Fe  Fe256     1.0  0.61469  0.45914  0.55799  1.0000
  S   S501      1.0  0.59914  0.48095  0.53230  1.0000
  S   S502      1.0  0.64457  0.42246  0.60067  1.0000
  S   S503      1.0  0.60051  0.45428  0.59236  1.0000
  C   C1729     1.0  0.57590  0.47412  0.53169  1.0000
  C   C1730     1.0  0.56407  0.46418  0.55005  1.0000
  C   C1731     1.0  0.54597  0.45801  0.54917  1.0000
  C   C1732     1.0  0.54021  0.46089  0.52984  1.0000
  C   C1733     1.0  0.55213  0.47068  0.51145  1.0000
  C   C1734     1.0  0.56968  0.47774  0.51245  1.0000
  H   H2981     1.0  0.56877  0.46138  0.56496  1.0000
  H   H2982     1.0  0.53679  0.45060  0.56341  1.0000
  H   H2983     1.0  0.66534  0.63591  0.67013  1.0000
  H   H2984     1.0  0.68721  0.63068  0.85758  1.0000
  C   C1735     1.0  0.68007  0.48830  0.64910  1.0000
  C   C1736     1.0  0.66409  0.50544  0.64408  1.0000
  C   C1737     1.0  0.64934  0.50347  0.63337  1.0000
  C   C1738     1.0  0.65061  0.48450  0.62723  1.0000
  C   C1739     1.0  0.66689  0.46755  0.63177  1.0000
  C   C1740     1.0  0.68142  0.46941  0.64280  1.0000
  H   H2985     1.0  0.66291  0.52002  0.64880  1.0000
  H   H2986     1.0  0.63682  0.51664  0.62995  1.0000
  H   H2987     1.0  0.66799  0.45283  0.62730  1.0000
  H   H2988     1.0  0.69366  0.45604  0.64668  1.0000
  C   C1741     1.0  0.59379  0.35388  0.61509  1.0000
  H   H2989     1.0  0.59491  0.35247  0.63123  1.0000
  C   C1742     1.0  0.66841  0.36391  0.54530  1.0000
  C   C1743     1.0  0.66987  0.38179  0.55172  1.0000
  C   C1744     1.0  0.68509  0.39352  0.54033  1.0000
  C   C1745     1.0  0.69896  0.38720  0.52266  1.0000
  H   H2990     1.0  0.65660  0.35494  0.55414  1.0000
  H   H2991     1.0  0.65940  0.38633  0.56566  1.0000
  H   H2992     1.0  0.70829  0.36454  0.50268  1.0000
  C   C1746     1.0  0.63681  0.59995  0.75269  1.0000
  C   C1747     1.0  0.63432  0.61664  0.73560  1.0000
  C   C1748     1.0  0.64282  0.61361  0.71505  1.0000
  C   C1749     1.0  0.65409  0.59387  0.71142  1.0000
  C   C1750     1.0  0.65609  0.57690  0.72846  1.0000
  C   C1751     1.0  0.64707  0.57988  0.74908  1.0000
  H   H2993     1.0  0.62552  0.63184  0.73827  1.0000
  H   H2994     1.0  0.64071  0.62666  0.70197  1.0000
  H   H2995     1.0  0.66436  0.56147  0.72580  1.0000
  H   H2996     1.0  0.64830  0.56674  0.76224  1.0000
  H   H2997     1.0  0.54716  0.51249  0.58713  1.0000
  H   H2998     1.0  0.51830  0.57284  0.56409  1.0000
  C   C1752     1.0  0.68463  0.49262  0.52665  1.0000
  H   H2999     1.0  0.67165  0.64210  0.70154  1.0000
  C   C1753     1.0  0.71545  0.45692  0.51130  1.0000
  C   C1754     1.0  0.72864  0.61932  0.81604  1.0000
  C   C1755     1.0  0.70817  0.61833  0.81630  1.0000
  C   C1756     1.0  0.69726  0.63267  0.80163  1.0000
  H   H3000     1.0  0.72243  0.53105  0.78164  1.0000
  C   C1757     1.0  0.69870  0.47553  0.54016  1.0000
  H   H3001     1.0  0.73228  0.57367  0.75159  1.0000
  H   H3002     1.0  0.70113  0.60589  0.82721  1.0000
  C   C1758     1.0  0.70308  0.62870  0.68755  1.0000
  H   H3003     1.0  0.74243  0.44014  0.57231  1.0000
  C   C1759     1.0  0.59051  0.56890  0.65823  1.0000
  H   H3004     1.0  0.72513  0.49469  0.50684  1.0000
  C   C1760     1.0  0.57278  0.40710  0.53226  1.0000
  H   H3005     1.0  0.69976  0.45254  0.51586  1.0000
  C   C1761     1.0  0.72654  0.57423  0.76854  1.0000
  H   H3006     1.0  0.58767  0.35888  0.55796  1.0000
  H   H3007     1.0  0.57631  0.40979  0.49037  1.0000
  S   S504      1.0  0.52138  0.61346  0.54170  1.0000
  H   H3008     1.0  0.56664  0.41132  0.54796  1.0000
  S   S505      1.0  0.57213  0.60997  0.52379  1.0000
  C   C1762     1.0  0.56159  0.54804  0.58920  1.0000
  H   H3009     1.0  0.69078  0.62755  0.62439  1.0000
  H   H3010     1.0  0.60483  0.54871  0.58706  1.0000
  H   H3011     1.0  0.70222  0.60270  0.59800  1.0000
  C   C1763     1.0  0.59591  0.37272  0.60061  1.0000
  H   H3012     1.0  0.57945  0.58060  0.68658  1.0000
  H   H3013     1.0  0.73286  0.49078  0.53112  1.0000
  H   H3014     1.0  0.62944  0.57224  0.69744  1.0000
  C   C1764     1.0  0.59411  0.60285  0.70766  1.0000
  H   H3015     1.0  0.56742  0.51096  0.61500  1.0000
  H   H3016     1.0  0.55250  0.40432  0.58897  1.0000
  H   H3017     1.0  0.57432  0.56906  0.65703  1.0000
  H   H3018     1.0  0.60278  0.59011  0.71829  1.0000
  C   C1765     1.0  0.58947  0.35754  0.57383  1.0000
  H   H3019     1.0  0.68950  0.46318  0.54896  1.0000
  H   H3020     1.0  0.60284  0.54154  0.62538  1.0000
  H   H3021     1.0  0.71815  0.62767  0.69202  1.0000
  Fe  Fe257     1.0  0.54517  0.63346  0.53712  1.0000
  S   S506      1.0  0.54247  0.60615  0.49372  1.0000
  H   H3022     1.0  0.69113  0.65064  0.70815  1.0000
  H   H3023     1.0  0.52789  0.41086  0.55600  1.0000
  C   C1766     1.0  0.68192  0.35796  0.52726  1.0000
  N   N125      1.0  0.61038  0.58768  0.67385  1.0000
  S   S507      1.0  0.55165  0.37364  0.49237  1.0000
  Fe  Fe258     1.0  0.51700  0.62943  0.50886  1.0000
  C   C1767     1.0  0.63626  0.55109  0.67695  1.0000
  C   C1768     1.0  0.52399  0.39508  0.55988  1.0000
  C   C1769     1.0  0.70570  0.53460  0.78084  1.0000
  C   C1770     1.0  0.52796  0.52671  0.54765  1.0000
  C   C1771     1.0  0.70639  0.64864  0.78736  1.0000
  H   H3024     1.0  0.63020  0.54595  0.66562  1.0000
  H   H3025     1.0  0.60936  0.45296  0.50102  1.0000
  H   H3026     1.0  0.58090  0.60055  0.66356  1.0000
  N   N126      1.0  0.60372  0.41133  0.50081  1.0000
  C   C1772     1.0  0.58594  0.33933  0.58888  1.0000
  H   H3027     1.0  0.68219  0.63075  0.80093  1.0000
  C   C1773     1.0  0.58904  0.33726  0.60922  1.0000
  C   C1774     1.0  0.59436  0.37434  0.57973  1.0000
  H   H3028     1.0  0.55351  0.36936  0.61177  1.0000
  C   C1775     1.0  0.58966  0.58523  0.67108  1.0000
  S   S508      1.0  0.67918  0.33632  0.51862  1.0000
  C   C1776     1.0  0.56835  0.65894  0.56222  1.0000
  C   C1777     1.0  0.60621  0.60607  0.68456  1.0000
  Fe  Fe259     1.0  0.56363  0.62739  0.49292  1.0000
  C   C1778     1.0  0.71313  0.64040  0.58287  1.0000
  C   C1779     1.0  0.71374  0.60540  0.60591  1.0000
  H   H3029     1.0  0.57646  0.38974  0.53475  1.0000
  C   C1780     1.0  0.58937  0.54009  0.61950  1.0000
  H   H3030     1.0  0.72657  0.43385  0.49128  1.0000
  H   H3031     1.0  0.49896  0.39506  0.62214  1.0000
  H   H3032     1.0  0.57781  0.55512  0.61969  1.0000
  C   C1781     1.0  0.59733  0.53559  0.59713  1.0000
  H   H3033     1.0  0.53065  0.36465  0.57940  1.0000
  H   H3034     1.0  0.61054  0.52189  0.59820  1.0000
  H   H3035     1.0  0.69612  0.53193  0.79698  1.0000
  H   H3036     1.0  0.57067  0.49796  0.57311  1.0000
  S   S509      1.0  0.54864  0.64470  0.56510  1.0000
  H   H3037     1.0  0.65916  0.65169  0.64588  1.0000
  H   H3038     1.0  0.66762  0.65103  0.83417  1.0000
  C   C1782     1.0  0.53276  0.41593  0.61579  1.0000
  H   H3039     1.0  0.57886  0.57448  0.58056  1.0000
  H   H3040     1.0  0.59620  0.54591  0.50692  1.0000
  H   H3041     1.0  0.71232  0.61170  0.63695  1.0000
  C   C1783     1.0  0.59209  0.41698  0.52157  1.0000
  C   C1784     1.0  0.73753  0.63564  0.80226  1.0000
  C   C1785     1.0  0.62500  0.37716  0.51953  1.0000
  C   C1786     1.0  0.61126  0.38785  0.50299  1.0000
  H   H3042     1.0  0.67101  0.65885  0.88056  1.0000
  C   C1787     1.0  0.53627  0.37110  0.61575  1.0000
  H   H3043     1.0  0.60265  0.41319  0.53292  1.0000
  H   H3044     1.0  0.69735  0.61393  0.69556  1.0000
  H   H3045     1.0  0.63225  0.41738  0.50544  1.0000
  N   N127      1.0  0.58134  0.53146  0.58729  1.0000
  H   H3046     1.0  0.54324  0.40573  0.62637  1.0000
  H   H3047     1.0  0.57827  0.59997  0.70917  1.0000
  H   H3048     1.0  0.65100  0.55664  0.66883  1.0000
  C   C1788     1.0  0.49585  0.38202  0.51953  1.0000
  H   H3049     1.0  0.55041  0.54518  0.58114  1.0000
  C   C1789     1.0  0.69731  0.36951  0.51610  1.0000
  H   H3050     1.0  0.57888  0.52910  0.55645  1.0000
  H   H3051     1.0  0.63990  0.38283  0.51555  1.0000
  C   C1790     1.0  0.62506  0.59264  0.65299  1.0000
  C   C1791     1.0  0.51094  0.42153  0.49113  1.0000
  C   C1792     1.0  0.73458  0.59193  0.77313  1.0000
  C   C1793     1.0  0.61716  0.61264  0.63743  1.0000
  H   H3052     1.0  0.58622  0.43420  0.51968  1.0000
  H   H3053     1.0  0.53932  0.51764  0.53706  1.0000
  H   H3054     1.0  0.59702  0.62041  0.67597  1.0000
  S   S510      1.0  0.53788  0.65220  0.50583  1.0000
  H   H3055     1.0  0.64014  0.59444  0.65559  1.0000
  H   H3056     1.0  0.54771  0.47295  0.49648  1.0000
  S   S511      1.0  0.51880  0.45137  0.52831  1.0000
  H   H3057     1.0  0.70349  0.52295  0.77277  1.0000
  H   H3058     1.0  0.65029  0.64069  0.87221  1.0000
  H   H3059     1.0  0.53755  0.43145  0.61093  1.0000
  H   H3060     1.0  0.62884  0.61378  0.62240  1.0000
  H   H3061     1.0  0.60217  0.61236  0.63363  1.0000
  H   H3062     1.0  0.61573  0.62711  0.64322  1.0000
  H   H3063     1.0  0.62927  0.57955  0.64440  1.0000
  H   H3064     1.0  0.59039  0.49813  0.60035  1.0000
  H   H3065     1.0  0.58267  0.52700  0.63065  1.0000
  N   N128      1.0  0.70338  0.57480  0.77520  1.0000
  C   C1794     1.0  0.69868  0.55697  0.76833  1.0000
  C   C1795     1.0  0.69096  0.59522  0.76512  1.0000
  C   C1796     1.0  0.69741  0.57259  0.79872  1.0000
  H   H3066     1.0  0.51333  0.42022  0.50729  1.0000
  C   C1797     1.0  0.53541  0.40708  0.59593  1.0000
  C   C1798     1.0  0.69778  0.60190  0.74113  1.0000
  C   C1799     1.0  0.67402  0.57289  0.80831  1.0000
  C   C1800     1.0  0.72651  0.65024  0.78785  1.0000
  H   H3067     1.0  0.68169  0.55906  0.76902  1.0000
  C   C1801     1.0  0.72962  0.44793  0.54399  1.0000
  H   H3068     1.0  0.69086  0.60848  0.77234  1.0000
  H   H3069     1.0  0.67421  0.59435  0.76809  1.0000
  H   H3070     1.0  0.70681  0.55806  0.80681  1.0000
  H   H3071     1.0  0.70133  0.58559  0.80345  1.0000
  H   H3072     1.0  0.70979  0.64307  0.84825  1.0000
  C   C1802     1.0  0.59171  0.54917  0.49133  1.0000
  S   S512      1.0  0.73749  0.51729  0.67358  1.0000
  H   H3073     1.0  0.54056  0.33859  0.63226  1.0000
  C   C1803     1.0  0.49905  0.54960  0.57573  1.0000
  H   H3074     1.0  0.73822  0.58754  0.78914  1.0000
  H   H3075     1.0  0.53116  0.37617  0.63112  1.0000
  H   H3076     1.0  0.69763  0.58959  0.73282  1.0000
  H   H3077     1.0  0.66433  0.58879  0.80407  1.0000
  H   H3078     1.0  0.67183  0.56900  0.82574  1.0000
  H   H3079     1.0  0.66795  0.56125  0.80358  1.0000
  H   H3080     1.0  0.60811  0.57541  0.50560  1.0000
  H   H3081     1.0  0.50678  0.39670  0.56296  1.0000
  H   H3082     1.0  0.63277  0.64603  0.85464  1.0000
  H   H3083     1.0  0.60826  0.49912  0.56667  1.0000
  C   C1804     1.0  0.73364  0.45422  0.56303  1.0000
  H   H3084     1.0  0.55091  0.37834  0.57309  1.0000
  C   C1805     1.0  0.53148  0.34888  0.62042  1.0000
  H   H3085     1.0  0.60833  0.56028  0.69951  1.0000
  S   S513      1.0  0.55241  0.55634  0.53299  1.0000
  H   H3086     1.0  0.59385  0.54743  0.55594  1.0000
  H   H3087     1.0  0.71504  0.46916  0.49661  1.0000
  C   C1806     1.0  0.56395  0.57109  0.57963  1.0000
  H   H3088     1.0  0.51482  0.34875  0.62758  1.0000
  C   C1807     1.0  0.68663  0.64766  0.69447  1.0000
  C   C1808     1.0  0.73239  0.48237  0.51896  1.0000
  C   C1809     1.0  0.62042  0.56811  0.68780  1.0000
  C   C1810     1.0  0.61058  0.51536  0.55945  1.0000
  H   H3089     1.0  0.61512  0.51632  0.54216  1.0000
  H   H3090     1.0  0.62385  0.51828  0.56453  1.0000
  H   H3091     1.0  0.60589  0.64785  0.70363  1.0000
  C   C1811     1.0  0.66149  0.65236  0.66150  1.0000
  H   H3092     1.0  0.69182  0.50647  0.51870  1.0000
  H   H3093     1.0  0.61678  0.37896  0.53563  1.0000
  H   H3094     1.0  0.56245  0.57538  0.56289  1.0000
  H   H3095     1.0  0.59592  0.38889  0.56855  1.0000
  H   H3096     1.0  0.68641  0.61612  0.73555  1.0000
  C   C1812     1.0  0.62249  0.42160  0.49325  1.0000
  C   C1813     1.0  0.51607  0.55792  0.56271  1.0000
  H   H3097     1.0  0.69324  0.65501  0.64941  1.0000
  H   H3098     1.0  0.64054  0.53693  0.68910  1.0000
  H   H3099     1.0  0.53061  0.38830  0.54555  1.0000
  H   H3100     1.0  0.70611  0.55683  0.75152  1.0000
  H   H3101     1.0  0.72365  0.60730  0.77153  1.0000
  H   H3102     1.0  0.59189  0.61745  0.71359  1.0000
  S   S514      1.0  0.64688  0.65614  0.75082  1.0000
  H   H3103     1.0  0.71081  0.39611  0.51388  1.0000
  H   H3104     1.0  0.49952  0.36474  0.52031  1.0000
  C   C1814     1.0  0.64225  0.65338  0.86104  1.0000
  H   H3105     1.0  0.72332  0.58967  0.61087  1.0000
  H   H3106     1.0  0.70189  0.63737  0.57484  1.0000
  S   S515      1.0  0.53226  0.33971  0.54842  1.0000
  H   H3107     1.0  0.55876  0.48677  0.59898  1.0000
  H   H3108     1.0  0.55287  0.54702  0.60578  1.0000
  H   H3109     1.0  0.68025  0.48639  0.51490  1.0000
  C   C1815     1.0  0.53369  0.38036  0.57823  1.0000
  N   N129      1.0  0.72714  0.62001  0.59085  1.0000
  H   H3110     1.0  0.69169  0.60042  0.63559  1.0000
  H   H3111     1.0  0.55149  0.58182  0.58844  1.0000
  H   H3112     1.0  0.62114  0.61047  0.68435  1.0000
  H   H3113     1.0  0.59684  0.55275  0.66611  1.0000
  N   N130      1.0  0.52675  0.38751  0.59894  1.0000
  H   H3114     1.0  0.66980  0.49841  0.53711  1.0000
  H   H3115     1.0  0.70599  0.62850  0.67067  1.0000
  H   H3116     1.0  0.57891  0.48523  0.49821  1.0000
  C   C1816     1.0  0.57600  0.51036  0.59861  1.0000
  C   C1817     1.0  0.51064  0.51859  0.56034  1.0000
  H   H3117     1.0  0.73530  0.55938  0.77674  1.0000
  H   H3118     1.0  0.50955  0.38615  0.52259  1.0000
  N   N131      1.0  0.71953  0.46555  0.52839  1.0000
  C   C1818     1.0  0.56238  0.50174  0.58863  1.0000
  C   C1819     1.0  0.53053  0.54652  0.54864  1.0000
  C   C1820     1.0  0.49619  0.53006  0.57441  1.0000
  H   H3119     1.0  0.53652  0.34130  0.60662  1.0000
  H   H3120     1.0  0.49709  0.40855  0.59619  1.0000
  H   H3121     1.0  0.73184  0.65291  0.55204  1.0000
  H   H3122     1.0  0.72021  0.64529  0.61937  1.0000
  H   H3123     1.0  0.70293  0.64788  0.59575  1.0000
  H   H3124     1.0  0.49987  0.36344  0.59740  1.0000
  H   H3125     1.0  0.70232  0.63197  0.87536  1.0000
  H   H3126     1.0  0.72620  0.60847  0.56362  1.0000
  H   H3127     1.0  0.50864  0.50336  0.55939  1.0000
  C   C1821     1.0  0.73055  0.43691  0.50521  1.0000
  H   H3128     1.0  0.62942  0.36004  0.51978  1.0000
  C   C1822     1.0  0.73716  0.63921  0.61521  1.0000
  S   S516      1.0  0.73839  0.52224  0.73145  1.0000
  C   C1823     1.0  0.50334  0.39295  0.60555  1.0000
  H   H3129     1.0  0.59797  0.37963  0.50638  1.0000
  H   H3130     1.0  0.72849  0.42293  0.51803  1.0000
  H   H3131     1.0  0.57887  0.56338  0.49129  1.0000
  H   H3132     1.0  0.56786  0.65204  0.59550  1.0000
  C   C1824     1.0  0.69603  0.64083  0.86111  1.0000
  C   C1825     1.0  0.73789  0.61007  0.57200  1.0000
  H   H3133     1.0  0.71342  0.60612  0.73672  1.0000
  H   H3134     1.0  0.72744  0.65333  0.66187  1.0000
  H   H3135     1.0  0.57731  0.52227  0.50757  1.0000
  H   H3136     1.0  0.62114  0.50914  0.49455  1.0000
  C   C1826     1.0  0.72427  0.65742  0.56739  1.0000
  H   H3137     1.0  0.63269  0.54101  0.49404  1.0000
  C   C1827     1.0  0.58150  0.53096  0.49112  1.0000
  H   H3138     1.0  0.74269  0.63195  0.63019  1.0000
  S   S517      1.0  0.49315  0.46132  0.58600  1.0000
  C   C1828     1.0  0.61798  0.58118  0.49033  1.0000
  H   H3139     1.0  0.49512  0.56412  0.49022  1.0000
  H   H3140     1.0  0.69565  0.58473  0.49015  1.0000
  C   C1829     1.0  0.53187  0.67529  0.34761  1.0000
  C   C1830     1.0  0.51360  0.94093  0.13924  1.0000
  H   H3141     1.0  0.68422  0.91257  0.14438  1.0000
  H   H3142     1.0  0.66196  0.86477  0.05590  1.0000
  H   H3143     1.0  0.59528  0.80486  0.00759  1.0000
  H   H3144     1.0  0.72318  0.95504  0.18055  1.0000
  C   C1831     1.0  0.70448  0.94095  0.16790  1.0000
  C   C1832     1.0  0.65816  0.99102  0.16613  1.0000
  H   H3145     1.0  0.71383  0.96903  0.00190  1.0000
  S   S518      1.0  0.63856  0.97238  0.14645  1.0000
  S   S519      1.0  0.53579  0.94737  0.04160  1.0000
  C   C1833     1.0  0.61724  0.91298  0.00730  1.0000
  H   H3146     1.0  0.50662  0.88756  0.01887  1.0000
  Fe  Fe260     1.0  0.57569  0.80923  0.04885  1.0000
  S   S520      1.0  0.56700  0.84346  0.03502  1.0000
  S   S521      1.0  0.61021  0.79667  0.04558  1.0000
  Fe  Fe261     1.0  0.53071  0.80493  0.06638  1.0000
  S   S522      1.0  0.51811  0.83927  0.05479  1.0000
  S   S523      1.0  0.51200  0.77984  0.08437  1.0000
  Fe  Fe262     1.0  0.54152  0.83500  0.02502  1.0000
  H   H3147     1.0  0.52340  0.89865  0.13623  1.0000
  Fe  Fe263     1.0  0.54483  0.84517  0.06564  1.0000
  S   S524      1.0  0.54318  0.87423  0.07750  1.0000
  S   S525      1.0  0.55237  0.80016  0.03576  1.0000
  S   S526      1.0  0.55509  0.81136  0.08042  1.0000
  H   H3148     1.0  0.51772  0.67222  0.27949  1.0000
  H   H3149     1.0  0.60839  0.96163  0.00838  1.0000
  H   H3150     1.0  0.52155  0.69071  0.34321  1.0000
  H   H3151     1.0  0.54672  0.93240  0.15445  1.0000
  C   C1834     1.0  0.69928  0.87778  0.02778  1.0000
  H   H3152     1.0  0.56567  0.92067  0.13498  1.0000
  H   H3153     1.0  0.62240  0.83252  0.05882  1.0000
  H   H3154     1.0  0.67648  0.94003  0.14393  1.0000
  H   H3155     1.0  0.65307  0.87169  0.02291  1.0000
  C   C1835     1.0  0.72546  0.94629  0.16783  1.0000
  S   S527      1.0  0.53257  0.85184  0.99383  1.0000
  Fe  Fe264     1.0  0.66258  0.93781  0.08246  1.0000
  S   S528      1.0  0.65263  0.92406  0.11666  1.0000
  S   S529      1.0  0.69537  0.92637  0.06643  1.0000
  Fe  Fe265     1.0  0.62061  0.96604  0.07991  1.0000
  S   S530      1.0  0.60734  0.95475  0.11392  1.0000
  H   H3156     1.0  0.55956  0.93182  0.99366  1.0000
  Fe  Fe266     1.0  0.63808  0.95761  0.11947  1.0000
  H   H3157     1.0  0.49737  0.90447  0.03725  1.0000
  Fe  Fe267     1.0  0.62313  0.92258  0.10752  1.0000
  S   S531      1.0  0.60882  0.89336  0.11948  1.0000
  S   S532      1.0  0.65003  0.97142  0.08575  1.0000
  S   S533      1.0  0.63450  0.93369  0.07310  1.0000
  H   H3158     1.0  0.69737  0.93555  0.18457  1.0000
  H   H3159     1.0  0.55695  0.88649  0.14876  1.0000
  C   C1836     1.0  0.71651  0.93423  0.13231  1.0000
  C   C1837     1.0  0.55280  0.96002  0.04739  1.0000
  C   C1838     1.0  0.57366  0.94989  0.04679  1.0000
  C   C1839     1.0  0.58768  0.95941  0.05138  1.0000
  H   H3160     1.0  0.58893  0.87697  0.01134  1.0000
  H   H3161     1.0  0.56020  0.89676  0.16950  1.0000
  H   H3162     1.0  0.57900  0.93448  0.04314  1.0000
  H   H3163     1.0  0.60377  0.95150  0.05051  1.0000
  C   C1840     1.0  0.50083  0.66707  0.38635  1.0000
  H   H3164     1.0  0.65777  0.81574  0.05638  1.0000
  H   H3165     1.0  0.51581  0.81230  0.01256  1.0000
  C   C1841     1.0  0.62203  0.96917  0.00098  1.0000
  H   H3166     1.0  0.64482  0.98966  0.17897  1.0000
  H   H3167     1.0  0.51750  0.77778  0.02876  1.0000
  H   H3168     1.0  0.58685  0.93298  0.00692  1.0000
  C   C1842     1.0  0.50193  0.81390  0.00580  1.0000
  H   H3169     1.0  0.73089  0.95697  0.15289  1.0000
  H   H3170     1.0  0.70088  0.92558  0.11135  1.0000
  H   H3171     1.0  0.73776  0.93200  0.17059  1.0000
  C   C1843     1.0  0.70994  0.97310  0.01765  1.0000
  C   C1844     1.0  0.64812  0.85765  0.03396  1.0000
  C   C1845     1.0  0.56471  0.87711  0.08629  1.0000
  C   C1846     1.0  0.57141  0.86317  0.10382  1.0000
  C   C1847     1.0  0.58523  0.86820  0.11355  1.0000
  C   C1848     1.0  0.59286  0.88696  0.10562  1.0000
  C   C1849     1.0  0.58702  0.90036  0.08743  1.0000
  C   C1850     1.0  0.57267  0.89561  0.07810  1.0000
  H   H3172     1.0  0.56496  0.84913  0.11061  1.0000
  H   H3173     1.0  0.58961  0.85775  0.12764  1.0000
  H   H3174     1.0  0.59270  0.91489  0.08120  1.0000
  H   H3175     1.0  0.56682  0.90670  0.06510  1.0000
  H   H3176     1.0  0.61028  0.85204  0.07417  1.0000
  H   H3177     1.0  0.61910  0.91985  0.02002  1.0000
  H   H3178     1.0  0.50541  0.68269  0.38201  1.0000
  H   H3179     1.0  0.70933  0.95105  0.12704  1.0000
  C   C1851     1.0  0.71119  0.87326  0.04330  1.0000
  H   H3180     1.0  0.53459  0.91092  0.01240  1.0000
  C   C1852     1.0  0.68381  0.92482  0.15308  1.0000
  H   H3181     1.0  0.50025  0.68595  0.32327  1.0000
  H   H3182     1.0  0.67471  0.85257  0.08896  1.0000
  Fe  Fe268     1.0  0.50259  0.95832  0.05714  1.0000
  H   H3183     1.0  0.63477  0.87402  0.05962  1.0000
  H   H3184     1.0  0.50946  0.67845  0.12500  1.0000
  H   H3185     1.0  0.58680  0.90788  0.02364  1.0000
  H   H3186     1.0  0.67220  0.90373  0.18240  1.0000
  C   C1853     1.0  0.65958  0.82148  0.06987  1.0000
  H   H3187     1.0  0.66603  0.93157  0.18414  1.0000
  H   H3188     1.0  0.71424  0.89210  0.15496  1.0000
  H   H3189     1.0  0.54574  0.90052  0.11614  1.0000
  H   H3190     1.0  0.49760  0.83002  0.10475  1.0000
  H   H3191     1.0  0.49807  0.74191  0.08797  1.0000
  C   C1854     1.0  0.64293  0.84555  0.09476  1.0000
  H   H3192     1.0  0.56739  0.81721  0.99210  1.0000
  C   C1855     1.0  0.58111  0.97940  0.05614  1.0000
  H   H3193     1.0  0.55521  0.90205  0.02666  1.0000
  C   C1856     1.0  0.64779  0.82362  0.99430  1.0000
  H   H3194     1.0  0.69958  0.90196  0.19528  1.0000
  S   S534      1.0  0.59906  0.99102  0.06171  1.0000
  H   H3195     1.0  0.65744  0.85899  0.11245  1.0000
  S   S535      1.0  0.70103  0.85808  0.01405  1.0000
  C   C1857     1.0  0.54604  0.98014  0.05214  1.0000
  C   C1858     1.0  0.59487  0.88444  0.99480  1.0000
  H   H3196     1.0  0.71959  0.88482  0.06659  1.0000
  C   C1859     1.0  0.62118  0.80685  0.01959  1.0000
  H   H3197     1.0  0.72163  0.85812  0.04613  1.0000
  C   C1860     1.0  0.71482  0.89567  0.18598  1.0000
  H   H3198     1.0  0.67642  0.90092  0.01227  1.0000
  C   C1861     1.0  0.54860  0.96234  0.11347  1.0000
  C   C1862     1.0  0.64041  0.81310  0.01473  1.0000
  C   C1863     1.0  0.56036  0.98999  0.05615  1.0000
  H   H3199     1.0  0.50159  0.80439  0.12041  1.0000
  H   H3200     1.0  0.64931  0.81030  0.02683  1.0000
  C   C1864     1.0  0.68572  0.89738  0.02420  1.0000
  C   C1865     1.0  0.68405  0.91231  0.03634  1.0000
  C   C1866     1.0  0.69638  0.90782  0.05158  1.0000
  C   C1867     1.0  0.71003  0.88834  0.05489  1.0000
  H   H3201     1.0  0.67698  0.98119  0.11683  1.0000
  H   H3202     1.0  0.67360  0.92744  0.03360  1.0000
  H   H3203     1.0  0.72702  0.92871  0.10030  1.0000
  C   C1868     1.0  0.65827  0.85882  0.09573  1.0000
  H   H3204     1.0  0.65998  0.84385  0.02960  1.0000
  C   C1869     1.0  0.59374  0.91593  0.00768  1.0000
  H   H3205     1.0  0.49452  0.83085  0.00225  1.0000
  H   H3206     1.0  0.69385  0.95600  0.16297  1.0000
  H   H3207     1.0  0.51275  0.90002  0.10507  1.0000
  C   C1870     1.0  0.54992  0.89890  0.15818  1.0000
  H   H3208     1.0  0.54498  0.67303  0.33399  1.0000
  H   H3209     1.0  0.53443  0.89621  0.16741  1.0000
  N   N132      1.0  0.70562  0.92566  0.15435  1.0000
  H   H3210     1.0  0.69258  0.81120  0.05705  1.0000
  H   H3211     1.0  0.51397  0.75202  0.02840  1.0000
  H   H3212     1.0  0.55215  0.88654  0.00944  1.0000
  H   H3213     1.0  0.62379  0.80419  0.09056  1.0000
  C   C1871     1.0  0.55120  0.90273  0.01141  1.0000
  H   H3214     1.0  0.55798  0.95874  0.12581  1.0000
  H   H3215     1.0  0.50059  0.70305  0.14936  1.0000
  H   H3216     1.0  0.63267  0.85699  0.03145  1.0000
  C   C1872     1.0  0.54926  0.92107  0.14399  1.0000
  H   H3217     1.0  0.62723  0.85434  0.10096  1.0000
  H   H3218     1.0  0.68767  0.81830  0.08237  1.0000
  C   C1873     1.0  0.65893  0.98423  0.14769  1.0000
  N   N133      1.0  0.64354  0.84107  0.07358  1.0000
  H   H3219     1.0  0.50395  0.94939  0.12730  1.0000
  H   H3220     1.0  0.50711  0.92126  0.17096  1.0000
  C   C1874     1.0  0.49949  0.92862  0.15734  1.0000
  C   C1875     1.0  0.68275  0.82249  0.06697  1.0000
  H   H3221     1.0  0.59816  0.81950  0.09015  1.0000
  H   H3222     1.0  0.55815  0.93361  0.10150  1.0000
  C   C1876     1.0  0.51670  0.91481  0.10610  1.0000
  H   H3223     1.0  0.68657  0.83783  0.05834  1.0000
  H   H3224     1.0  0.50170  0.92553  0.11040  1.0000
  H   H3225     1.0  0.62464  0.89613  0.01062  1.0000
  H   H3226     1.0  0.65369  0.87551  0.08783  1.0000
  H   H3227     1.0  0.65255  0.92199  0.17021  1.0000
  H   H3228     1.0  0.64544  0.83065  0.10664  1.0000
  N   N134      1.0  0.49881  0.66044  0.36712  1.0000
  C   C1877     1.0  0.64721  0.86003  0.05643  1.0000
  H   H3229     1.0  0.53939  0.75664  0.02634  1.0000
  H   H3230     1.0  0.52506  0.92124  0.09015  1.0000
  C   C1878     1.0  0.52758  0.76918  0.99730  1.0000
  H   H3231     1.0  0.63398  0.96203  0.01091  1.0000
  H   H3232     1.0  0.53308  0.94833  0.09817  1.0000
  C   C1879     1.0  0.61407  0.82005  0.09163  1.0000
  H   H3233     1.0  0.65689  0.80814  0.08331  1.0000
  C   C1880     1.0  0.62236  0.83727  0.07360  1.0000
  H   H3234     1.0  0.51655  0.95349  0.14560  1.0000
  H   H3235     1.0  0.55803  0.96989  0.09873  1.0000
  H   H3236     1.0  0.61253  0.82335  0.10739  1.0000
  C   C1881     1.0  0.60989  0.81010  0.00381  1.0000
  C   C1882     1.0  0.66816  0.92021  0.17393  1.0000
  C   C1883     1.0  0.71663  0.92258  0.11511  1.0000
  H   H3237     1.0  0.53415  0.97414  0.11735  1.0000
  C   C1884     1.0  0.52411  0.76384  0.02156  1.0000
  N   N135      1.0  0.53388  0.92834  0.12927  1.0000
  C   C1885     1.0  0.54347  0.94250  0.10979  1.0000
  C   C1886     1.0  0.53048  0.90977  0.12263  1.0000
  C   C1887     1.0  0.71778  0.90395  0.16190  1.0000
  C   C1888     1.0  0.72682  0.98292  0.02130  1.0000
  H   H3238     1.0  0.73487  0.90356  0.15625  1.0000
  C   C1889     1.0  0.67624  0.98618  0.13118  1.0000
  H   H3239     1.0  0.69424  0.98348  0.01984  1.0000
  H   H3240     1.0  0.53888  0.67564  0.36083  1.0000
  H   H3241     1.0  0.70885  0.95817  0.02936  1.0000
  H   H3242     1.0  0.57867  0.99058  0.01402  1.0000
  C   C1890     1.0  0.56481  0.91493  0.99251  1.0000
  H   H3243     1.0  0.72762  0.89838  0.19205  1.0000
  H   H3244     1.0  0.61214  0.87966  0.99318  1.0000
  H   H3245     1.0  0.71635  0.87830  0.18934  1.0000
  H   H3246     1.0  0.49791  0.71571  0.12336  1.0000
  H   H3247     1.0  0.73320  0.93401  0.13178  1.0000
  H   H3248     1.0  0.62584  0.92108  0.99232  1.0000
  H   H3249     1.0  0.49486  0.92361  0.00113  1.0000
  H   H3250     1.0  0.72260  0.90540  0.11938  1.0000
  H   H3251     1.0  0.52995  0.98823  0.05238  1.0000
  H   H3252     1.0  0.49407  0.91679  0.15217  1.0000
  H   H3253     1.0  0.72239  0.98457  0.03805  1.0000
  H   H3254     1.0  0.54127  0.77709  0.99156  1.0000
  H   H3255     1.0  0.49525  0.74743  0.13021  1.0000
  H   H3256     1.0  0.68246  0.95791  0.99160  1.0000
  H   H3257     1.0  0.74175  0.97109  0.02032  1.0000
  H   H3258     1.0  0.53296  0.75367  0.99241  1.0000
  H   H3259     1.0  0.66240  0.82892  0.99072  1.0000
  H   H3260     1.0  0.58189  0.98177  0.99039  1.0000
  N   N136      1.0  0.58817  0.90806  0.99103  1.0000
  H   H3261     1.0  0.66621  0.75055  0.63148  1.0000
  C   C1891     1.0  0.54882  0.95906  0.74940  1.0000
  H   H3262     1.0  0.50131  0.89136  0.98094  1.0000
  H   H3263     1.0  0.55375  0.70296  0.56667  1.0000
  H   H3264     1.0  0.51254  0.71950  0.55235  1.0000
  H   H3265     1.0  0.69896  0.82026  0.89466  1.0000
  H   H3266     1.0  0.61649  0.89661  0.86239  1.0000
  H   H3267     1.0  0.73389  0.67858  0.65651  1.0000
  H   H3268     1.0  0.58659  0.74830  0.55860  1.0000
  H   H3269     1.0  0.51133  0.87897  0.79716  1.0000
  S   S536      1.0  0.60646  0.70815  0.73142  1.0000
  Fe  Fe269     1.0  0.62155  0.70561  0.58633  1.0000
  S   S537      1.0  0.64017  0.67664  0.60346  1.0000
  S   S538      1.0  0.61201  0.70349  0.55699  1.0000
  Fe  Fe270     1.0  0.62216  0.73285  0.61699  1.0000
  S   S539      1.0  0.64033  0.70560  0.63606  1.0000
  S   S540      1.0  0.61480  0.76477  0.62619  1.0000
  Fe  Fe271     1.0  0.65975  0.69843  0.60545  1.0000
  S   S541      1.0  0.69468  0.68956  0.60399  1.0000
  Fe  Fe272     1.0  0.61885  0.68698  0.63200  1.0000
  H   H3270     1.0  0.51221  0.76127  0.96645  1.0000
  S   S542      1.0  0.64280  0.72694  0.58609  1.0000
  S   S543      1.0  0.59887  0.71473  0.61501  1.0000
  Fe  Fe273     1.0  0.54060  0.81269  0.87004  1.0000
  S   S544      1.0  0.54867  0.83859  0.88027  1.0000
  H   H3271     1.0  0.57630  0.96330  0.78879  1.0000
  Fe  Fe274     1.0  0.58529  0.79795  0.84857  1.0000
  S   S545      1.0  0.59680  0.82222  0.85782  1.0000
  S   S546      1.0  0.60916  0.77944  0.82661  1.0000
  Fe  Fe275     1.0  0.57595  0.81387  0.88918  1.0000
  S   S547      1.0  0.58705  0.80728  0.91967  1.0000
  Fe  Fe276     1.0  0.56831  0.84413  0.84798  1.0000
  S   S548      1.0  0.56989  0.87684  0.82934  1.0000
  S   S549      1.0  0.56685  0.78748  0.88084  1.0000
  S   S550      1.0  0.55800  0.82038  0.83684  1.0000
  Fe  Fe277     1.0  0.66309  0.80474  0.69677  1.0000
  S   S551      1.0  0.65008  0.83751  0.68098  1.0000
  S   S552      1.0  0.64759  0.77689  0.70301  1.0000
  Fe  Fe278     1.0  0.70396  0.81654  0.69759  1.0000
  S   S553      1.0  0.69393  0.85001  0.68185  1.0000
  H   H3272     1.0  0.52891  0.75738  0.55400  1.0000
  Fe  Fe279     1.0  0.66310  0.84791  0.70373  1.0000
  S   S554      1.0  0.64626  0.87569  0.71904  1.0000
  Fe  Fe280     1.0  0.68235  0.83609  0.66096  1.0000
  S   S555      1.0  0.69039  0.84486  0.62567  1.0000
  S   S556      1.0  0.67378  0.81510  0.72122  1.0000
  S   S557      1.0  0.69443  0.80259  0.67535  1.0000
  H   H3273     1.0  0.69526  0.73913  0.93542  1.0000
  C   C1892     1.0  0.71663  0.83857  0.90270  1.0000
  H   H3274     1.0  0.64312  0.82386  0.60397  1.0000
  H   H3275     1.0  0.65830  0.75316  0.60702  1.0000
  H   H3276     1.0  0.67607  0.67926  0.64733  1.0000
  H   H3277     1.0  0.55309  0.90410  0.89344  1.0000
  H   H3278     1.0  0.67612  0.70506  0.69786  1.0000
  C   C1893     1.0  0.50144  0.75492  0.57834  1.0000
  C   C1894     1.0  0.55123  0.95022  0.84255  1.0000
  H   H3279     1.0  0.49385  0.77039  0.56996  1.0000
  H   H3280     1.0  0.54800  0.93534  0.85217  1.0000
  H   H3281     1.0  0.52100  0.96026  0.83400  1.0000
  C   C1895     1.0  0.65515  0.87979  0.73997  1.0000
  C   C1896     1.0  0.66599  0.86309  0.75291  1.0000
  C   C1897     1.0  0.67178  0.86665  0.77026  1.0000
  S   S558      1.0  0.65907  0.87983  0.97793  1.0000
  C   C1898     1.0  0.65605  0.90358  0.76176  1.0000
  C   C1899     1.0  0.65008  0.89999  0.74453  1.0000
  H   H3282     1.0  0.66966  0.84740  0.74972  1.0000
  C   C1900     1.0  0.50510  0.87633  0.86709  1.0000
  H   H3283     1.0  0.64177  0.91295  0.73450  1.0000
  C   C1901     1.0  0.71705  0.83447  0.61765  1.0000
  H   H3284     1.0  0.72071  0.73410  0.71469  1.0000
  S   S559      1.0  0.69990  0.84480  0.96171  1.0000
  H   H3285     1.0  0.61369  0.98011  0.73827  1.0000
  H   H3286     1.0  0.72823  0.69863  0.78326  1.0000
  S   S560      1.0  0.63478  0.69418  0.77649  1.0000
  H   H3287     1.0  0.70415  0.75008  0.60609  1.0000
  H   H3288     1.0  0.68564  0.71908  0.56603  1.0000
  H   H3289     1.0  0.63470  0.77829  0.96920  1.0000
  H   H3290     1.0  0.51112  0.70595  0.57959  1.0000
  C   C1902     1.0  0.54797  0.88932  0.81798  1.0000
  C   C1903     1.0  0.54177  0.91125  0.81474  1.0000
  C   C1904     1.0  0.52435  0.92152  0.80564  1.0000
  H   H3291     1.0  0.66244  0.79277  0.96154  1.0000
  C   C1905     1.0  0.51986  0.88801  0.80200  1.0000
  C   C1906     1.0  0.53690  0.87770  0.81168  1.0000
  H   H3292     1.0  0.55028  0.92031  0.81956  1.0000
  Fe  Fe281     1.0  0.69216  0.86849  0.98235  1.0000
  C   C1907     1.0  0.61123  0.90453  0.90443  1.0000
  H   H3293     1.0  0.54146  0.86080  0.81413  1.0000
  C   C1908     1.0  0.57055  0.81897  0.94027  1.0000
  C   C1909     1.0  0.57532  0.81229  0.96034  1.0000
  N   N137      1.0  0.59703  0.88013  0.88874  1.0000
  C   C1910     1.0  0.53596  0.96429  0.83219  1.0000
  C   C1911     1.0  0.70170  0.67860  0.67284  1.0000
  C   C1912     1.0  0.55333  0.83528  0.93691  1.0000
  H   H3294     1.0  0.58834  0.79949  0.96323  1.0000
  C   C1913     1.0  0.57517  0.75464  0.79133  1.0000
  C   C1914     1.0  0.59751  0.85905  0.90358  1.0000
  H   H3295     1.0  0.54921  0.84027  0.92165  1.0000
  C   C1915     1.0  0.49504  0.82850  0.93158  1.0000
  H   H3296     1.0  0.57947  0.74608  0.74165  1.0000
  H   H3297     1.0  0.70165  0.79358  0.57492  1.0000
  C   C1916     1.0  0.70810  0.70838  0.58621  1.0000
  C   C1917     1.0  0.69973  0.72140  0.56920  1.0000
  H   H3298     1.0  0.67753  0.73113  0.61561  1.0000
  C   C1918     1.0  0.72000  0.73257  0.77215  1.0000
  C   C1919     1.0  0.72688  0.71100  0.58961  1.0000
  C   C1920     1.0  0.66690  0.88691  0.77469  1.0000
  H   H3299     1.0  0.55379  0.87626  0.90372  1.0000
  H   H3300     1.0  0.49625  0.75494  0.59542  1.0000
  C   C1921     1.0  0.62339  0.76778  0.64808  1.0000
  C   C1922     1.0  0.62955  0.75054  0.66364  1.0000
  C   C1923     1.0  0.63664  0.75349  0.68056  1.0000
  C   C1924     1.0  0.63827  0.77362  0.68177  1.0000
  C   C1925     1.0  0.63216  0.79085  0.66621  1.0000
  C   C1926     1.0  0.62440  0.78798  0.64970  1.0000
  H   H3301     1.0  0.62844  0.73498  0.66293  1.0000
  H   H3302     1.0  0.64088  0.74011  0.69274  1.0000
  H   H3303     1.0  0.63308  0.80648  0.66704  1.0000
  H   H3304     1.0  0.61943  0.80147  0.63794  1.0000
  C   C1927     1.0  0.60259  0.71217  0.83137  1.0000
  C   C1928     1.0  0.58733  0.72510  0.84354  1.0000
  C   C1929     1.0  0.58926  0.74580  0.84243  1.0000
  C   C1930     1.0  0.60658  0.75346  0.82929  1.0000
  C   C1931     1.0  0.62202  0.74038  0.81755  1.0000
  C   C1932     1.0  0.62002  0.71982  0.81865  1.0000
  H   H3305     1.0  0.57386  0.71923  0.85358  1.0000
  H   H3306     1.0  0.57725  0.75585  0.85155  1.0000
  H   H3307     1.0  0.63554  0.74617  0.80753  1.0000
  H   H3308     1.0  0.63235  0.70972  0.81014  1.0000
  C   C1933     1.0  0.60291  0.69631  0.71260  1.0000
  C   C1934     1.0  0.59957  0.70849  0.69308  1.0000
  C   C1935     1.0  0.59915  0.69871  0.67712  1.0000
  H   H3309     1.0  0.69573  0.86532  0.83175  1.0000
  H   H3310     1.0  0.57205  0.78739  0.77239  1.0000
  C   C1936     1.0  0.56021  0.73482  0.57796  1.0000
  H   H3311     1.0  0.59795  0.72541  0.69009  1.0000
  H   H3312     1.0  0.59711  0.70817  0.66185  1.0000
  C   C1937     1.0  0.72591  0.83454  0.59640  1.0000
  C   C1938     1.0  0.52539  0.75262  0.57149  1.0000
  H   H3313     1.0  0.60265  0.87129  0.96623  1.0000
  H   H3314     1.0  0.74003  0.88060  0.84630  1.0000
  H   H3315     1.0  0.64991  0.97939  0.92877  1.0000
  C   C1939     1.0  0.59652  0.68504  0.55913  1.0000
  H   H3316     1.0  0.71503  0.84334  0.75675  1.0000
  C   C1940     1.0  0.71429  0.82341  0.89293  1.0000
  H   H3317     1.0  0.69906  0.68839  0.83279  1.0000
  H   H3318     1.0  0.50883  0.85905  0.86797  1.0000
  S   S561      1.0  0.73868  0.86353  0.91118  1.0000
  C   C1941     1.0  0.65732  0.69458  0.85587  1.0000
  C   C1942     1.0  0.70269  0.75270  0.92683  1.0000
  H   H3319     1.0  0.63077  0.87819  0.88036  1.0000
  H   H3320     1.0  0.70078  0.80925  0.59303  1.0000
  C   C1943     1.0  0.67174  0.74823  0.61509  1.0000
  H   H3321     1.0  0.56604  0.74911  0.80720  1.0000
  H   H3322     1.0  0.65113  0.70039  0.71219  1.0000
  H   H3323     1.0  0.57907  0.94881  0.96423  1.0000
  H   H3324     1.0  0.62750  0.95392  0.73456  1.0000
  H   H3325     1.0  0.51981  0.75555  0.76192  1.0000
  H   H3326     1.0  0.53454  0.77771  0.93556  1.0000
  C   C1944     1.0  0.68255  0.97935  0.88148  1.0000
  C   C1945     1.0  0.70171  0.76266  0.64048  1.0000
  C   C1946     1.0  0.67869  0.69694  0.81028  1.0000
  C   C1947     1.0  0.54696  0.83916  0.97323  1.0000
  H   H3327     1.0  0.57471  0.77149  0.74656  1.0000
  C   C1948     1.0  0.57377  0.72344  0.77955  1.0000
  N   N138      1.0  0.66870  0.78051  0.93320  1.0000
  H   H3328     1.0  0.61577  0.93760  0.76704  1.0000
  H   H3329     1.0  0.70283  0.74777  0.54321  1.0000
  C   C1949     1.0  0.58346  0.96872  0.77208  1.0000
  H   H3330     1.0  0.71022  0.84264  0.84601  1.0000
  H   H3331     1.0  0.66445  0.79457  0.58592  1.0000
  H   H3332     1.0  0.61181  0.86750  0.84794  1.0000
  H   H3333     1.0  0.66909  0.82771  0.59289  1.0000
  C   C1950     1.0  0.72586  0.78292  0.59303  1.0000
  S   S562      1.0  0.63091  0.94190  0.80169  1.0000
  H   H3334     1.0  0.71071  0.96681  0.91755  1.0000
  N   N139      1.0  0.58524  0.95230  0.75960  1.0000
  C   C1951     1.0  0.60092  0.93316  0.76725  1.0000
  H   H3335     1.0  0.70866  0.91899  0.89043  1.0000
  C   C1952     1.0  0.56449  0.94575  0.76328  1.0000
  H   H3336     1.0  0.57521  0.88202  0.97346  1.0000
  C   C1953     1.0  0.59413  0.92053  0.78966  1.0000
  H   H3337     1.0  0.55971  0.74358  0.59025  1.0000
  S   S563      1.0  0.73837  0.76279  0.54482  1.0000
  H   H3338     1.0  0.73944  0.97100  0.93524  1.0000
  H   H3339     1.0  0.60519  0.92184  0.75651  1.0000
  H   H3340     1.0  0.64642  0.66049  0.66964  1.0000
  C   C1954     1.0  0.72015  0.83854  0.74133  1.0000
  C   C1955     1.0  0.57694  0.66993  0.54254  1.0000
  H   H3341     1.0  0.56689  0.92947  0.76070  1.0000
  H   H3342     1.0  0.70295  0.73712  0.73858  1.0000
  C   C1956     1.0  0.65780  0.66358  0.84257  1.0000
  H   H3343     1.0  0.73690  0.83775  0.66904  1.0000
  H   H3344     1.0  0.58900  0.93037  0.80177  1.0000
  H   H3345     1.0  0.58164  0.91221  0.79036  1.0000
  H   H3346     1.0  0.60765  0.90820  0.79409  1.0000
  N   N140      1.0  0.73839  0.94313  0.90991  1.0000
  H   H3347     1.0  0.72576  0.82864  0.81284  1.0000
  C   C1957     1.0  0.70560  0.77824  0.77883  1.0000
  C   C1958     1.0  0.50553  0.82011  0.91382  1.0000
  H   H3348     1.0  0.59516  0.94677  0.72785  1.0000
  N   N141      1.0  0.50928  0.78217  0.98749  1.0000
  C   C1959     1.0  0.54167  0.70009  0.61028  1.0000
  H   H3349     1.0  0.50021  0.78770  0.95731  1.0000
  H   H3350     1.0  0.62305  0.78503  0.94614  1.0000
  C   C1960     1.0  0.72768  0.89121  0.70316  1.0000
  C   C1961     1.0  0.52998  0.72218  0.60121  1.0000
  C   C1962     1.0  0.66858  0.71055  0.85921  1.0000
  C   C1963     1.0  0.67587  0.78464  0.95110  1.0000
  H   H3351     1.0  0.61240  0.73650  0.75771  1.0000
  H   H3352     1.0  0.56230  0.76302  0.55215  1.0000
  C   C1964     1.0  0.57195  0.77873  0.78878  1.0000
  H   H3353     1.0  0.52857  0.85834  0.95060  1.0000
  C   C1965     1.0  0.67058  0.94730  0.96988  1.0000
  N   N142      1.0  0.60142  0.84792  0.76980  1.0000
  C   C1966     1.0  0.61020  0.86024  0.78037  1.0000
  C   C1967     1.0  0.59311  0.86300  0.75147  1.0000
  C   C1968     1.0  0.61925  0.83145  0.76153  1.0000
  C   C1969     1.0  0.58479  0.83778  0.78586  1.0000
  C   C1970     1.0  0.62187  0.84723  0.79804  1.0000
  C   C1971     1.0  0.57771  0.88314  0.75676  1.0000
  C   C1972     1.0  0.61407  0.81762  0.74912  1.0000
  C   C1973     1.0  0.56658  0.83445  0.77773  1.0000
  H   H3354     1.0  0.62102  0.86957  0.76863  1.0000
  H   H3355     1.0  0.59754  0.87197  0.78774  1.0000
  H   H3356     1.0  0.58528  0.85538  0.74360  1.0000
  H   H3357     1.0  0.60619  0.86818  0.73895  1.0000
  H   H3358     1.0  0.63223  0.83900  0.75118  1.0000
  H   H3359     1.0  0.62599  0.82017  0.77461  1.0000
  H   H3360     1.0  0.59190  0.82220  0.79460  1.0000
  H   H3361     1.0  0.57725  0.84725  0.79821  1.0000
  H   H3362     1.0  0.61282  0.83602  0.80949  1.0000
  H   H3363     1.0  0.63758  0.83866  0.79154  1.0000
  H   H3364     1.0  0.62440  0.85810  0.80683  1.0000
  H   H3365     1.0  0.58643  0.89468  0.75785  1.0000
  H   H3366     1.0  0.56887  0.89059  0.74393  1.0000
  H   H3367     1.0  0.56630  0.88000  0.77170  1.0000
  H   H3368     1.0  0.60724  0.82687  0.73537  1.0000
  H   H3369     1.0  0.60396  0.80685  0.75953  1.0000
  H   H3370     1.0  0.62880  0.80735  0.74275  1.0000
  H   H3371     1.0  0.55595  0.84955  0.77290  1.0000
  H   H3372     1.0  0.55695  0.82490  0.79072  1.0000
  H   H3373     1.0  0.57189  0.82603  0.76455  1.0000
  H   H3374     1.0  0.66236  0.75057  0.95216  1.0000
  H   H3375     1.0  0.58351  0.91236  0.89246  1.0000
  H   H3376     1.0  0.72957  0.78587  0.60711  1.0000
  H   H3377     1.0  0.63012  0.85166  0.90814  1.0000
  C   C1974     1.0  0.55937  0.98877  0.81797  1.0000
  H   H3378     1.0  0.65079  0.67424  0.69445  1.0000
  H   H3379     1.0  0.69680  0.69557  0.66568  1.0000
  C   C1975     1.0  0.52154  0.70874  0.56402  1.0000
  H   H3380     1.0  0.73460  0.91413  0.79470  1.0000
  H   H3381     1.0  0.64659  0.70329  0.84502  1.0000
  H   H3382     1.0  0.57214  0.71713  0.76632  1.0000
  H   H3383     1.0  0.56565  0.69534  0.80158  1.0000
  C   C1976     1.0  0.70693  0.97803  0.84834  1.0000
  Fe  Fe282     1.0  0.65914  0.66490  0.77470  1.0000
  H   H3384     1.0  0.69608  0.76798  0.75548  1.0000
  H   H3385     1.0  0.55796  0.69992  0.61097  1.0000
  S   S564      1.0  0.72762  0.79300  0.86974  1.0000
  H   H3386     1.0  0.71988  0.73344  0.78853  1.0000
  H   H3387     1.0  0.66890  0.68992  0.80402  1.0000
  C   C1977     1.0  0.51281  0.77794  0.96564  1.0000
  H   H3388     1.0  0.60552  0.91549  0.91553  1.0000
  H   H3389     1.0  0.73012  0.76597  0.59268  1.0000
  H   H3390     1.0  0.61081  0.86293  0.92874  1.0000
  C   C1978     1.0  0.61753  0.82005  0.98327  1.0000
  C   C1979     1.0  0.57109  0.74680  0.55683  1.0000
  H   H3391     1.0  0.69298  0.67062  0.86868  1.0000
  H   H3392     1.0  0.60868  0.82278  0.97111  1.0000
  C   C1980     1.0  0.67560  0.96255  0.97774  1.0000
  H   H3393     1.0  0.52667  0.69302  0.55963  1.0000
  Fe  Fe283     1.0  0.61646  0.67406  0.80279  1.0000
  C   C1981     1.0  0.71093  0.77050  0.75797  1.0000
  H   H3394     1.0  0.68134  0.76611  0.90591  1.0000
  C   C1982     1.0  0.71946  0.85740  0.72246  1.0000
  H   H3395     1.0  0.50391  0.83261  0.94079  1.0000
  H   H3396     1.0  0.54414  0.75329  0.74354  1.0000
  H   H3397     1.0  0.61632  0.91067  0.96696  1.0000
  H   H3398     1.0  0.54622  0.88872  0.87917  1.0000
  H   H3399     1.0  0.58087  0.86921  0.87061  1.0000
  C   C1983     1.0  0.72942  0.82537  0.63273  1.0000
  C   C1984     1.0  0.56045  0.71266  0.79980  1.0000
  C   C1985     1.0  0.72856  0.93804  0.89441  1.0000
  H   H3400     1.0  0.66984  0.71223  0.81421  1.0000
  H   H3401     1.0  0.73615  0.79072  0.57915  1.0000
  C   C1986     1.0  0.53672  0.74829  0.76024  1.0000
  C   C1987     1.0  0.65972  0.81742  0.60528  1.0000
  S   S565      1.0  0.67821  0.88296  0.92709  1.0000
  H   H3402     1.0  0.68005  0.85366  0.78031  1.0000
  C   C1988     1.0  0.71198  0.84178  0.81376  1.0000
  H   H3403     1.0  0.64813  0.67417  0.83135  1.0000
  C   C1989     1.0  0.59331  0.95959  0.73642  1.0000
  C   C1990     1.0  0.61396  0.85245  0.91745  1.0000
  H   H3404     1.0  0.71507  0.74744  0.91371  1.0000
  H   H3405     1.0  0.61295  0.83645  0.92707  1.0000
  C   C1991     1.0  0.72127  0.67034  0.65720  1.0000
  C   C1992     1.0  0.68734  0.78173  0.62928  1.0000
  H   H3406     1.0  0.55622  0.94524  0.77998  1.0000
  C   C1993     1.0  0.66115  0.95347  0.95231  1.0000
  H   H3407     1.0  0.51955  0.93845  0.80341  1.0000
  H   H3408     1.0  0.72008  0.90804  0.91286  1.0000
  C   C1994     1.0  0.63318  0.77259  0.95562  1.0000
  S   S566      1.0  0.65162  0.91839  0.84283  1.0000
  N   N143      1.0  0.53869  0.73141  0.57865  1.0000
  C   C1995     1.0  0.54169  0.84556  0.95331  1.0000
  H   H3409     1.0  0.52966  0.73289  0.61165  1.0000
  H   H3410     1.0  0.73240  0.90006  0.66903  1.0000
  N   N144      1.0  0.67122  0.67545  0.84820  1.0000
  H   H3411     1.0  0.63107  0.66513  0.86955  1.0000
  H   H3412     1.0  0.57233  0.66886  0.52856  1.0000
  H   H3413     1.0  0.73454  0.94704  0.95390  1.0000
  H   H3414     1.0  0.70032  0.79599  0.95834  1.0000
  H   H3415     1.0  0.70272  0.86499  0.72260  1.0000
  C   C1996     1.0  0.71304  0.92307  0.90357  1.0000
  H   H3416     1.0  0.59282  0.67481  0.59275  1.0000
  H   H3417     1.0  0.71344  0.97114  0.83456  1.0000
  C   C1997     1.0  0.65733  0.97460  0.94227  1.0000
  H   H3418     1.0  0.55693  0.78486  0.79879  1.0000
  H   H3419     1.0  0.53359  0.69491  0.62673  1.0000
  H   H3420     1.0  0.65143  0.75882  0.92933  1.0000
  H   H3421     1.0  0.55431  0.95691  0.73288  1.0000
  H   H3422     1.0  0.71823  0.67413  0.64098  1.0000
  H   H3423     1.0  0.68518  0.81555  0.94101  1.0000
  S   S567      1.0  0.50740  0.80844  0.87714  1.0000
  H   H3424     1.0  0.53794  0.73099  0.76397  1.0000
  H   H3425     1.0  0.58195  0.89366  0.91637  1.0000
  S   S568      1.0  0.64474  0.84095  0.95332  1.0000
  H   H3426     1.0  0.67336  0.93095  0.97780  1.0000
  H   H3427     1.0  0.61928  0.91341  0.88953  1.0000
  C   C1998     1.0  0.57082  0.95514  0.84009  1.0000
  H   H3428     1.0  0.60812  0.76401  0.75885  1.0000
  H   H3429     1.0  0.69209  0.79623  0.63013  1.0000
  H   H3430     1.0  0.51970  0.88263  0.86098  1.0000
  C   C1999     1.0  0.66557  0.79439  0.60229  1.0000
  H   H3431     1.0  0.71082  0.89291  0.80954  1.0000
  C   C2000     1.0  0.71109  0.85415  0.83068  1.0000
  C   C2001     1.0  0.73297  0.74748  0.73449  1.0000
  C   C2002     1.0  0.73258  0.71054  0.76895  1.0000
  C   C2003     1.0  0.69239  0.79863  0.94496  1.0000
  C   C2004     1.0  0.59087  0.68303  0.54104  1.0000
  S   S569      1.0  0.67548  0.89102  0.79581  1.0000
  H   H3432     1.0  0.72894  0.70615  0.75557  1.0000
  C   C2005     1.0  0.57493  0.97439  0.82767  1.0000
  C   C2006     1.0  0.72096  0.95303  0.92571  1.0000
  H   H3433     1.0  0.71168  0.85207  0.79801  1.0000
  C   C2007     1.0  0.58856  0.67341  0.57872  1.0000
  C   C2008     1.0  0.58938  0.87351  0.97971  1.0000
  C   C2009     1.0  0.73667  0.72730  0.57665  1.0000
  H   H3434     1.0  0.68998  0.76126  0.58576  1.0000
  H   H3435     1.0  0.65271  0.78685  0.61264  1.0000
  C   C2010     1.0  0.61435  0.96697  0.73068  1.0000
  N   N145      1.0  0.68339  0.66770  0.67815  1.0000
  H   H3436     1.0  0.62562  0.84827  0.86698  1.0000
  C   C2011     1.0  0.59581  0.94130  0.96345  1.0000
  S   S570      1.0  0.59970  0.68660  0.83208  1.0000
  H   H3437     1.0  0.70538  0.90428  0.84023  1.0000
  H   H3438     1.0  0.54645  0.72452  0.54738  1.0000
  H   H3439     1.0  0.70314  0.84673  0.91212  1.0000
  H   H3440     1.0  0.59400  0.91204  0.95715  1.0000
  H   H3441     1.0  0.58231  0.85867  0.91469  1.0000
  H   H3442     1.0  0.61281  0.98777  0.96309  1.0000
  Fe  Fe284     1.0  0.67210  0.90309  0.95076  1.0000
  H   H3443     1.0  0.60258  0.94769  0.97338  1.0000
  H   H3444     1.0  0.65263  0.91930  0.76482  1.0000
  S   S571      1.0  0.58994  0.93714  0.85269  1.0000
  C   C2012     1.0  0.57975  0.88342  0.87686  1.0000
  H   H3445     1.0  0.74272  0.97552  0.89813  1.0000
  H   H3446     1.0  0.70338  0.73297  0.77225  1.0000
  C   C2013     1.0  0.63620  0.82723  0.97864  1.0000
  C   C2014     1.0  0.49430  0.81580  0.90107  1.0000
  C   C2015     1.0  0.65458  0.76476  0.94208  1.0000
  C   C2016     1.0  0.72675  0.87342  0.84681  1.0000
  C   C2017     1.0  0.60182  0.67679  0.68080  1.0000
  H   H3447     1.0  0.49936  0.87931  0.88323  1.0000
  H   H3448     1.0  0.63931  0.81558  0.89764  1.0000
  H   H3449     1.0  0.71645  0.84175  0.58460  1.0000
  H   H3450     1.0  0.59696  0.69197  0.52584  1.0000
  S   S572      1.0  0.73555  0.80497  0.70668  1.0000
  H   H3451     1.0  0.64428  0.80857  0.93352  1.0000
  C   C2018     1.0  0.58113  0.75478  0.75307  1.0000
  H   H3452     1.0  0.65658  0.72384  0.86466  1.0000
  C   C2019     1.0  0.61724  0.88071  0.87277  1.0000
  H   H3453     1.0  0.53668  0.75201  0.79146  1.0000
  H   H3454     1.0  0.52920  0.76506  0.57743  1.0000
  C   C2020     1.0  0.72693  0.88323  0.80818  1.0000
  C   C2021     1.0  0.53999  0.98363  0.81992  1.0000
  C   C2022     1.0  0.70674  0.88976  0.85263  1.0000
  H   H3455     1.0  0.72657  0.87455  0.67900  1.0000
  C   C2023     1.0  0.62330  0.86477  0.85813  1.0000
  C   C2024     1.0  0.54603  0.75574  0.77524  1.0000
  C   C2025     1.0  0.72789  0.74082  0.56004  1.0000
  S   S573      1.0  0.68303  0.94770  0.86201  1.0000
  Fe  Fe285     1.0  0.62238  0.94126  0.83614  1.0000
  H   H3456     1.0  0.58209  0.97279  0.72909  1.0000
  H   H3457     1.0  0.53433  0.79899  0.94694  1.0000
  H   H3458     1.0  0.58995  0.97840  0.82582  1.0000
  C   C2026     1.0  0.50814  0.80533  0.98542  1.0000
  C   C2027     1.0  0.60481  0.75269  0.75118  1.0000
  Fe  Fe286     1.0  0.70975  0.87098  0.93570  1.0000
  H   H3459     1.0  0.52235  0.81684  0.91013  1.0000
  Fe  Fe287     1.0  0.66129  0.92130  0.80782  1.0000
  H   H3460     1.0  0.69195  0.70024  0.79719  1.0000
  C   C2028     1.0  0.69027  0.97084  0.86325  1.0000
  C   C2029     1.0  0.72887  0.90281  0.74203  1.0000
  C   C2030     1.0  0.60455  0.67453  0.71665  1.0000
  H   H3461     1.0  0.56253  0.71650  0.81417  1.0000
  H   H3462     1.0  0.63844  0.86691  0.84735  1.0000
  C   C2031     1.0  0.67193  0.98373  0.96749  1.0000
  C   C2032     1.0  0.70300  0.79274  0.59139  1.0000
  Fe  Fe288     1.0  0.66524  0.94708  0.83787  1.0000
  H   H3463     1.0  0.72014  0.95277  0.88581  1.0000
  H   H3464     1.0  0.54754  0.77259  0.95700  1.0000
  H   H3465     1.0  0.66071  0.79521  0.89044  1.0000
  C   C2033     1.0  0.64819  0.79977  0.90372  1.0000
  H   H3466     1.0  0.66770  0.81264  0.91590  1.0000
  C   C2034     1.0  0.68233  0.66209  0.86545  1.0000
  C   C2035     1.0  0.51324  0.90988  0.79943  1.0000
  H   H3467     1.0  0.66107  0.81871  0.62104  1.0000
  S   S574      1.0  0.70475  0.89376  0.95698  1.0000
  H   H3468     1.0  0.63705  0.78895  0.90854  1.0000
  C   C2036     1.0  0.65727  0.80106  0.92223  1.0000
  N   N146      1.0  0.68654  0.78199  0.60688  1.0000
  C   C2037     1.0  0.68919  0.76030  0.60275  1.0000
  H   H3469     1.0  0.69556  0.74803  0.64392  1.0000
  C   C2038     1.0  0.73158  0.81244  0.88085  1.0000
  H   H3470     1.0  0.71427  0.96985  0.95123  1.0000
  H   H3471     1.0  0.69571  0.78384  0.90779  1.0000
  S   S575      1.0  0.65274  0.93528  0.94349  1.0000
  H   H3472     1.0  0.67807  0.70360  0.87152  1.0000
  H   H3473     1.0  0.67385  0.68096  0.71717  1.0000
  H   H3474     1.0  0.64682  0.68990  0.87118  1.0000
  H   H3475     1.0  0.70126  0.76585  0.79263  1.0000
  H   H3476     1.0  0.70699  0.67830  0.68740  1.0000
  H   H3477     1.0  0.53382  0.95344  0.75530  1.0000
  H   H3478     1.0  0.59037  0.71732  0.78103  1.0000
  H   H3479     1.0  0.57425  0.73807  0.54399  1.0000
  H   H3480     1.0  0.67847  0.71749  0.84449  1.0000
  H   H3481     1.0  0.71866  0.78426  0.78096  1.0000
  H   H3482     1.0  0.59971  0.84633  0.89487  1.0000
  H   H3483     1.0  0.73158  0.86969  0.75476  1.0000
  C   C2039     1.0  0.66677  0.69258  0.70463  1.0000
  C   C2040     1.0  0.73625  0.84343  0.89995  1.0000
  H   H3484     1.0  0.52348  0.80953  0.97738  1.0000
  C   C2041     1.0  0.56350  0.82230  0.97675  1.0000
  C   C2042     1.0  0.66418  0.68240  0.68739  1.0000
  C   C2043     1.0  0.68690  0.77156  0.91752  1.0000
  H   H3485     1.0  0.54530  0.97598  0.74976  1.0000
  H   H3486     1.0  0.68162  0.76981  0.96183  1.0000
  H   H3487     1.0  0.71799  0.75988  0.63164  1.0000
  H   H3488     1.0  0.67152  0.78218  0.63956  1.0000
  C   C2044     1.0  0.70963  0.73751  0.55612  1.0000
  S   S576      1.0  0.63496  0.96952  0.83450  1.0000
  H   H3489     1.0  0.56015  0.91414  0.97799  1.0000
  H   H3490     1.0  0.70217  0.76557  0.65591  1.0000
  H   H3491     1.0  0.73594  0.82830  0.74035  1.0000
  N   N147      1.0  0.56900  0.74720  0.77478  1.0000
  H   H3492     1.0  0.54362  0.71623  0.79922  1.0000
  H   H3493     1.0  0.61232  0.75627  0.73425  1.0000
  C   C2045     1.0  0.53358  0.78210  0.95075  1.0000
  H   H3494     1.0  0.59163  0.74740  0.79276  1.0000
  H   H3495     1.0  0.70741  0.88278  0.74715  1.0000
  H   H3496     1.0  0.65861  0.69569  0.67494  1.0000
  H   H3497     1.0  0.58492  0.78250  0.79368  1.0000
  Fe  Fe289     1.0  0.62023  0.68325  0.75598  1.0000
  S   S577      1.0  0.67741  0.94826  0.80319  1.0000
  S   S578      1.0  0.49407  0.98203  0.77367  1.0000
  H   H3498     1.0  0.71071  0.75697  0.93725  1.0000
  C   C2046     1.0  0.54103  0.71685  0.56398  1.0000
  H   H3499     1.0  0.74050  0.93093  0.88209  1.0000
  H   H3500     1.0  0.58125  0.89643  0.86279  1.0000
  Fe  Fe290     1.0  0.64573  0.96872  0.80016  1.0000
  Fe  Fe291     1.0  0.66795  0.85872  0.95485  1.0000
  H   H3501     1.0  0.57117  0.71957  0.58158  1.0000
  H   H3502     1.0  0.72730  0.85997  0.86041  1.0000
  C   C2047     1.0  0.55707  0.88835  0.88934  1.0000
  C   C2048     1.0  0.72804  0.96054  0.94232  1.0000
  C   C2049     1.0  0.59236  0.89764  0.90079  1.0000
  H   H3503     1.0  0.62284  0.89135  0.91111  1.0000
  C   C2050     1.0  0.59915  0.91706  0.96932  1.0000
  S   S579      1.0  0.74075  0.77950  0.81654  1.0000
  H   H3504     1.0  0.69792  0.83460  0.81812  1.0000
  H   H3505     1.0  0.71055  0.89785  0.70513  1.0000
  N   N148      1.0  0.72780  0.75099  0.75669  1.0000
  H   H3506     1.0  0.71247  0.67206  0.56396  1.0000
  H   H3507     1.0  0.72484  0.85038  0.70823  1.0000
  H   H3508     1.0  0.69197  0.79161  0.77848  1.0000
  H   H3509     1.0  0.70515  0.79465  0.93172  1.0000
  H   H3510     1.0  0.54281  0.77326  0.77097  1.0000
  H   H3511     1.0  0.49550  0.74272  0.57449  1.0000
  H   H3512     1.0  0.70643  0.76008  0.71831  1.0000
  C   C2051     1.0  0.73530  0.88554  0.68120  1.0000
  C   C2052     1.0  0.68736  0.68157  0.82894  1.0000
  N   N149      1.0  0.72882  0.86553  0.82706  1.0000
  H   H3513     1.0  0.69240  0.88319  0.85640  1.0000
  H   H3514     1.0  0.62480  0.75931  0.96213  1.0000
  H   H3515     1.0  0.51348  0.72080  0.60359  1.0000
  H   H3516     1.0  0.69666  0.66742  0.82275  1.0000
  H   H3517     1.0  0.71055  0.94190  0.93481  1.0000
  H   H3518     1.0  0.69825  0.93056  0.91289  1.0000
  H   H3519     1.0  0.54147  0.68827  0.60142  1.0000
  H   H3520     1.0  0.72278  0.82556  0.64900  1.0000
  H   H3521     1.0  0.67019  0.97330  0.89344  1.0000
  H   H3522     1.0  0.60412  0.94599  0.94696  1.0000
  H   H3523     1.0  0.70936  0.82866  0.74086  1.0000
  C   C2053     1.0  0.71462  0.74464  0.72619  1.0000
  H   H3524     1.0  0.70742  0.89458  0.86711  1.0000
  H   H3525     1.0  0.60652  0.66529  0.73199  1.0000
  C   C2054     1.0  0.72466  0.88127  0.74192  1.0000
  H   H3526     1.0  0.59904  0.97082  0.77309  1.0000
  S   S580      1.0  0.69286  0.66692  0.76911  1.0000
  H   H3527     1.0  0.73869  0.76111  0.72327  1.0000
  H   H3528     1.0  0.61811  0.97294  0.71340  1.0000
  H   H3529     1.0  0.71894  0.91587  0.73284  1.0000
  H   H3530     1.0  0.73355  0.70083  0.60261  1.0000
  H   H3531     1.0  0.71498  0.78382  0.74505  1.0000
  H   H3532     1.0  0.73585  0.66152  0.57401  1.0000
  H   H3533     1.0  0.73480  0.90466  0.70238  1.0000
  H   H3534     1.0  0.73979  0.91373  0.93271  1.0000
  H   H3535     1.0  0.72916  0.87690  0.79380  1.0000
  S   S581      1.0  0.60528  0.66449  0.65975  1.0000
  N   N150      1.0  0.73207  0.87347  0.72149  1.0000
  H   H3536     1.0  0.49742  0.81505  0.97491  1.0000
  H   H3537     1.0  0.62898  0.96506  0.98544  1.0000
  H   H3538     1.0  0.73375  0.66251  0.77692  1.0000
  H   H3539     1.0  0.58603  0.85784  0.98831  1.0000
  H   H3540     1.0  0.72440  0.90535  0.75846  1.0000
  C   C2055     1.0  0.60392  0.66474  0.70074  1.0000
  S   S582      1.0  0.60016  0.66473  0.78215  1.0000
  C   C2056     1.0  0.66305  0.98963  0.94964  1.0000
  C   C2057     1.0  0.67936  0.66401  0.65839  1.0000
  C   C2058     1.0  0.57023  0.99066  0.76517  1.0000
  Fe  Fe292     1.0  0.49370  0.99028  0.80411  1.0000
  C   C2059     1.0  0.74221  0.89841  0.80260  1.0000
  C   C2060     1.0  0.57443  0.66051  0.58024  1.0000
  H   H3541     1.0  0.55344  0.99115  0.77224  1.0000
  H   H3542     1.0  0.49434  0.87817  0.83951  1.0000
  H   H3543     1.0  0.51808  0.99250  0.89464  1.0000
  C   C2061     1.0  0.76651  0.11468  0.17165  1.0000
  S   S583      1.0  0.81060  0.04753  0.05357  1.0000
  H   H3544     1.0  0.80132  0.05970  0.22486  1.0000
  H   H3545     1.0  0.75479  0.12907  0.17040  1.0000
  H   H3546     1.0  0.84252  0.15539  0.20281  1.0000
  S   S584      1.0  0.98068  0.00015  0.41268  1.0000
  S   S585      1.0  0.96696  0.06193  0.39580  1.0000
  H   H3547     1.0  0.79067  0.12987  0.17299  1.0000
  C   C2062     1.0  0.78683  0.11513  0.17302  1.0000
  H   H3548     1.0  0.90567  0.09847  0.17087  1.0000
  Fe  Fe293     1.0  0.75846  0.29778  0.05419  1.0000
  Fe  Fe294     1.0  0.83577  0.05756  0.32608  1.0000
  S   S586      1.0  0.84826  0.07066  0.29231  1.0000
  S   S587      1.0  0.85850  0.03840  0.34690  1.0000
  Fe  Fe295     1.0  0.82266  0.05922  0.28516  1.0000
  S   S588      1.0  0.82704  0.04551  0.25652  1.0000
  Fe  Fe296     1.0  0.82415  0.09955  0.29773  1.0000
  S   S589      1.0  0.83395  0.13076  0.28563  1.0000
  Fe  Fe297     1.0  0.80801  0.25699  0.31508  1.0000
  S   S590      1.0  0.80041  0.24892  0.28777  1.0000
  S   S591      1.0  0.84107  0.25076  0.31950  1.0000
  C   C2063     1.0  0.86426  0.00837  0.41664  1.0000
  H   H3549     1.0  0.74936  0.14354  0.02093  1.0000
  Fe  Fe298     1.0  0.77500  0.23574  0.31205  1.0000
  Fe  Fe299     1.0  0.77769  0.27966  0.28684  1.0000
  S   S592      1.0  0.77227  0.30012  0.25602  1.0000
  S   S593      1.0  0.78418  0.24139  0.33966  1.0000
  S   S594      1.0  0.78735  0.28936  0.31204  1.0000
  Fe  Fe300     1.0  0.89385  0.05195  0.14266  1.0000
  S   S595      1.0  0.92427  0.05443  0.11994  1.0000
  S   S596      1.0  0.86205  0.06292  0.13462  1.0000
  H   H3550     1.0  0.79890  0.10732  0.12618  1.0000
  C   C2064     1.0  0.88618  0.14328  0.03061  1.0000
  Fe  Fe301     1.0  0.93716  0.18785  0.23191  1.0000
  S   S597      1.0  0.90554  0.17924  0.24204  1.0000
  S   S598      1.0  0.94216  0.22043  0.21563  1.0000
  Fe  Fe302     1.0  0.95970  0.14427  0.25060  1.0000
  S   S599      1.0  0.93007  0.13193  0.26201  1.0000
  Fe  Fe303     1.0  0.92254  0.14929  0.23076  1.0000
  S   S600      1.0  0.91426  0.13310  0.20928  1.0000
  Fe  Fe304     1.0  0.91630  0.16273  0.27223  1.0000
  S   S601      1.0  0.89900  0.16342  0.30541  1.0000
  S   S602      1.0  0.95332  0.15927  0.21843  1.0000
  S   S603      1.0  0.94655  0.17387  0.26312  1.0000
  S   S604      1.0  0.90430  0.17300  0.08968  1.0000
  S   S605      1.0  0.88549  0.20346  0.13432  1.0000
  Fe  Fe305     1.0  0.90465  0.19677  0.05956  1.0000
  S   S606      1.0  0.88020  0.20209  0.04027  1.0000
  C   C2065     1.0  0.90544  0.15229  0.18855  1.0000
  C   C2066     1.0  0.89441  0.17215  0.19197  1.0000
  C   C2067     1.0  0.88740  0.18747  0.17541  1.0000
  C   C2068     1.0  0.89251  0.18339  0.15511  1.0000
  C   C2069     1.0  0.90960  0.14786  0.16845  1.0000
  H   H3551     1.0  0.89088  0.17567  0.20745  1.0000
  H   H3552     1.0  0.87866  0.20277  0.17818  1.0000
  C   C2070     1.0  0.93335  0.07808  0.11114  1.0000
  C   C2071     1.0  0.92026  0.09758  0.11330  1.0000
  C   C2072     1.0  0.92844  0.11609  0.10589  1.0000
  C   C2073     1.0  0.96256  0.09547  0.09437  1.0000
  C   C2074     1.0  0.95443  0.07711  0.10159  1.0000
  H   H3553     1.0  0.90396  0.09835  0.12075  1.0000
  C   C2075     1.0  0.75626  0.04549  0.30177  1.0000
  H   H3554     1.0  0.96457  0.06206  0.09983  1.0000
  H   H3555     1.0  0.93425  0.04390  0.22360  1.0000
  H   H3556     1.0  0.95114  0.06331  0.34631  1.0000
  C   C2076     1.0  0.85636  0.22602  0.31591  1.0000
  C   C2077     1.0  0.87417  0.21827  0.32480  1.0000
  C   C2078     1.0  0.88726  0.19908  0.32143  1.0000
  C   C2079     1.0  0.88310  0.18796  0.30841  1.0000
  C   C2080     1.0  0.86551  0.19581  0.29914  1.0000
  C   C2081     1.0  0.85185  0.21459  0.30331  1.0000
  H   H3557     1.0  0.87777  0.22709  0.33447  1.0000
  H   H3558     1.0  0.90077  0.19298  0.32871  1.0000
  H   H3559     1.0  0.86208  0.18706  0.28931  1.0000
  H   H3560     1.0  0.83810  0.22034  0.29648  1.0000
  C   C2082     1.0  0.81429  0.11165  0.11842  1.0000
  Fe  Fe306     1.0  0.96264  0.03181  0.41883  1.0000
  H   H3561     1.0  0.77255  0.06226  0.17435  1.0000
  C   C2083     1.0  0.81481  0.15190  0.29337  1.0000
  C   C2084     1.0  0.81798  0.17258  0.28567  1.0000
  C   C2085     1.0  0.80264  0.18946  0.29214  1.0000
  H   H3562     1.0  0.83231  0.17552  0.27482  1.0000
  H   H3563     1.0  0.80510  0.20536  0.28616  1.0000
  S   S607      1.0  0.88395  0.06055  0.17446  1.0000
  C   C2086     1.0  0.98730  0.10269  0.44718  1.0000
  C   C2087     1.0  0.76128  0.09561  0.17211  1.0000
  C   C2088     1.0  0.79701  0.07769  0.17414  1.0000
  C   C2089     1.0  0.90055  0.07210  0.36537  1.0000
  C   C2090     1.0  0.88825  0.08290  0.35041  1.0000
  C   C2091     1.0  0.87504  0.07285  0.34482  1.0000
  C   C2092     1.0  0.87476  0.05161  0.35358  1.0000
  C   C2093     1.0  0.88804  0.04048  0.36756  1.0000
  C   C2094     1.0  0.90064  0.05079  0.37367  1.0000
  H   H3564     1.0  0.88899  0.09907  0.34315  1.0000
  S   S608      1.0  0.81946  0.10388  0.05566  1.0000
  H   H3565     1.0  0.88857  0.02386  0.37366  1.0000
  H   H3566     1.0  0.91075  0.04228  0.38447  1.0000
  H   H3567     1.0  0.93406  0.09343  0.02369  1.0000
  H   H3568     1.0  0.97126  0.05421  0.48447  1.0000
  C   C2095     1.0  0.77547  0.28797  0.17922  1.0000
  H   H3569     1.0  0.89749  0.12863  0.03183  1.0000
  H   H3570     1.0  0.89104  0.02452  0.08486  1.0000
  H   H3571     1.0  0.85848  0.07783  0.03747  1.0000
  H   H3572     1.0  0.86651  0.23116  0.00094  1.0000
  C   C2096     1.0  0.76153  0.31773  0.38585  1.0000
  H   H3573     1.0  0.77156  0.30298  0.35873  1.0000
  H   H3574     1.0  0.75461  0.17347  0.04124  1.0000
  C   C2097     1.0  0.91300  0.25222  0.15808  1.0000
  C   C2098     1.0  0.92184  0.26360  0.16717  1.0000
  C   C2099     1.0  0.93090  0.25359  0.18473  1.0000
  C   C2100     1.0  0.93050  0.23238  0.19374  1.0000
  C   C2101     1.0  0.92105  0.22113  0.18509  1.0000
  C   C2102     1.0  0.91267  0.23101  0.16700  1.0000
  C   C2103     1.0  0.78405  0.18562  0.30605  1.0000
  H   H3575     1.0  0.87343  0.04446  0.06076  1.0000
  H   H3576     1.0  0.92067  0.20475  0.19195  1.0000
  H   H3577     1.0  0.90605  0.22225  0.15973  1.0000
  C   C2104     1.0  0.96847  0.08745  0.15487  1.0000
  C   C2105     1.0  0.79601  0.04636  0.23599  1.0000
  Fe  Fe307     1.0  0.93888  0.21573  0.06621  1.0000
  H   H3578     1.0  0.98037  0.25319  0.00079  1.0000
  H   H3579     1.0  0.87459  0.13354  0.32890  1.0000
  C   C2106     1.0  0.82060  0.03690  0.07656  1.0000
  C   C2107     1.0  0.83141  0.04809  0.08369  1.0000
  C   C2108     1.0  0.83869  0.03961  0.10252  1.0000
  C   C2109     1.0  0.83504  0.01998  0.11432  1.0000
  C   C2110     1.0  0.82444  0.00867  0.10703  1.0000
  C   C2111     1.0  0.81729  0.01709  0.08814  1.0000
  H   H3580     1.0  0.83435  0.06315  0.07465  1.0000
  H   H3581     1.0  0.84698  0.04829  0.10791  1.0000
  S   S609      1.0  0.78403  0.28470  0.07260  1.0000
  H   H3582     1.0  0.81398  0.16535  0.33098  1.0000
  C   C2112     1.0  0.85359  0.16403  0.02135  1.0000
  C   C2113     1.0  0.85742  0.18146  0.02677  1.0000
  C   C2114     1.0  0.87552  0.17978  0.03429  1.0000
  H   H3583     1.0  0.83962  0.16546  0.01552  1.0000
  H   H3584     1.0  0.84634  0.19629  0.02506  1.0000
  N   N151      1.0  0.87682  0.25795  0.24773  1.0000
  C   C2115     1.0  0.88905  0.24197  0.26283  1.0000
  C   C2116     1.0  0.85481  0.25408  0.25289  1.0000
  C   C2117     1.0  0.87604  0.28006  0.24958  1.0000
  C   C2118     1.0  0.88755  0.25551  0.22566  1.0000
  C   C2119     1.0  0.91083  0.24553  0.26272  1.0000
  C   C2120     1.0  0.85231  0.23427  0.24676  1.0000
  C   C2121     1.0  0.86596  0.28524  0.27150  1.0000
  C   C2122     1.0  0.87659  0.26976  0.20785  1.0000
  H   H3585     1.0  0.88020  0.24113  0.27926  1.0000
  H   H3586     1.0  0.89149  0.22586  0.25980  1.0000
  H   H3587     1.0  0.84388  0.26782  0.24566  1.0000
  H   H3588     1.0  0.84837  0.25249  0.27009  1.0000
  H   H3589     1.0  0.89192  0.28389  0.24482  1.0000
  H   H3590     1.0  0.86709  0.29163  0.23830  1.0000
  H   H3591     1.0  0.90339  0.25919  0.22201  1.0000
  H   H3592     1.0  0.89065  0.23884  0.22394  1.0000
  H   H3593     1.0  0.75567  0.15723  0.11706  1.0000
  H   H3594     1.0  0.92125  0.24624  0.24703  1.0000
  H   H3595     1.0  0.90978  0.25985  0.26863  1.0000
  H   H3596     1.0  0.83593  0.23207  0.25289  1.0000
  H   H3597     1.0  0.85532  0.23594  0.22944  1.0000
  H   H3598     1.0  0.86258  0.21983  0.25365  1.0000
  H   H3599     1.0  0.84911  0.28453  0.27584  1.0000
  H   H3600     1.0  0.96511  0.28384  0.08635  1.0000
  H   H3601     1.0  0.87401  0.27479  0.28400  1.0000
  H   H3602     1.0  0.88392  0.28370  0.20053  1.0000
  H   H3603     1.0  0.85965  0.27556  0.21295  1.0000
  H   H3604     1.0  0.87816  0.26077  0.19552  1.0000
  N   N152      1.0  0.83639  0.25487  0.10064  1.0000
  C   C2123     1.0  0.84186  0.24411  0.08213  1.0000
  C   C2124     1.0  0.83786  0.27766  0.09195  1.0000
  C   C2125     1.0  0.81434  0.25282  0.11200  1.0000
  C   C2126     1.0  0.85154  0.24394  0.11496  1.0000
  C   C2127     1.0  0.83964  0.22089  0.08720  1.0000
  C   C2128     1.0  0.85990  0.28171  0.08071  1.0000
  C   C2129     1.0  0.80186  0.26969  0.12477  1.0000
  C   C2130     1.0  0.85012  0.25358  0.13398  1.0000
  H   H3605     1.0  0.88009  0.07205  0.01613  1.0000
  H   H3606     1.0  0.85829  0.24411  0.07370  1.0000
  H   H3607     1.0  0.83247  0.28721  0.10430  1.0000
  H   H3608     1.0  0.96636  0.05183  0.20161  1.0000
  H   H3609     1.0  0.80462  0.25307  0.10077  1.0000
  H   H3610     1.0  0.81423  0.23723  0.12294  1.0000
  H   H3611     1.0  0.84925  0.22757  0.12185  1.0000
  H   H3612     1.0  0.86803  0.24181  0.10617  1.0000
  H   H3613     1.0  0.85106  0.21056  0.09667  1.0000
  S   S610      1.0  0.75143  0.26568  0.30840  1.0000
  H   H3614     1.0  0.84306  0.21533  0.07220  1.0000
  H   H3615     1.0  0.86609  0.27489  0.06642  1.0000
  H   H3616     1.0  0.85901  0.29891  0.07524  1.0000
  H   H3617     1.0  0.86524  0.00086  0.33136  1.0000
  H   H3618     1.0  0.81061  0.27212  0.13553  1.0000
  H   H3619     1.0  0.78738  0.26471  0.13464  1.0000
  H   H3620     1.0  0.79699  0.28494  0.11423  1.0000
  H   H3621     1.0  0.83808  0.24801  0.14750  1.0000
  H   H3622     1.0  0.84736  0.27094  0.13041  1.0000
  H   H3623     1.0  0.86545  0.24853  0.13893  1.0000
  H   H3624     1.0  0.90618  0.03936  0.20828  1.0000
  H   H3625     1.0  0.89446  0.04418  0.26596  1.0000
  Fe  Fe308     1.0  0.80483  0.28149  0.04125  1.0000
  H   H3626     1.0  0.91723  0.09347  0.47879  1.0000
  H   H3627     1.0  0.96190  0.12951  0.44855  1.0000
  C   C2131     1.0  0.78233  0.19783  0.07325  1.0000
  N   N153      1.0  0.94968  0.05944  0.30589  1.0000
  C   C2132     1.0  0.93029  0.05005  0.31416  1.0000
  C   C2133     1.0  0.96532  0.04735  0.31948  1.0000
  C   C2134     1.0  0.95806  0.05610  0.28361  1.0000
  C   C2135     1.0  0.94374  0.08259  0.30651  1.0000
  C   C2136     1.0  0.91275  0.05887  0.30136  1.0000
  C   C2137     1.0  0.95800  0.04730  0.34322  1.0000
  H   H3628     1.0  0.96853  0.12064  0.14167  1.0000
  C   C2138     1.0  0.96146  0.09341  0.30667  1.0000
  H   H3629     1.0  0.93433  0.03262  0.31541  1.0000
  H   H3630     1.0  0.92292  0.05251  0.33036  1.0000
  H   H3631     1.0  0.98012  0.05320  0.31447  1.0000
  H   H3632     1.0  0.96982  0.03060  0.31790  1.0000
  H   H3633     1.0  0.95970  0.03926  0.28309  1.0000
  H   H3634     1.0  0.94697  0.06524  0.27320  1.0000
  H   H3635     1.0  0.93626  0.09165  0.29302  1.0000
  H   H3636     1.0  0.93171  0.08513  0.32095  1.0000
  H   H3637     1.0  0.91719  0.05396  0.28597  1.0000
  H   H3638     1.0  0.89872  0.05233  0.31017  1.0000
  H   H3639     1.0  0.90795  0.07625  0.29906  1.0000
  H   H3640     1.0  0.97160  0.04097  0.35108  1.0000
  C   C2139     1.0  0.75651  0.11840  0.31274  1.0000
  C   C2140     1.0  0.88660  0.01953  0.29312  1.0000
  C   C2141     1.0  0.75151  0.06096  0.07592  1.0000
  C   C2142     1.0  0.94196  0.01118  0.23807  1.0000
  H   H3641     1.0  0.75341  0.18763  0.28112  1.0000
  N   N154      1.0  0.83372  0.14842  0.35330  1.0000
  H   H3642     1.0  0.75034  0.19679  0.99630  1.0000
  C   C2143     1.0  0.92504  0.30229  0.08368  1.0000
  H   H3643     1.0  0.77827  0.09074  0.10459  1.0000
  C   C2144     1.0  0.91385  0.25856  0.02249  1.0000
  H   H3644     1.0  0.97107  0.16110  0.36476  1.0000
  H   H3645     1.0  0.97544  0.07694  0.21755  1.0000
  H   H3646     1.0  0.89010  0.10736  0.07033  1.0000
  H   H3647     1.0  0.77561  0.32386  0.38298  1.0000
  H   H3648     1.0  0.95880  0.99650  0.45582  1.0000
  H   H3649     1.0  0.93072  0.28584  0.08097  1.0000
  H   H3650     1.0  0.91638  0.30072  0.10031  1.0000
  H   H3651     1.0  0.86055  0.00582  0.27705  1.0000
  H   H3652     1.0  0.96600  0.13930  0.39949  1.0000
  H   H3653     1.0  0.82354  0.21888  0.09503  1.0000
  H   H3654     1.0  0.91133  0.00947  0.40341  1.0000
  H   H3655     1.0  0.86291  0.15897  0.34795  1.0000
  H   H3656     1.0  0.75950  0.18992  0.12510  1.0000
  C   C2145     1.0  0.98114  0.12682  0.47081  1.0000
  H   H3657     1.0  0.97760  0.07965  0.26841  1.0000
  S   S611      1.0  0.83688  0.28886  0.03562  1.0000
  N   N155      1.0  0.88106  0.99800  0.29954  1.0000
  H   H3658     1.0  0.82166  0.99344  0.11606  1.0000
  H   H3659     1.0  0.82711  0.28502  0.08075  1.0000
  C   C2146     1.0  0.92173  0.09109  0.16381  1.0000
  S   S612      1.0  0.75643  0.00745  0.24084  1.0000
  H   H3660     1.0  0.89513  0.30514  0.07545  1.0000
  H   H3661     1.0  0.87799  0.09253  0.09468  1.0000
  S   S613      1.0  0.88760  0.00339  0.21398  1.0000
  C   C2147     1.0  0.86224  0.13379  0.37558  1.0000
  H   H3662     1.0  0.76432  0.16985  0.00148  1.0000
  S   S614      1.0  0.77695  0.10271  0.04213  1.0000
  H   H3663     1.0  0.95825  0.11001  0.29802  1.0000
  Fe  Fe309     1.0  0.85773  0.02998  0.14970  1.0000
  C   C2148     1.0  0.97530  0.12034  0.45510  1.0000
  H   H3664     1.0  0.86697  0.30161  0.27118  1.0000
  C   C2149     1.0  0.89942  0.03520  0.08821  1.0000
  H   H3665     1.0  0.76957  0.21433  0.23796  1.0000
  H   H3666     1.0  0.79459  0.13222  0.31432  1.0000
  N   N156      1.0  0.75276  0.07476  0.10865  1.0000
  H   H3667     1.0  0.90384  0.15922  0.04215  1.0000
  H   H3668     1.0  0.82602  0.10070  0.12707  1.0000
  S   S615      1.0  0.76362  0.25251  0.00425  1.0000
  Fe  Fe310     1.0  0.86016  0.32379  0.16965  1.0000
  H   H3669     1.0  0.82091  0.00482  0.22582  1.0000
  H   H3670     1.0  0.75241  0.27628  0.23795  1.0000
  H   H3671     1.0  0.90098  0.22749  0.99844  1.0000
  H   H3672     1.0  0.82916  0.12898  0.33407  1.0000
  H   H3673     1.0  0.97196  0.14076  0.47649  1.0000
  S   S616      1.0  0.95671  0.24185  0.04894  1.0000
  C   C2150     1.0  0.80526  0.03712  0.25362  1.0000
  N   N157      1.0  0.84952  0.11376  0.22474  1.0000
  C   C2151     1.0  0.85164  0.09012  0.22914  1.0000
  C   C2152     1.0  0.82690  0.12291  0.23281  1.0000
  C   C2153     1.0  0.86303  0.11848  0.23711  1.0000
  C   C2154     1.0  0.85689  0.12136  0.20141  1.0000
  C   C2155     1.0  0.87412  0.07710  0.22527  1.0000
  C   C2156     1.0  0.81078  0.11753  0.22331  1.0000
  C   C2157     1.0  0.86179  0.14186  0.23655  1.0000
  C   C2158     1.0  0.84811  0.14452  0.19176  1.0000
  H   H3674     1.0  0.84429  0.08423  0.24577  1.0000
  H   H3675     1.0  0.84312  0.08551  0.21930  1.0000
  H   H3676     1.0  0.82375  0.14025  0.23052  1.0000
  H   H3677     1.0  0.82277  0.11750  0.25020  1.0000
  H   H3678     1.0  0.85943  0.11043  0.25389  1.0000
  H   H3679     1.0  0.87983  0.11210  0.23140  1.0000
  H   H3680     1.0  0.87428  0.11897  0.19737  1.0000
  H   H3681     1.0  0.85282  0.11166  0.19241  1.0000
  H   H3682     1.0  0.88321  0.08290  0.20955  1.0000
  H   H3683     1.0  0.88251  0.07679  0.23765  1.0000
  H   H3684     1.0  0.87331  0.06052  0.22611  1.0000
  H   H3685     1.0  0.80951  0.10073  0.22885  1.0000
  H   H3686     1.0  0.79507  0.12695  0.22856  1.0000
  H   H3687     1.0  0.81442  0.12136  0.20592  1.0000
  H   H3688     1.0  0.84592  0.15020  0.24269  1.0000
  H   H3689     1.0  0.86068  0.15092  0.17945  1.0000
  N   N158      1.0  0.83281  0.14316  0.11076  1.0000
  C   C2159     1.0  0.82754  0.16675  0.10856  1.0000
  C   C2160     1.0  0.84338  0.13814  0.08950  1.0000
  C   C2161     1.0  0.84731  0.13291  0.12596  1.0000
  C   C2162     1.0  0.81286  0.13483  0.11911  1.0000
  C   C2163     1.0  0.81854  0.17480  0.12929  1.0000
  C   C2164     1.0  0.83002  0.14623  0.07244  1.0000
  C   C2165     1.0  0.86779  0.14107  0.12131  1.0000
  H   H3690     1.0  0.84141  0.17383  0.10016  1.0000
  H   H3691     1.0  0.81567  0.17396  0.09852  1.0000
  H   H3692     1.0  0.84893  0.12089  0.09070  1.0000
  H   H3693     1.0  0.85764  0.14505  0.08300  1.0000
  H   H3694     1.0  0.83922  0.13445  0.14230  1.0000
  H   H3695     1.0  0.85201  0.11566  0.12656  1.0000
  H   H3696     1.0  0.80662  0.13622  0.13576  1.0000
  H   H3697     1.0  0.80037  0.14446  0.11068  1.0000
  H   H3698     1.0  0.82992  0.17014  0.13987  1.0000
  H   H3699     1.0  0.81469  0.19227  0.12561  1.0000
  H   H3700     1.0  0.80375  0.16958  0.13770  1.0000
  H   H3701     1.0  0.82786  0.16358  0.06706  1.0000
  H   H3702     1.0  0.83827  0.13913  0.05864  1.0000
  H   H3703     1.0  0.81464  0.14158  0.07740  1.0000
  H   H3704     1.0  0.87803  0.13771  0.10629  1.0000
  H   H3705     1.0  0.87669  0.13271  0.13393  1.0000
  H   H3706     1.0  0.86500  0.15809  0.12128  1.0000
  C   C2166     1.0  0.96869  0.14423  0.33374  1.0000
  C   C2167     1.0  0.85998  0.00035  0.29428  1.0000
  H   H3707     1.0  0.98707  0.03305  0.17492  1.0000
  C   C2168     1.0  0.76318  0.16850  0.10475  1.0000
  H   H3708     1.0  0.94208  0.27799  0.11898  1.0000
  H   H3709     1.0  0.96511  0.19428  0.18152  1.0000
  S   S617      1.0  0.74597  0.03225  0.18190  1.0000
  C   C2169     1.0  0.74392  0.10419  0.32433  1.0000
  H   H3710     1.0  0.94012  0.07060  0.04322  1.0000
  C   C2170     1.0  0.95175  0.14688  0.39288  1.0000
  H   H3711     1.0  0.87035  0.12075  0.36732  1.0000
  H   H3712     1.0  0.94686  0.17496  0.17000  1.0000
  H   H3713     1.0  0.84278  0.25032  0.00083  1.0000
  H   H3714     1.0  0.75798  0.14880  0.29284  1.0000
  H   H3715     1.0  0.90262  0.01862  0.29541  1.0000
  H   H3716     1.0  0.86820  0.07154  0.07861  1.0000
  C   C2171     1.0  0.85853  0.24672  0.00477  1.0000
  S   S618      1.0  0.90228  0.04705  0.47683  1.0000
  H   H3717     1.0  0.93988  0.19054  0.14546  1.0000
  H   H3718     1.0  0.75699  0.25331  0.13172  1.0000
  C   C2172     1.0  0.79580  0.30709  0.24152  1.0000
  H   H3719     1.0  0.76867  0.25304  0.24923  1.0000
  H   H3720     1.0  0.91142  0.02504  0.09713  1.0000
  H   H3721     1.0  0.79695  0.06717  0.13078  1.0000
  N   N159      1.0  0.98232  0.19341  0.14967  1.0000
  C   C2173     1.0  0.75069  0.30903  0.15774  1.0000
  C   C2174     1.0  0.93508  0.08329  0.18087  1.0000
  C   C2175     1.0  0.90350  0.16352  0.15160  1.0000
  H   H3722     1.0  0.94662  0.03683  0.35082  1.0000
  H   H3723     1.0  0.83555  0.14532  0.18340  1.0000
  H   H3724     1.0  0.90747  0.16029  0.13592  1.0000
  H   H3725     1.0  0.91828  0.13269  0.16571  1.0000
  H   H3726     1.0  0.82196  0.31735  0.19094  1.0000
  H   H3727     1.0  0.92159  0.27166  0.01302  1.0000
  S   S619      1.0  0.84323  0.00933  0.13831  1.0000
  S   S620      1.0  0.94137  0.19363  0.09731  1.0000
  H   H3728     1.0  0.91461  0.31198  0.05327  1.0000
  Fe  Fe311     1.0  0.90638  0.19920  0.10345  1.0000
  C   C2176     1.0  0.94962  0.11503  0.09631  1.0000
  H   H3729     1.0  0.91851  0.13104  0.10798  1.0000
  H   H3730     1.0  0.78975  0.20904  0.06096  1.0000
  H   H3731     1.0  0.87589  0.03023  0.30328  1.0000
  H   H3732     1.0  0.87207  0.14293  0.24671  1.0000
  C   C2177     1.0  0.94997  0.29136  0.11640  1.0000
  H   H3733     1.0  0.86774  0.15014  0.22058  1.0000
  H   H3734     1.0  0.87118  0.27596  0.09144  1.0000
  S   S621      1.0  0.89040  0.01841  0.15490  1.0000
  S   S622      1.0  0.84500  0.03638  0.18216  1.0000
  S   S623      1.0  0.90376  0.22372  0.07409  1.0000
  H   H3735     1.0  0.97893  0.09455  0.08704  1.0000
  C   C2178     1.0  0.96823  0.10981  0.15730  1.0000
  Fe  Fe312     1.0  0.93918  0.16888  0.08124  1.0000
  S   S624      1.0  0.96083  0.13749  0.08708  1.0000
  S   S625      1.0  0.93960  0.19036  0.04936  1.0000
  H   H3736     1.0  0.86529  0.08141  0.33358  1.0000
  H   H3737     1.0  0.81759  0.10912  0.10210  1.0000
  Fe  Fe313     1.0  0.80863  0.08231  0.04202  1.0000
  Fe  Fe314     1.0  0.85155  0.06852  0.16754  1.0000
  C   C2179     1.0  0.77645  0.07705  0.17385  1.0000
  C   C2180     1.0  0.88978  0.16058  0.03647  1.0000
  S   S626      1.0  0.91617  0.08545  0.37279  1.0000
  H   H3738     1.0  0.76672  0.16190  0.32459  1.0000
  S   S627      1.0  0.76988  0.13951  0.08046  1.0000
  C   C2181     1.0  0.87710  0.00438  0.43382  1.0000
  H   H3739     1.0  0.92076  0.15573  0.35526  1.0000
  C   C2182     1.0  0.98620  0.26363  0.04851  1.0000
  C   C2183     1.0  0.80229  0.09672  0.17372  1.0000
  H   H3740     1.0  0.80868  0.06341  0.17463  1.0000
  C   C2184     1.0  0.78103  0.17874  0.06884  1.0000
  Fe  Fe315     1.0  0.77851  0.25273  0.07304  1.0000
  H   H3741     1.0  0.89516  0.03940  0.04010  1.0000
  C   C2185     1.0  0.77143  0.16401  0.08465  1.0000
  C   C2186     1.0  0.86806  0.14494  0.02310  1.0000
  H   H3742     1.0  0.93882  0.30417  0.12344  1.0000
  C   C2187     1.0  0.79655  0.14814  0.30765  1.0000
  S   S628      1.0  0.82823  0.09809  0.17296  1.0000
  Fe  Fe316     1.0  0.78905  0.12595  0.05239  1.0000
  Fe  Fe317     1.0  0.93192  0.06953  0.40058  1.0000
  Fe  Fe318     1.0  0.96272  0.07554  0.42445  1.0000
  H   H3743     1.0  0.97122  0.23342  0.16514  1.0000
  C   C2188     1.0  0.89260  0.25938  0.01715  1.0000
  C   C2189     1.0  0.77464  0.20194  0.09361  1.0000
  C   C2190     1.0  0.80947  0.31181  0.25147  1.0000
  C   C2191     1.0  0.78101  0.16495  0.31372  1.0000
  H   H3744     1.0  0.86112  0.02549  0.40966  1.0000
  C   C2192     1.0  0.84090  0.31394  0.02148  1.0000
  H   H3745     1.0  0.86537  0.00746  0.44824  1.0000
  S   S629      1.0  0.79996  0.08955  0.28693  1.0000
  S   S630      1.0  0.96174  0.04460  0.44694  1.0000
  S   S631      1.0  0.92800  0.03835  0.42142  1.0000
  S   S632      1.0  0.75036  0.26643  0.05857  1.0000
  S   S633      1.0  0.76435  0.20619  0.31418  1.0000
  C   C2193     1.0  0.98039  0.11989  0.36415  1.0000
  S   S634      1.0  0.81326  0.08736  0.33210  1.0000
  H   H3746     1.0  0.86487  0.11931  0.31562  1.0000
  Fe  Fe319     1.0  0.87825  0.02760  0.18613  1.0000
  H   H3747     1.0  0.94733  0.16270  0.14906  1.0000
  S   S635      1.0  0.77715  0.22500  0.10026  1.0000
  S   S636      1.0  0.92788  0.08558  0.42747  1.0000
  H   H3748     1.0  0.90403  0.08319  0.08363  1.0000
  H   H3749     1.0  0.94449  0.16619  0.36382  1.0000
  S   S637      1.0  0.90281  0.26433  0.13533  1.0000
  C   C2194     1.0  0.78019  0.03812  0.23243  1.0000
  H   H3750     1.0  0.77330  0.04523  0.21869  1.0000
  C   C2195     1.0  0.75925  0.30594  0.37214  1.0000
  Fe  Fe320     1.0  0.79057  0.07501  0.32112  1.0000
  C   C2196     1.0  0.95761  0.05351  0.16673  1.0000
  S   S638      1.0  0.81191  0.04365  0.31860  1.0000
  H   H3751     1.0  0.77754  0.18188  0.26338  1.0000
  H   H3752     1.0  0.94767  0.04364  0.17916  1.0000
  H   H3753     1.0  0.92469  0.24330  0.02093  1.0000
  H   H3754     1.0  0.91570  0.06614  0.02371  1.0000
  C   C2197     1.0  0.86070  0.13316  0.32319  1.0000
  H   H3755     1.0  0.86096  0.27935  0.99655  1.0000
  H   H3756     1.0  0.79757  0.13251  0.35476  1.0000
  Fe  Fe321     1.0  0.92710  0.05340  0.44791  1.0000
  H   H3757     1.0  0.76195  0.05098  0.06495  1.0000
  H   H3758     1.0  0.98326  0.27180  0.03316  1.0000
  Fe  Fe322     1.0  0.83042  0.11884  0.02204  1.0000
  H   H3759     1.0  0.98798  0.15785  0.27057  1.0000
  H   H3760     1.0  0.83198  0.25274  0.07035  1.0000
  H   H3761     1.0  0.74812  0.28115  0.12783  1.0000
  H   H3762     1.0  0.74653  0.22254  0.14340  1.0000
  H   H3763     1.0  0.74616  0.04550  0.31761  1.0000
  C   C2198     1.0  0.86074  0.31871  0.01805  1.0000
  H   H3764     1.0  0.89791  0.00890  0.33211  1.0000
  H   H3765     1.0  0.92121  0.03717  0.05842  1.0000
  H   H3766     1.0  0.95073  0.05718  0.15244  1.0000
  H   H3767     1.0  0.97734  0.08633  0.29922  1.0000
  H   H3768     1.0  0.91852  0.23199  0.27351  1.0000
  H   H3769     1.0  0.93814  0.26235  0.19143  1.0000
  C   C2199     1.0  0.91502  0.02591  0.21722  1.0000
  Fe  Fe323     1.0  0.79023  0.11750  0.00927  1.0000
  H   H3770     1.0  0.78520  0.13593  0.38085  1.0000
  H   H3771     1.0  0.97353  0.13142  0.32470  1.0000
  C   C2200     1.0  0.97914  0.06233  0.27228  1.0000
  H   H3772     1.0  0.94352  0.11306  0.37610  1.0000
  S   S639      1.0  0.89166  0.32088  0.14799  1.0000
  H   H3773     1.0  0.76196  0.08884  0.12993  1.0000
  C   C2201     1.0  0.79144  0.29749  0.16533  1.0000
  H   H3774     1.0  0.89464  0.02003  0.25912  1.0000
  S   S640      1.0  0.80115  0.24863  0.04304  1.0000
  C   C2202     1.0  0.92733  0.08389  0.03888  1.0000
  H   H3775     1.0  0.89864  0.09026  0.02792  1.0000
  H   H3776     1.0  0.88597  0.01724  0.43035  1.0000
  C   C2203     1.0  0.92160  0.13890  0.36256  1.0000
  H   H3777     1.0  0.76249  0.99771  0.00846  1.0000
  C   C2204     1.0  0.80053  0.30878  0.21972  1.0000
  H   H3778     1.0  0.97244  0.30526  0.09148  1.0000
  S   S641      1.0  0.86382  0.12287  0.01622  1.0000
  S   S642      1.0  0.82156  0.09549  0.00847  1.0000
  C   C2205     1.0  0.90882  0.07617  0.03570  1.0000
  H   H3779     1.0  0.94838  0.08238  0.21681  1.0000
  H   H3780     1.0  0.87131  0.09199  0.05668  1.0000
  H   H3781     1.0  0.93949  0.15366  0.32168  1.0000
  H   H3782     1.0  0.92269  0.09426  0.05040  1.0000
  C   C2206     1.0  0.81875  0.31551  0.20780  1.0000
  H   H3783     1.0  0.88736  0.24482  0.02682  1.0000
  H   H3784     1.0  0.75423  0.02591  0.03290  1.0000
  H   H3785     1.0  0.93350  0.09702  0.18790  1.0000
  H   H3786     1.0  0.98329  0.28606  0.99788  1.0000
  C   C2207     1.0  0.95065  0.17668  0.15265  1.0000
  C   C2208     1.0  0.75984  0.21352  0.25415  1.0000
  C   C2209     1.0  0.78336  0.01096  0.26366  1.0000
  C   C2210     1.0  0.83248  0.32021  0.21766  1.0000
  H   H3787     1.0  0.96141  0.09437  0.32292  1.0000
  H   H3788     1.0  0.75757  0.32188  0.20151  1.0000
  C   C2211     1.0  0.95870  0.29842  0.09274  1.0000
  H   H3789     1.0  0.82729  0.19781  0.34583  1.0000
  H   H3790     1.0  0.74960  0.04610  0.13184  1.0000
  H   H3791     1.0  0.78770  0.15865  0.36043  1.0000
  S   S643      1.0  0.98315  0.09799  0.42390  1.0000
  C   C2212     1.0  0.87063  0.06521  0.03124  1.0000
  H   H3792     1.0  0.79385  0.05137  0.11454  1.0000
  N   N160      1.0  0.89611  0.06441  0.05490  1.0000
  C   C2213     1.0  0.88039  0.07949  0.06726  1.0000
  C   C2214     1.0  0.88884  0.09122  0.07940  1.0000
  C   C2215     1.0  0.96929  0.06721  0.19145  1.0000
  C   C2216     1.0  0.78717  0.31217  0.14718  1.0000
  H   H3793     1.0  0.83608  0.99560  0.18218  1.0000
  H   H3794     1.0  0.75292  0.99853  0.04361  1.0000
  C   C2217     1.0  0.94382  0.12487  0.36101  1.0000
  C   C2218     1.0  0.90854  0.31329  0.06997  1.0000
  H   H3795     1.0  0.92094  0.05555  0.07307  1.0000
  H   H3796     1.0  0.80237  0.19706  0.34085  1.0000
  H   H3797     1.0  0.83797  0.17280  0.32541  1.0000
  H   H3798     1.0  0.84678  0.99817  0.21207  1.0000
  C   C2219     1.0  0.93093  0.02845  0.22582  1.0000
  H   H3799     1.0  0.92215  0.27999  0.16039  1.0000
  C   C2220     1.0  0.95235  0.16072  0.32266  1.0000
  C   C2221     1.0  0.88422  0.05231  0.04739  1.0000
  H   H3800     1.0  0.97220  0.07890  0.48828  1.0000
  C   C2222     1.0  0.74788  0.13815  0.30209  1.0000
  H   H3801     1.0  0.78749  0.17545  0.05325  1.0000
  H   H3802     1.0  0.77888  0.27627  0.19301  1.0000
  C   C2223     1.0  0.92060  0.99348  0.40735  1.0000
  S   S644      1.0  0.80037  0.14260  0.01955  1.0000
  C   C2224     1.0  0.76090  0.18996  0.26422  1.0000
  C   C2225     1.0  0.91039  0.04837  0.06801  1.0000
  S   S645      1.0  0.77963  0.29644  0.02273  1.0000
  H   H3803     1.0  0.91322  0.13728  0.37923  1.0000
  H   H3804     1.0  0.80897  0.18424  0.36548  1.0000
  H   H3805     1.0  0.94612  0.17478  0.32983  1.0000
  C   C2226     1.0  0.76920  0.08006  0.11707  1.0000
  H   H3806     1.0  0.75393  0.18186  0.25600  1.0000
  S   S646      1.0  0.98614  0.99723  0.29550  1.0000
  H   H3807     1.0  0.75016  0.10458  0.08663  1.0000
  C   C2227     1.0  0.97919  0.03913  0.16129  1.0000
  H   H3808     1.0  0.75838  0.06204  0.26944  1.0000
  H   H3809     1.0  0.84566  0.11537  0.35196  1.0000
  H   H3810     1.0  0.74626  0.14119  0.04786  1.0000
  H   H3811     1.0  0.91125  0.25985  0.03917  1.0000
  N   N161      1.0  0.95762  0.07338  0.17353  1.0000
  C   C2228     1.0  0.97868  0.23748  0.08005  1.0000
  H   H3812     1.0  0.96868  0.21817  0.12636  1.0000
  C   C2229     1.0  0.74554  0.32154  0.40326  1.0000
  S   S647      1.0  0.85173  0.29604  0.16308  1.0000
  C   C2230     1.0  0.75508  0.29372  0.17540  1.0000
  H   H3813     1.0  0.80715  0.29291  0.16830  1.0000
  H   H3814     1.0  0.77068  0.04589  0.09871  1.0000
  H   H3815     1.0  0.77301  0.11410  0.31211  1.0000
  H   H3816     1.0  0.85746  0.14715  0.31061  1.0000
  H   H3817     1.0  0.77174  0.04767  0.30278  1.0000
  H   H3818     1.0  0.88861  0.04527  0.09875  1.0000
  H   H3819     1.0  0.95998  0.16644  0.30617  1.0000
  H   H3820     1.0  0.84472  0.16542  0.37044  1.0000
  Fe  Fe324     1.0  0.77318  0.26402  0.02836  1.0000
  Fe  Fe325     1.0  0.88177  0.29518  0.13947  1.0000
  C   C2231     1.0  0.79576  0.14238  0.36635  1.0000
  H   H3821     1.0  0.97686  0.02517  0.15672  1.0000
  H   H3822     1.0  0.85145  0.12791  0.39012  1.0000
  H   H3823     1.0  0.81359  0.15187  0.38372  1.0000
  C   C2232     1.0  0.84161  0.13080  0.34127  1.0000
  S   S648      1.0  0.96086  0.01513  0.24961  1.0000
  C   C2233     1.0  0.99273  0.24345  0.08874  1.0000
  C   C2234     1.0  0.97499  0.23365  0.14803  1.0000
  Fe  Fe326     1.0  0.76274  0.27277  0.33403  1.0000
  H   H3824     1.0  0.86224  0.05465  0.02762  1.0000
  C   C2235     1.0  0.74416  0.18122  0.02980  1.0000
  H   H3825     1.0  0.87440  0.13887  0.38053  1.0000
  C   C2236     1.0  0.97518  0.24776  0.05998  1.0000
  C   C2237     1.0  0.74810  0.00998  0.01107  1.0000
  H   H3826     1.0  0.94424  0.09358  0.47475  1.0000
  H   H3827     1.0  0.77879  0.99701  0.27424  1.0000
  C   C2238     1.0  0.95734  0.15336  0.36867  1.0000
  C   C2239     1.0  0.74440  0.26633  0.12655  1.0000
  H   H3828     1.0  0.95642  0.30062  0.05188  1.0000
  H   H3829     1.0  0.98544  0.31585  0.05869  1.0000
  H   H3830     1.0  0.88118  0.27252  0.02343  1.0000
  H   H3831     1.0  0.92029  0.07809  0.15724  1.0000
  H   H3832     1.0  0.97647  0.09250  0.35370  1.0000
  H   H3833     1.0  0.94045  0.13620  0.39832  1.0000
  H   H3834     1.0  0.75226  0.02425  0.99947  1.0000
  C   C2240     1.0  0.79860  0.01961  0.26762  1.0000
  H   H3835     1.0  0.82211  0.12569  0.38030  1.0000
  H   H3836     1.0  0.97636  0.11299  0.38121  1.0000
  H   H3837     1.0  0.97576  0.18080  0.12570  1.0000
  C   C2241     1.0  0.77420  0.02005  0.24600  1.0000
  H   H3838     1.0  0.91235  0.13303  0.35448  1.0000
  H   H3839     1.0  0.92804  0.10322  0.15088  1.0000
  H   H3840     1.0  0.80497  0.01936  0.19934  1.0000
  C   C2242     1.0  0.85094  0.15270  0.36124  1.0000
  H   H3841     1.0  0.96309  0.28569  0.12498  1.0000
  C   C2243     1.0  0.80340  0.00705  0.19187  1.0000
  H   H3842     1.0  0.80213  0.01469  0.17534  1.0000
  H   H3843     1.0  0.98527  0.08015  0.15052  1.0000
  C   C2244     1.0  0.75847  0.18449  0.00775  1.0000
  S   S649      1.0  0.98913  0.12060  0.25550  1.0000
  H   H3844     1.0  0.77769  0.06924  0.08195  1.0000
  H   H3845     1.0  0.97030  0.22521  0.08894  1.0000
  C   C2245     1.0  0.82541  0.16811  0.33875  1.0000
  C   C2246     1.0  0.96421  0.08243  0.20674  1.0000
  H   H3846     1.0  0.80899  0.00835  0.08262  1.0000
  H   H3847     1.0  0.78851  0.00177  0.19964  1.0000
  S   S650      1.0  0.75604  0.07866  0.33514  1.0000
  H   H3848     1.0  0.80579  0.31071  0.26830  1.0000
  N   N162      1.0  0.94319  0.31305  0.08020  1.0000
  C   C2247     1.0  0.81684  0.14201  0.37174  1.0000
  C   C2248     1.0  0.76405  0.06241  0.09169  1.0000
  H   H3849     1.0  0.94591  0.11570  0.34867  1.0000
  H   H3850     1.0  0.84908  0.00327  0.42332  1.0000
  H   H3851     1.0  0.98264  0.15136  0.33108  1.0000
  C   C2249     1.0  0.96906  0.21480  0.14340  1.0000
  H   H3852     1.0  0.94266  0.02046  0.48119  1.0000
  H   H3853     1.0  0.89850  0.29267  0.99178  1.0000
  H   H3854     1.0  0.87320  0.30727  0.02437  1.0000
  H   H3855     1.0  0.94460  0.16117  0.39964  1.0000
  H   H3856     1.0  0.76821  0.21939  0.26316  1.0000
  H   H3857     1.0  0.92724  0.07200  0.19378  1.0000
  H   H3858     1.0  0.77224  0.19026  0.00868  1.0000
  H   H3859     1.0  0.96248  0.08890  0.14040  1.0000
  N   N163      1.0  0.96196  0.13573  0.35691  1.0000
  C   C2250     1.0  0.76528  0.18706  0.10933  1.0000
  H   H3860     1.0  0.77768  0.05121  0.14050  1.0000
  H   H3861     1.0  0.95259  0.21529  0.15156  1.0000
  C   C2251     1.0  0.90971  0.00618  0.22141  1.0000
  H   H3862     1.0  0.87024  0.03716  0.26733  1.0000
  H   H3863     1.0  0.87255  0.00074  0.40323  1.0000
  C   C2252     1.0  0.81562  0.18780  0.34846  1.0000
  H   H3864     1.0  0.95399  0.11678  0.16752  1.0000
  H   H3865     1.0  0.79010  0.30489  0.21204  1.0000
  C   C2253     1.0  0.98096  0.18761  0.17320  1.0000
  H   H3866     1.0  0.85582  0.24581  0.02196  1.0000
  C   C2254     1.0  0.97383  0.17769  0.14317  1.0000
  Fe  Fe327     1.0  0.83749  0.31989  0.13784  1.0000
  C   C2255     1.0  0.78517  0.06118  0.12615  1.0000
  C   C2256     1.0  0.88641  0.03070  0.27002  1.0000
  H   H3867     1.0  0.80575  0.01227  0.28112  1.0000
  S   S651      1.0  0.86684  0.31629  0.11340  1.0000
  H   H3868     1.0  0.84832  0.01270  0.30179  1.0000
  C   C2257     1.0  0.82772  0.31859  0.23949  1.0000
  H   H3869     1.0  0.96518  0.24828  0.14079  1.0000
  H   H3870     1.0  0.98289  0.17025  0.17892  1.0000
  H   H3871     1.0  0.98398  0.05717  0.25696  1.0000
  C   C2258     1.0  0.95297  0.31590  0.05705  1.0000
  H   H3872     1.0  0.74992  0.24653  0.22423  1.0000
  H   H3873     1.0  0.96557  0.09874  0.19870  1.0000
  N   N164      1.0  0.89266  0.26148  0.99418  1.0000
  H   H3874     1.0  0.74646  0.07647  0.06598  1.0000
  H   H3875     1.0  0.98959  0.04702  0.14765  1.0000
  H   H3876     1.0  0.83815  0.32258  0.24712  1.0000
  C   C2259     1.0  0.98887  0.10083  0.35328  1.0000
  H   H3877     1.0  0.98650  0.06464  0.18532  1.0000
  C   C2260     1.0  0.76676  0.31797  0.14347  1.0000
  H   H3878     1.0  0.75895  0.02988  0.29772  1.0000
  H   H3879     1.0  0.98211  0.10997  0.16330  1.0000
  H   H3880     1.0  0.98271  0.16141  0.14776  1.0000
  H   H3881     1.0  0.99197  0.05461  0.28090  1.0000
  H   H3882     1.0  0.74464  0.26764  0.10967  1.0000
  H   H3883     1.0  0.91321  0.99503  0.44810  1.0000
  H   H3884     1.0  0.74373  0.26384  0.26454  1.0000
  C   C2261     1.0  0.75214  0.26073  0.24882  1.0000
  C   C2262     1.0  0.87030  0.26438  0.99197  1.0000
  H   H3885     1.0  0.74941  0.07818  0.28861  1.0000
  H   H3886     1.0  0.88257  0.00410  0.47454  1.0000
  C   C2263     1.0  0.74757  0.06357  0.28482  1.0000
  H   H3887     1.0  0.97978  0.32347  0.03309  1.0000
  S   S652      1.0  0.80715  0.32256  0.12816  1.0000
  C   C2264     1.0  0.93016  0.09140  0.48714  1.0000
  C   C2265     1.0  0.97315  0.32475  0.04976  1.0000
  H   H3888     1.0  0.93231  0.99341  0.41637  1.0000
  H   H3889     1.0  0.99233  0.19112  0.19947  1.0000
  C   C2266     1.0  0.74596  0.01325  0.03359  1.0000
  H   H3890     1.0  0.84584  0.99349  0.24909  1.0000
  H   H3891     1.0  0.99148  0.23499  0.14132  1.0000
  H   H3892     1.0  0.80935  0.32574  0.01647  1.0000
  S   S653      1.0  0.75284  0.05200  0.94907  1.0000
  C   C2267     1.0  0.95611  0.09650  0.52098  1.0000
  H   H3893     1.0  0.98455  0.26601  0.91615  1.0000
  H   H3894     1.0  0.93335  0.01895  0.54868  1.0000
  N   N165      1.0  0.95049  0.06249  0.51280  1.0000
  H   H3895     1.0  0.98067  0.29225  0.97137  1.0000
  H   H3896     1.0  0.99181  0.31589  0.85693  1.0000
  H   H3897     1.0  0.97547  0.32394  0.98465  1.0000
  C   C2268     1.0  0.96601  0.28886  0.93444  1.0000
  C   C2269     1.0  0.94782  0.07574  0.52884  1.0000
  H   H3898     1.0  0.89130  0.23964  0.96242  1.0000
  H   H3899     1.0  0.91727  0.06920  0.51261  1.0000
  H   H3900     1.0  0.94721  0.31671  0.87157  1.0000
  H   H3901     1.0  0.93106  0.07965  0.53658  1.0000
  H   H3902     1.0  0.96480  0.32509  0.88186  1.0000
  H   H3903     1.0  0.87853  0.02328  0.51249  1.0000
  C   C2270     1.0  0.95061  0.03990  0.52414  1.0000
  C   C2271     1.0  0.99083  0.05305  0.50574  1.0000
  H   H3904     1.0  0.91698  0.22423  0.96243  1.0000
  H   H3905     1.0  0.87709  0.30208  0.96601  1.0000
  S   S654      1.0  0.94270  0.31706  0.95818  1.0000
  H   H3906     1.0  0.86917  0.26610  0.97538  1.0000
  H   H3907     1.0  0.95619  0.06653  0.54167  1.0000
  H   H3908     1.0  0.89376  0.28318  0.95084  1.0000
  C   C2272     1.0  0.99181  0.31517  0.98080  1.0000
  H   H3909     1.0  0.78164  0.05225  0.97394  1.0000
  S   S655      1.0  0.97027  0.03003  0.57376  1.0000
  C   C2273     1.0  0.90084  0.99726  0.52573  1.0000
  C   C2274     1.0  0.99226  0.31582  0.90900  1.0000
  H   H3910     1.0  0.98603  0.06775  0.55415  1.0000
  C   C2275     1.0  0.99135  0.29203  0.98166  1.0000
  H   H3911     1.0  0.91739  0.03707  0.53194  1.0000
  H   H3912     1.0  0.92555  0.04565  0.55178  1.0000
  C   C2276     1.0  0.89484  0.01567  0.51123  1.0000
  C   C2277     1.0  0.97075  0.06278  0.49688  1.0000
  C   C2278     1.0  0.90690  0.23962  0.96504  1.0000
  H   H3913     1.0  0.91408  0.25196  0.95320  1.0000
  H   H3914     1.0  0.94665  0.10794  0.53088  1.0000
  C   C2279     1.0  0.93706  0.99635  0.50851  1.0000
  C   C2280     1.0  0.76293  0.10369  0.97755  1.0000
  C   C2281     1.0  0.77515  0.08336  0.98062  1.0000
  H   H3915     1.0  0.95605  0.27829  0.94435  1.0000
  C   C2282     1.0  0.89331  0.29315  0.96186  1.0000
  H   H3916     1.0  0.96319  0.03407  0.53338  1.0000
  H   H3917     1.0  0.90309  0.30499  0.95328  1.0000
  H   H3918     1.0  0.96413  0.32528  0.83620  1.0000
  H   H3919     1.0  0.91900  0.27650  0.97728  1.0000
  C   C2283     1.0  0.98217  0.28189  0.91855  1.0000
  C   C2284     1.0  0.90609  0.24168  0.98756  1.0000
  S   S656      1.0  0.76788  0.12426  0.98680  1.0000
  H   H3920     1.0  0.95530  0.10433  0.50456  1.0000
  C   C2285     1.0  0.96256  0.30945  0.93740  1.0000
  C   C2286     1.0  0.93251  0.06934  0.50138  1.0000
  H   H3921     1.0  0.95426  0.02939  0.51270  1.0000
  C   C2287     1.0  0.93095  0.01418  0.49353  1.0000
  C   C2288     1.0  0.93040  0.03552  0.53994  1.0000
  H   H3922     1.0  0.97234  0.09407  0.52338  1.0000
  H   H3923     1.0  0.93280  0.32236  0.90751  1.0000
  C   C2289     1.0  0.97564  0.32302  0.92464  1.0000
  C   C2290     1.0  0.75566  0.07204  0.96058  1.0000
  C   C2291     1.0  0.77163  0.06770  0.97204  1.0000
  H   H3924     1.0  0.99063  0.05901  0.51976  1.0000
  C   C2292     1.0  0.90991  0.02405  0.49496  1.0000
  H   H3925     1.0  0.92551  0.10390  0.49649  1.0000
  H   H3926     1.0  0.93373  0.05804  0.49129  1.0000
  Fe  Fe328     1.0  0.97131  0.99584  0.57540  1.0000
  C   C2293     1.0  0.90163  0.28068  0.98188  1.0000
  C   C2294     1.0  0.74667  0.10794  0.96644  1.0000
  H   H3927     1.0  0.92258  0.24015  0.98878  1.0000
  H   H3928     1.0  0.78775  0.07987  0.98906  1.0000
  H   H3929     1.0  0.76704  0.34038  0.22305  1.0000
  H   H3930     1.0  0.90251  0.33003  0.07119  1.0000
  H   H3931     1.0  0.79290  0.35993  0.14459  1.0000
  C   C2295     1.0  0.77606  0.35485  0.17704  1.0000
  H   H3932     1.0  0.96474  0.59498  0.00600  1.0000
  H   H3933     1.0  0.83429  0.32956  0.08314  1.0000
  H   H3934     1.0  0.75633  0.39778  0.17876  1.0000
  H   H3935     1.0  0.76795  0.32636  0.08282  1.0000
  H   H3936     1.0  0.82243  0.49053  0.47750  1.0000
  C   C2296     1.0  0.86455  0.33849  0.00668  1.0000
  C   C2297     1.0  0.74356  0.37878  0.37170  1.0000
  H   H3937     1.0  0.76351  0.35067  0.09071  1.0000
  S   S657      1.0  0.84349  0.34787  0.14620  1.0000
  C   C2298     1.0  0.87861  0.48189  0.01077  1.0000
  Fe  Fe329     1.0  0.87416  0.34242  0.12373  1.0000
  S   S658      1.0  0.88618  0.36786  0.09786  1.0000
  H   H3938     1.0  0.81777  0.38697  0.02264  1.0000
  H   H3939     1.0  0.96573  0.34322  0.08299  1.0000
  C   C2299     1.0  0.85477  0.43019  0.99548  1.0000
  H   H3940     1.0  0.95371  0.33391  0.10983  1.0000
  Fe  Fe330     1.0  0.95419  0.44043  0.09811  1.0000
  S   S659      1.0  0.97334  0.42640  0.07084  1.0000
  S   S660      1.0  0.93974  0.41774  0.12537  1.0000
  Fe  Fe331     1.0  0.96631  0.48303  0.07863  1.0000
  S   S661      1.0  0.98628  0.47213  0.04957  1.0000
  S   S662      1.0  0.96545  0.51536  0.08334  1.0000
  Fe  Fe332     1.0  0.95999  0.45669  0.05120  1.0000
  S   S663      1.0  0.95240  0.45561  0.02092  1.0000
  H   H3941     1.0  0.76551  0.37224  0.40188  1.0000
  H   H3942     1.0  0.75717  0.36583  0.37430  1.0000
  S   S664      1.0  0.93867  0.46984  0.07843  1.0000
  C   C2300     1.0  0.98721  0.52516  0.06724  1.0000
  H   H3943     1.0  0.79504  0.35877  0.20478  1.0000
  H   H3944     1.0  0.83535  0.35462  0.08794  1.0000
  S   S665      1.0  0.86684  0.64464  0.48138  1.0000
  C   C2301     1.0  0.91554  0.51781  0.99044  1.0000
  C   C2302     1.0  0.75170  0.42661  0.38904  1.0000
  C   C2303     1.0  0.77071  0.43305  0.37254  1.0000
  H   H3945     1.0  0.77561  0.38117  0.05203  1.0000
  S   S666      1.0  0.78715  0.60815  0.46478  1.0000
  H   H3946     1.0  0.77416  0.40550  0.42115  1.0000
  H   H3947     1.0  0.89309  0.44432  0.03797  1.0000
  H   H3948     1.0  0.98959  0.38816  0.10090  1.0000
  C   C2304     1.0  0.79509  0.34104  0.07174  1.0000
  C   C2305     1.0  0.98910  0.37359  0.14979  1.0000
  C   C2306     1.0  0.77134  0.38989  0.42120  1.0000
  S   S667      1.0  0.83735  0.59884  0.48801  1.0000
  C   C2307     1.0  0.80398  0.39261  0.08127  1.0000
  C   C2308     1.0  0.78156  0.37216  0.20244  1.0000
  H   H3949     1.0  0.97451  0.51978  0.01888  1.0000
  C   C2309     1.0  0.87523  0.42764  0.00313  1.0000
  C   C2310     1.0  0.90375  0.43271  0.02898  1.0000
  H   H3950     1.0  0.75834  0.38569  0.43425  1.0000
  C   C2311     1.0  0.74540  0.33411  0.20849  1.0000
  H   H3951     1.0  0.86167  0.45687  0.02386  1.0000
  H   H3952     1.0  0.85505  0.34270  0.06878  1.0000
  H   H3953     1.0  0.79247  0.36398  0.03583  1.0000
  N   N166      1.0  0.95887  0.55054  0.00407  1.0000
  C   C2312     1.0  0.78607  0.36916  0.15714  1.0000
  H   H3954     1.0  0.86883  0.49737  0.00517  1.0000
  H   H3955     1.0  0.78786  0.38517  0.22628  1.0000
  C   C2313     1.0  0.77117  0.34251  0.07748  1.0000
  C   C2314     1.0  0.97102  0.56033  0.01379  1.0000
  H   H3956     1.0  0.95328  0.51907  0.00818  1.0000
  C   C2315     1.0  0.82839  0.34928  0.00297  1.0000
  H   H3957     1.0  0.79971  0.53674  0.47809  1.0000
  S   S668      1.0  0.74858  0.52910  0.46901  1.0000
  C   C2316     1.0  0.76744  0.38862  0.39998  1.0000
  H   H3958     1.0  0.83245  0.37102  0.05028  1.0000
  H   H3959     1.0  0.76935  0.43323  0.35634  1.0000
  C   C2317     1.0  0.82584  0.35679  0.05806  1.0000
  C   C2318     1.0  0.77485  0.58701  0.46662  1.0000
  C   C2319     1.0  0.77047  0.58386  0.44832  1.0000
  H   H3960     1.0  0.75929  0.56390  0.43453  1.0000
  H   H3961     1.0  0.79224  0.40155  0.02064  1.0000
  C   C2320     1.0  0.75687  0.55257  0.46788  1.0000
  H   H3962     1.0  0.80608  0.39327  0.09700  1.0000
  H   H3963     1.0  0.99048  0.43517  0.14257  1.0000
  H   H3964     1.0  0.97752  0.41475  0.15829  1.0000
  H   H3965     1.0  0.97539  0.37915  0.14189  1.0000
  N   N167      1.0  0.88482  0.44696  0.99755  1.0000
  H   H3966     1.0  0.79852  0.36178  0.09806  1.0000
  H   H3967     1.0  0.79746  0.50316  0.47100  1.0000
  H   H3968     1.0  0.76334  0.32932  0.12949  1.0000
  H   H3969     1.0  0.91555  0.42710  0.99761  1.0000
  C   C2321     1.0  0.86962  0.46393  0.00788  1.0000
  C   C2322     1.0  0.74896  0.38475  0.18934  1.0000
  H   H3970     1.0  0.85101  0.49688  0.48583  1.0000
  H   H3971     1.0  0.76324  0.40134  0.35999  1.0000
  C   C2323     1.0  0.76165  0.56668  0.44890  1.0000
  C   C2324     1.0  0.79527  0.37282  0.08321  1.0000
  C   C2325     1.0  0.81435  0.52498  0.47516  1.0000
  H   H3972     1.0  0.80110  0.33124  0.08582  1.0000
  H   H3973     1.0  0.97326  0.55755  0.06861  1.0000
  H   H3974     1.0  0.92147  0.33330  0.10022  1.0000
  H   H3975     1.0  0.92904  0.34633  0.07402  1.0000
  H   H3976     1.0  0.87990  0.34203  0.00410  1.0000
  H   H3977     1.0  0.99045  0.36088  0.11404  1.0000
  C   C2326     1.0  0.87038  0.51867  0.48357  1.0000
  C   C2327     1.0  0.90068  0.38192  0.10574  1.0000
  C   C2328     1.0  0.90351  0.37734  0.12651  1.0000
  C   C2329     1.0  0.91552  0.38839  0.13244  1.0000
  C   C2330     1.0  0.92468  0.40410  0.11767  1.0000
  C   C2331     1.0  0.92184  0.40869  0.09689  1.0000
  C   C2332     1.0  0.90988  0.39759  0.09094  1.0000
  H   H3978     1.0  0.89630  0.36544  0.13809  1.0000
  H   H3979     1.0  0.91756  0.38488  0.14856  1.0000
  H   H3980     1.0  0.92864  0.42095  0.08544  1.0000
  H   H3981     1.0  0.90772  0.40121  0.07487  1.0000
  H   H3982     1.0  0.74755  0.34334  0.26127  1.0000
  H   H3983     1.0  0.93014  0.56722  0.02081  1.0000
  H   H3984     1.0  0.94761  0.51015  0.04757  1.0000
  H   H3985     1.0  0.89900  0.41723  0.03477  1.0000
  H   H3986     1.0  0.76364  0.35000  0.06375  1.0000
  H   H3987     1.0  0.87145  0.42206  0.02047  1.0000
  H   H3988     1.0  0.97255  0.41660  0.99340  1.0000
  H   H3989     1.0  0.92768  0.53091  0.03832  1.0000
  H   H3990     1.0  0.77111  0.44949  0.37275  1.0000
  H   H3991     1.0  0.97861  0.34377  0.15727  1.0000
  H   H3992     1.0  0.92633  0.55205  0.00434  1.0000
  H   H3993     1.0  0.84757  0.54850  0.44789  1.0000
  H   H3994     1.0  0.87798  0.48098  0.02769  1.0000
  C   C2333     1.0  0.82471  0.32925  0.01388  1.0000
  C   C2334     1.0  0.83803  0.56005  0.45748  1.0000
  H   H3995     1.0  0.85691  0.47149  0.99888  1.0000
  H   H3996     1.0  0.94361  0.35930  0.09598  1.0000
  H   H3997     1.0  0.84305  0.44431  0.99911  1.0000
  N   N168      1.0  0.74915  0.40418  0.39234  1.0000
  H   H3998     1.0  0.76918  0.36870  0.23682  1.0000
  H   H3999     1.0  0.88434  0.50651  0.47919  1.0000
  H   H4000     1.0  0.81978  0.52859  0.45776  1.0000
  H   H4001     1.0  0.98567  0.54928  0.01726  1.0000
  H   H4002     1.0  0.77452  0.59444  0.43347  1.0000
  H   H4003     1.0  0.78572  0.42310  0.37605  1.0000
  C   C2335     1.0  0.93799  0.47956  0.00964  1.0000
  C   C2336     1.0  0.92384  0.49295  0.02205  1.0000
  C   C2337     1.0  0.91252  0.51207  0.01242  1.0000
  H   H4004     1.0  0.98039  0.38940  0.04401  1.0000
  H   H4005     1.0  0.91469  0.45266  0.99981  1.0000
  H   H4006     1.0  0.92154  0.48857  0.03900  1.0000
  H   H4007     1.0  0.94766  0.53665  0.04816  1.0000
  H   H4008     1.0  0.76189  0.39508  0.22181  1.0000
  H   H4009     1.0  0.76551  0.34775  0.17188  1.0000
  H   H4010     1.0  0.89470  0.48248  0.00213  1.0000
  H   H4011     1.0  0.79290  0.40712  0.07571  1.0000
  C   C2338     1.0  0.95067  0.34283  0.09418  1.0000
  S   S669      1.0  0.97946  0.45507  0.10115  1.0000
  H   H4012     1.0  0.78855  0.34127  0.18177  1.0000
  H   H4013     1.0  0.78212  0.38993  0.38810  1.0000
  H   H4014     1.0  0.82393  0.56813  0.45070  1.0000
  H   H4015     1.0  0.83041  0.34702  0.04587  1.0000
  C   C2339     1.0  0.95853  0.52843  0.01669  1.0000
  C   C2340     1.0  0.97703  0.58143  0.00163  1.0000
  H   H4016     1.0  0.84777  0.57178  0.45563  1.0000
  C   C2341     1.0  0.83803  0.34526  0.07569  1.0000
  H   H4017     1.0  0.75014  0.34759  0.28545  1.0000
  H   H4018     1.0  0.98817  0.41018  0.12178  1.0000
  H   H4019     1.0  0.81583  0.36116  0.99717  1.0000
  H   H4020     1.0  0.78816  0.38476  0.19025  1.0000
  H   H4021     1.0  0.91945  0.43041  0.03263  1.0000
  H   H4022     1.0  0.80137  0.33149  0.05926  1.0000
  H   H4023     1.0  0.75264  0.43054  0.40384  1.0000
  H   H4024     1.0  0.98326  0.37967  0.16462  1.0000
  C   C2342     1.0  0.83161  0.55029  0.48109  1.0000
  C   C2343     1.0  0.77435  0.38072  0.22301  1.0000
  N   N169      1.0  0.76508  0.36540  0.19538  1.0000
  C   C2344     1.0  0.84834  0.35388  0.99929  1.0000
  C   C2345     1.0  0.74820  0.40035  0.37138  1.0000
  H   H4025     1.0  0.77796  0.37794  0.08653  1.0000
  C   C2346     1.0  0.98683  0.54682  0.06213  1.0000
  H   H4026     1.0  0.85414  0.51454  0.46145  1.0000
  H   H4027     1.0  0.78559  0.37809  0.42454  1.0000
  H   H4028     1.0  0.90162  0.52250  0.02196  1.0000
  C   C2347     1.0  0.85108  0.51379  0.47869  1.0000
  H   H4029     1.0  0.98726  0.41965  0.02174  1.0000
  H   H4030     1.0  0.87375  0.53408  0.47418  1.0000
  C   C2348     1.0  0.94453  0.52670  0.03889  1.0000
  N   N170      1.0  0.80234  0.36178  0.06487  1.0000
  C   C2349     1.0  0.93649  0.56242  0.00533  1.0000
  C   C2350     1.0  0.79239  0.37440  0.04648  1.0000
  C   C2351     1.0  0.76944  0.57328  0.48573  1.0000
  C   C2352     1.0  0.80233  0.39276  0.03213  1.0000
  H   H4031     1.0  0.77440  0.38262  0.15087  1.0000
  C   C2353     1.0  0.93516  0.33403  0.08688  1.0000
  H   H4032     1.0  0.84751  0.41637  0.00363  1.0000
  H   H4033     1.0  0.96216  0.56319  0.02951  1.0000
  H   H4034     1.0  0.79911  0.37482  0.15978  1.0000
  H   H4035     1.0  0.80378  0.40414  0.04077  1.0000
  N   N171      1.0  0.83031  0.52739  0.48613  1.0000
  C   C2354     1.0  0.75530  0.35007  0.21364  1.0000
  C   C2355     1.0  0.90533  0.44022  0.00498  1.0000
  H   H4036     1.0  0.96986  0.34175  0.04998  1.0000
  S   S670      1.0  0.85577  0.32761  0.20283  1.0000
  Fe  Fe333     1.0  0.80296  0.61179  0.48975  1.0000
  C   C2356     1.0  0.98660  0.40464  0.99710  1.0000
  C   C2357     1.0  0.76035  0.55627  0.48635  1.0000
  H   H4037     1.0  0.81957  0.39280  0.07100  1.0000
  H   H4038     1.0  0.98078  0.39063  0.00726  1.0000
  H   H4039     1.0  0.99175  0.58263  0.00548  1.0000
  S   S671      1.0  0.74721  0.33710  0.42012  1.0000
  H   H4040     1.0  0.88655  0.41428  0.99684  1.0000
  H   H4041     1.0  0.81618  0.56014  0.48652  1.0000
  C   C2358     1.0  0.80857  0.50311  0.48081  1.0000
  H   H4042     1.0  0.94194  0.32691  0.04743  1.0000
  C   C2359     1.0  0.99294  0.41797  0.14908  1.0000
  C   C2360     1.0  0.99298  0.34933  0.15672  1.0000
  H   H4043     1.0  0.91546  0.59021  0.99235  1.0000
  S   S672      1.0  0.94790  0.56111  0.88666  1.0000
  H   H4044     1.0  0.79983  0.52418  0.53733  1.0000
  H   H4045     1.0  0.82074  0.64249  0.55871  1.0000
  H   H4046     1.0  0.78281  0.53712  0.77153  1.0000
  H   H4047     1.0  0.80239  0.54839  0.51952  1.0000
  C   C2361     1.0  0.94549  0.44001  0.94468  1.0000
  Fe  Fe334     1.0  0.92462  0.39608  0.95385  1.0000
  S   S673      1.0  0.89352  0.40786  0.94419  1.0000
  Fe  Fe335     1.0  0.92649  0.35098  0.95230  1.0000
  S   S674      1.0  0.89578  0.35857  0.94221  1.0000
  H   H4048     1.0  0.90134  0.47605  0.94691  1.0000
  Fe  Fe336     1.0  0.90711  0.38675  0.92087  1.0000
  S   S675      1.0  0.90419  0.39400  0.88711  1.0000
  Fe  Fe337     1.0  0.88476  0.37870  0.96640  1.0000
  H   H4049     1.0  0.97325  0.33882  0.92715  1.0000
  S   S676      1.0  0.93910  0.37732  0.92864  1.0000
  Fe  Fe338     1.0  0.82226  0.57437  0.81233  1.0000
  S   S677      1.0  0.83169  0.58843  0.77813  1.0000
  S   S678      1.0  0.84699  0.55303  0.82970  1.0000
  Fe  Fe339     1.0  0.80332  0.57928  0.77391  1.0000
  S   S679      1.0  0.80346  0.57002  0.74371  1.0000
  Fe  Fe340     1.0  0.80978  0.61775  0.78633  1.0000
  H   H4050     1.0  0.75049  0.60757  0.61020  1.0000
  H   H4051     1.0  0.81387  0.63303  0.65573  1.0000
  H   H4052     1.0  0.75302  0.63688  0.80257  1.0000
  H   H4053     1.0  0.84502  0.59601  0.83219  1.0000
  H   H4054     1.0  0.86357  0.65730  0.74440  1.0000
  H   H4055     1.0  0.74908  0.59461  0.76143  1.0000
  H   H4056     1.0  0.82866  0.63393  0.82848  1.0000
  H   H4057     1.0  0.76276  0.48887  0.50222  1.0000
  S   S680      1.0  0.84217  0.55387  0.53519  1.0000
  H   H4058     1.0  0.86301  0.61092  0.85138  1.0000
  C   C2362     1.0  0.88895  0.45376  0.97389  1.0000
  H   H4059     1.0  0.92501  0.34177  0.85020  1.0000
  Fe  Fe341     1.0  0.85002  0.57293  0.66060  1.0000
  S   S681      1.0  0.86109  0.53979  0.65542  1.0000
  S   S682      1.0  0.81714  0.59053  0.66785  1.0000
  Fe  Fe342     1.0  0.89309  0.57901  0.65810  1.0000
  S   S683      1.0  0.90856  0.54671  0.65275  1.0000
  S   S684      1.0  0.90947  0.60325  0.65983  1.0000
  Fe  Fe343     1.0  0.88644  0.55290  0.63081  1.0000
  S   S685      1.0  0.89956  0.54221  0.60027  1.0000
  Fe  Fe344     1.0  0.88209  0.53644  0.67784  1.0000
  S   S686      1.0  0.88810  0.50826  0.70379  1.0000
  S   S687      1.0  0.87340  0.58645  0.63382  1.0000
  S   S688      1.0  0.86860  0.56842  0.68524  1.0000
  H   H4060     1.0  0.75705  0.62762  0.58848  1.0000
  Fe  Fe345     1.0  0.94956  0.47889  0.81600  1.0000
  S   S689      1.0  0.95027  0.46793  0.78698  1.0000
  S   S690      1.0  0.92060  0.48427  0.84051  1.0000
  Fe  Fe346     1.0  0.96861  0.49311  0.77021  1.0000
  S   S691      1.0  0.96065  0.51845  0.74245  1.0000
  S   S692      1.0  0.96548  0.50556  0.79903  1.0000
  C   C2363     1.0  0.94065  0.51505  0.73183  1.0000
  C   C2364     1.0  0.92964  0.53253  0.71985  1.0000
  C   C2365     1.0  0.91375  0.53037  0.71100  1.0000
  C   C2366     1.0  0.90845  0.51072  0.71444  1.0000
  C   C2367     1.0  0.91918  0.49322  0.72674  1.0000
  C   C2368     1.0  0.93543  0.49535  0.73526  1.0000
  H   H4061     1.0  0.93324  0.54782  0.71753  1.0000
  H   H4062     1.0  0.90550  0.54397  0.70164  1.0000
  H   H4063     1.0  0.91523  0.47796  0.72933  1.0000
  H   H4064     1.0  0.94412  0.48167  0.74411  1.0000
  C   C2369     1.0  0.80058  0.58329  0.65595  1.0000
  C   C2370     1.0  0.80868  0.57182  0.63993  1.0000
  C   C2371     1.0  0.79505  0.56606  0.63065  1.0000
  H   H4065     1.0  0.90634  0.59185  0.51727  1.0000
  C   C2372     1.0  0.76541  0.58366  0.65311  1.0000
  C   C2373     1.0  0.77897  0.58954  0.66227  1.0000
  H   H4066     1.0  0.82541  0.56737  0.63468  1.0000
  H   H4067     1.0  0.80128  0.55681  0.61855  1.0000
  C   C2374     1.0  0.75507  0.47505  0.50797  1.0000
  H   H4068     1.0  0.77272  0.59867  0.67445  1.0000
  C   C2375     1.0  0.93153  0.36907  0.82715  1.0000
  H   H4069     1.0  0.95109  0.42201  0.89655  1.0000
  H   H4070     1.0  0.92819  0.57018  0.55304  1.0000
  C   C2376     1.0  0.85743  0.55116  0.55378  1.0000
  C   C2377     1.0  0.85200  0.56441  0.56832  1.0000
  C   C2378     1.0  0.86448  0.56148  0.58323  1.0000
  C   C2379     1.0  0.88264  0.54572  0.58308  1.0000
  C   C2380     1.0  0.88811  0.53281  0.56832  1.0000
  C   C2381     1.0  0.87537  0.53528  0.55396  1.0000
  H   H4071     1.0  0.83798  0.57655  0.56837  1.0000
  H   H4072     1.0  0.86023  0.57150  0.59462  1.0000
  H   H4073     1.0  0.90217  0.52068  0.56814  1.0000
  H   H4074     1.0  0.87961  0.52503  0.54278  1.0000
  H   H4075     1.0  0.93978  0.61949  0.85334  1.0000
  H   H4076     1.0  0.95525  0.44107  0.87196  1.0000
  S   S693      1.0  0.97889  0.45677  0.82343  1.0000
  C   C2382     1.0  0.94365  0.60543  0.60060  1.0000
  C   C2383     1.0  0.93361  0.59791  0.62125  1.0000
  C   C2384     1.0  0.92230  0.61213  0.63419  1.0000
  C   C2385     1.0  0.92074  0.63368  0.62643  1.0000
  C   C2386     1.0  0.93022  0.64111  0.60573  1.0000
  H   H4077     1.0  0.93473  0.58116  0.62715  1.0000
  H   H4078     1.0  0.91169  0.64473  0.63614  1.0000
  C   C2387     1.0  0.93633  0.59987  0.72098  1.0000
  C   C2388     1.0  0.97394  0.64156  0.88067  1.0000
  H   H4079     1.0  0.82210  0.61609  0.86302  1.0000
  C   C2389     1.0  0.78334  0.55859  0.74160  1.0000
  C   C2390     1.0  0.77571  0.56440  0.72283  1.0000
  C   C2391     1.0  0.96211  0.47037  0.93384  1.0000
  H   H4080     1.0  0.78129  0.57678  0.71043  1.0000
  H   H4081     1.0  0.80042  0.49931  0.49744  1.0000
  C   C2392     1.0  0.84984  0.65383  0.71905  1.0000
  S   S694      1.0  0.94310  0.41566  0.96171  1.0000
  H   H4082     1.0  0.83020  0.65842  0.80977  1.0000
  S   S695      1.0  0.80250  0.60448  0.82096  1.0000
  S   S696      1.0  0.78246  0.60988  0.77908  1.0000
  H   H4083     1.0  0.91535  0.61044  0.83430  1.0000
  H   H4084     1.0  0.93069  0.60200  0.52766  1.0000
  C   C2393     1.0  0.79811  0.62497  0.61204  1.0000
  C   C2394     1.0  0.93271  0.33632  0.89436  1.0000
  H   H4085     1.0  0.96699  0.62807  0.89075  1.0000
  H   H4086     1.0  0.95479  0.39817  0.84418  1.0000
  H   H4087     1.0  0.95130  0.57043  0.83483  1.0000
  C   C2395     1.0  0.80903  0.62868  0.86821  1.0000
  S   S697      1.0  0.75646  0.56180  0.62837  1.0000
  H   H4088     1.0  0.93691  0.38392  0.82478  1.0000
  S   S698      1.0  0.98078  0.58383  0.91253  1.0000
  C   C2396     1.0  0.90668  0.41974  0.87422  1.0000
  C   C2397     1.0  0.91360  0.42406  0.85237  1.0000
  C   C2398     1.0  0.91786  0.44392  0.84199  1.0000
  C   C2399     1.0  0.91425  0.45982  0.85330  1.0000
  C   C2400     1.0  0.90635  0.45584  0.87499  1.0000
  C   C2401     1.0  0.90294  0.43568  0.88552  1.0000
  H   H4089     1.0  0.91626  0.41186  0.84357  1.0000
  H   H4090     1.0  0.92386  0.44694  0.82522  1.0000
  H   H4091     1.0  0.90345  0.46817  0.88373  1.0000
  H   H4092     1.0  0.89735  0.43256  0.90232  1.0000
  H   H4093     1.0  0.93881  0.62827  0.87665  1.0000
  S   S699      1.0  0.95215  0.63726  0.56653  1.0000
  S   S700      1.0  0.98418  0.63468  0.97959  1.0000
  H   H4094     1.0  0.93524  0.34919  0.90046  1.0000
  Fe  Fe347     1.0  0.95288  0.56999  0.91494  1.0000
  C   C2402     1.0  0.87981  0.58103  0.86512  1.0000
  C   C2403     1.0  0.88382  0.55927  0.86642  1.0000
  C   C2404     1.0  0.87373  0.55079  0.85544  1.0000
  C   C2405     1.0  0.85947  0.56399  0.84328  1.0000
  C   C2406     1.0  0.85567  0.58573  0.84182  1.0000
  C   C2407     1.0  0.86581  0.59417  0.85271  1.0000
  H   H4095     1.0  0.89473  0.54896  0.87578  1.0000
  H   H4096     1.0  0.87690  0.53392  0.85651  1.0000
  C   C2408     1.0  0.94160  0.62714  0.59275  1.0000
  H   H4097     1.0  0.74492  0.43955  0.53638  1.0000
  C   C2409     1.0  0.95282  0.47750  0.91621  1.0000
  Fe  Fe348     1.0  0.82824  0.58727  0.52271  1.0000
  H   H4098     1.0  0.93837  0.56515  0.67599  1.0000
  S   S701      1.0  0.79555  0.56255  0.80754  1.0000
  H   H4099     1.0  0.92864  0.65773  0.59974  1.0000
  H   H4100     1.0  0.98060  0.57924  0.65942  1.0000
  H   H4101     1.0  0.81616  0.63245  0.71389  1.0000
  H   H4102     1.0  0.95079  0.53489  0.82937  1.0000
  C   C2410     1.0  0.98236  0.57480  0.72081  1.0000
  C   C2411     1.0  0.80086  0.64477  0.64956  1.0000
  H   H4103     1.0  0.98073  0.58291  0.98444  1.0000
  S   S702      1.0  0.91897  0.58277  0.92614  1.0000
  H   H4104     1.0  0.76435  0.46330  0.51876  1.0000
  Fe  Fe349     1.0  0.91366  0.57121  0.89945  1.0000
  H   H4105     1.0  0.78631  0.62153  0.62653  1.0000
  C   C2412     1.0  0.87647  0.63312  0.57751  1.0000
  N   N172      1.0  0.81199  0.50481  0.69877  1.0000
  C   C2413     1.0  0.80285  0.52139  0.68172  1.0000
  C   C2414     1.0  0.81434  0.51598  0.71468  1.0000
  C   C2415     1.0  0.79668  0.49029  0.70889  1.0000
  C   C2416     1.0  0.83264  0.49301  0.68860  1.0000
  C   C2417     1.0  0.79719  0.51306  0.66479  1.0000
  C   C2418     1.0  0.82894  0.53189  0.70656  1.0000
  C   C2419     1.0  0.79739  0.47822  0.73166  1.0000
  C   C2420     1.0  0.84629  0.47711  0.70324  1.0000
  H   H4106     1.0  0.78839  0.53169  0.68870  1.0000
  H   H4107     1.0  0.81382  0.53207  0.67300  1.0000
  H   H4108     1.0  0.81994  0.50494  0.72840  1.0000
  H   H4109     1.0  0.79884  0.52448  0.72150  1.0000
  H   H4110     1.0  0.78023  0.49928  0.70953  1.0000
  H   H4111     1.0  0.79854  0.47833  0.69930  1.0000
  H   H4112     1.0  0.83015  0.48382  0.67806  1.0000
  H   H4113     1.0  0.84244  0.50391  0.67768  1.0000
  H   H4114     1.0  0.81134  0.50550  0.65472  1.0000
  H   H4115     1.0  0.78617  0.50216  0.67152  1.0000
  H   H4116     1.0  0.78914  0.52652  0.65427  1.0000
  H   H4117     1.0  0.82253  0.54593  0.69545  1.0000
  H   H4118     1.0  0.83049  0.53779  0.72004  1.0000
  H   H4119     1.0  0.84485  0.52448  0.69947  1.0000
  H   H4120     1.0  0.79102  0.48902  0.74291  1.0000
  H   H4121     1.0  0.81324  0.46957  0.73372  1.0000
  H   H4122     1.0  0.78712  0.46650  0.73603  1.0000
  H   H4123     1.0  0.84182  0.46148  0.70755  1.0000
  H   H4124     1.0  0.84625  0.48240  0.71757  1.0000
  H   H4125     1.0  0.86292  0.47529  0.69490  1.0000
  N   N173      1.0  0.86251  0.63281  0.71490  1.0000
  H   H4126     1.0  0.83589  0.52271  0.51758  1.0000
  C   C2421     1.0  0.86680  0.61868  0.73544  1.0000
  C   C2422     1.0  0.81736  0.64636  0.87247  1.0000
  S   S703      1.0  0.80598  0.64302  0.49461  1.0000
  H   H4127     1.0  0.94643  0.65438  0.64808  1.0000
  H   H4128     1.0  0.87421  0.45764  0.96788  1.0000
  C   C2423     1.0  0.82426  0.52038  0.50968  1.0000
  N   N174      1.0  0.80723  0.65350  0.62640  1.0000
  C   C2424     1.0  0.84503  0.65210  0.62969  1.0000
  H   H4129     1.0  0.93496  0.62031  0.54030  1.0000
  H   H4130     1.0  0.86190  0.58795  0.73329  1.0000
  C   C2425     1.0  0.97162  0.56485  0.79393  1.0000
  C   C2426     1.0  0.91927  0.63404  0.51435  1.0000
  H   H4131     1.0  0.95581  0.59592  0.65778  1.0000
  S   S704      1.0  0.77900  0.64855  0.55122  1.0000
  H   H4132     1.0  0.91470  0.64993  0.51819  1.0000
  H   H4133     1.0  0.97460  0.42586  0.91444  1.0000
  H   H4134     1.0  0.91507  0.37374  0.82495  1.0000
  H   H4135     1.0  0.85281  0.62044  0.74833  1.0000
  C   C2427     1.0  0.84105  0.65683  0.83849  1.0000
  S   S705      1.0  0.95957  0.49948  0.89720  1.0000
  H   H4136     1.0  0.96641  0.44580  0.96111  1.0000
  H   H4137     1.0  0.75650  0.54557  0.50115  1.0000
  H   H4138     1.0  0.79927  0.62155  0.88299  1.0000
  S   S706      1.0  0.92606  0.64628  0.75275  1.0000
  H   H4139     1.0  0.96486  0.55845  0.70969  1.0000
  C   C2428     1.0  0.93657  0.60072  0.80588  1.0000
  H   H4140     1.0  0.78056  0.64752  0.80591  1.0000
  C   C2429     1.0  0.98126  0.41336  0.87511  1.0000
  H   H4141     1.0  0.76469  0.58834  0.58457  1.0000
  C   C2430     1.0  0.92920  0.50406  0.97819  1.0000
  H   H4142     1.0  0.88044  0.62118  0.59149  1.0000
  C   C2431     1.0  0.98803  0.41366  0.90933  1.0000
  H   H4143     1.0  0.96545  0.62062  0.67149  1.0000
  H   H4144     1.0  0.90766  0.63148  0.50661  1.0000
  H   H4145     1.0  0.94773  0.60725  0.94048  1.0000
  C   C2432     1.0  0.93572  0.44734  0.92732  1.0000
  H   H4146     1.0  0.79543  0.65260  0.68024  1.0000
  H   H4147     1.0  0.89915  0.57447  0.54243  1.0000
  S   S707      1.0  0.90956  0.53920  0.91860  1.0000
  N   N175      1.0  0.95268  0.34813  0.85628  1.0000
  H   H4148     1.0  0.82463  0.50315  0.51419  1.0000
  H   H4149     1.0  0.90745  0.63896  0.56303  1.0000
  N   N176      1.0  0.96363  0.58888  0.68868  1.0000
  H   H4150     1.0  0.74715  0.43822  0.50109  1.0000
  H   H4151     1.0  0.88849  0.48777  0.96881  1.0000
  H   H4152     1.0  0.82619  0.60474  0.71418  1.0000
  H   H4153     1.0  0.78854  0.63546  0.65241  1.0000
  C   C2433     1.0  0.94093  0.59528  0.69870  1.0000
  S   S708      1.0  0.95251  0.53784  0.93486  1.0000
  H   H4154     1.0  0.88835  0.59191  0.72253  1.0000
  C   C2434     1.0  0.77667  0.54203  0.75722  1.0000
  S   S709      1.0  0.89280  0.59259  0.87767  1.0000
  C   C2435     1.0  0.94048  0.48509  0.98778  1.0000
  H   H4155     1.0  0.87889  0.58653  0.75037  1.0000
  H   H4156     1.0  0.88038  0.58730  0.52645  1.0000
  C   C2436     1.0  0.87445  0.59499  0.73510  1.0000
  H   H4157     1.0  0.95828  0.55944  0.65422  1.0000
  H   H4158     1.0  0.83173  0.63826  0.87880  1.0000
  H   H4159     1.0  0.85328  0.63923  0.81333  1.0000
  N   N177      1.0  0.90397  0.61327  0.55084  1.0000
  H   H4160     1.0  0.90811  0.57749  0.77728  1.0000
  H   H4161     1.0  0.75564  0.46894  0.49392  1.0000
  H   H4162     1.0  0.87406  0.64590  0.66932  1.0000
  S   S710      1.0  0.83353  0.61547  0.53107  1.0000
  H   H4163     1.0  0.93202  0.58302  0.70013  1.0000
  C   C2437     1.0  0.80276  0.53157  0.52033  1.0000
  H   H4164     1.0  0.94955  0.62810  0.96569  1.0000
  C   C2438     1.0  0.98115  0.59850  0.93089  1.0000
  H   H4165     1.0  0.97591  0.55565  0.80900  1.0000
  C   C2439     1.0  0.81503  0.63499  0.61542  1.0000
  H   H4166     1.0  0.91383  0.60315  0.58099  1.0000
  C   C2440     1.0  0.92298  0.61656  0.53377  1.0000
  H   H4167     1.0  0.96852  0.56436  0.97083  1.0000
  H   H4168     1.0  0.96119  0.65578  0.88151  1.0000
  H   H4169     1.0  0.83472  0.65188  0.72997  1.0000
  Fe  Fe350     1.0  0.94426  0.52992  0.90793  1.0000
  H   H4170     1.0  0.94034  0.36023  0.81466  1.0000
  H   H4171     1.0  0.95253  0.59451  0.59062  1.0000
  C   C2441     1.0  0.89505  0.63364  0.55855  1.0000
  H   H4172     1.0  0.82808  0.61568  0.73488  1.0000
  H   H4173     1.0  0.86249  0.63052  0.57344  1.0000
  H   H4174     1.0  0.79008  0.63502  0.59933  1.0000
  H   H4175     1.0  0.82478  0.63949  0.59958  1.0000
  H   H4176     1.0  0.84681  0.63451  0.68984  1.0000
  N   N178      1.0  0.93315  0.57847  0.81025  1.0000
  C   C2442     1.0  0.76149  0.55380  0.71971  1.0000
  H   H4177     1.0  0.96343  0.54863  0.67998  1.0000
  C   C2443     1.0  0.94825  0.56712  0.79406  1.0000
  C   C2444     1.0  0.91123  0.57814  0.80900  1.0000
  C   C2445     1.0  0.93708  0.54395  0.83856  1.0000
  H   H4178     1.0  0.91931  0.60595  0.72561  1.0000
  Fe  Fe351     1.0  0.98128  0.44803  0.79261  1.0000
  C   C2446     1.0  0.90459  0.58893  0.78773  1.0000
  H   H4179     1.0  0.94403  0.58512  0.55922  1.0000
  C   C2447     1.0  0.95798  0.42412  0.87953  1.0000
  H   H4180     1.0  0.89921  0.44062  0.96653  1.0000
  H   H4181     1.0  0.97116  0.35918  0.87193  1.0000
  S   S711      1.0  0.97425  0.63127  0.77629  1.0000
  H   H4182     1.0  0.94596  0.57538  0.77792  1.0000
  H   H4183     1.0  0.90884  0.56173  0.81223  1.0000
  H   H4184     1.0  0.89952  0.58487  0.82169  1.0000
  H   H4185     1.0  0.92041  0.36490  0.86036  1.0000
  H   H4186     1.0  0.93123  0.56705  0.57939  1.0000
  H   H4187     1.0  0.92403  0.57517  0.84408  1.0000
  H   H4188     1.0  0.95126  0.47471  0.97824  1.0000
  S   S712      1.0  0.90283  0.54236  0.97829  1.0000
  H   H4189     1.0  0.95124  0.60098  0.81053  1.0000
  C   C2448     1.0  0.89407  0.58932  0.53162  1.0000
  H   H4190     1.0  0.92258  0.53974  0.83746  1.0000
  C   C2449     1.0  0.96654  0.38323  0.84422  1.0000
  H   H4191     1.0  0.94031  0.58530  0.73272  1.0000
  H   H4192     1.0  0.91213  0.60240  0.77924  1.0000
  H   H4193     1.0  0.88750  0.59554  0.79063  1.0000
  C   C2450     1.0  0.82905  0.61902  0.71769  1.0000
  N   N179      1.0  0.88057  0.50965  0.78919  1.0000
  C   C2451     1.0  0.89176  0.52253  0.79652  1.0000
  C   C2452     1.0  0.86065  0.50725  0.80516  1.0000
  C   C2453     1.0  0.87569  0.52160  0.76797  1.0000
  C   C2454     1.0  0.89498  0.48868  0.78747  1.0000
  C   C2455     1.0  0.91200  0.52795  0.78148  1.0000
  C   C2456     1.0  0.86318  0.49654  0.82793  1.0000
  C   C2457     1.0  0.85588  0.51890  0.76214  1.0000
  C   C2458     1.0  0.88597  0.47217  0.78220  1.0000
  H   H4194     1.0  0.88119  0.53766  0.79938  1.0000
  H   H4195     1.0  0.89639  0.51430  0.81176  1.0000
  H   H4196     1.0  0.85151  0.49807  0.80062  1.0000
  H   H4197     1.0  0.85020  0.52294  0.80573  1.0000
  H   H4198     1.0  0.87342  0.53892  0.76666  1.0000
  H   H4199     1.0  0.88912  0.51776  0.75508  1.0000
  H   H4200     1.0  0.90905  0.49071  0.77496  1.0000
  H   H4201     1.0  0.90096  0.48144  0.80227  1.0000
  H   H4202     1.0  0.92446  0.51372  0.78013  1.0000
  H   H4203     1.0  0.90945  0.53662  0.76561  1.0000
  H   H4204     1.0  0.91817  0.53813  0.78809  1.0000
  H   H4205     1.0  0.86892  0.50641  0.83539  1.0000
  H   H4206     1.0  0.84758  0.49446  0.83765  1.0000
  H   H4207     1.0  0.87344  0.48070  0.82896  1.0000
  H   H4208     1.0  0.84151  0.52732  0.77128  1.0000
  H   H4209     1.0  0.85474  0.50231  0.76433  1.0000
  H   H4210     1.0  0.85607  0.52616  0.74525  1.0000
  H   H4211     1.0  0.87223  0.46797  0.79420  1.0000
  H   H4212     1.0  0.89811  0.45749  0.78196  1.0000
  H   H4213     1.0  0.88220  0.47730  0.76630  1.0000
  H   H4214     1.0  0.98113  0.55612  0.78153  1.0000
  H   H4215     1.0  0.96999  0.38002  0.82828  1.0000
  C   C2459     1.0  0.95888  0.36563  0.86224  1.0000
  H   H4216     1.0  0.95256  0.65421  0.84832  1.0000
  H   H4217     1.0  0.86868  0.51843  0.50051  1.0000
  H   H4218     1.0  0.97747  0.59113  0.72326  1.0000
  H   H4219     1.0  0.74358  0.57570  0.58511  1.0000
  H   H4220     1.0  0.74875  0.58869  0.65786  1.0000
  H   H4221     1.0  0.93856  0.53842  0.85531  1.0000
  C   C2460     1.0  0.96275  0.60851  0.94252  1.0000
  S   S713      1.0  0.93569  0.65393  0.69211  1.0000
  C   C2461     1.0  0.75236  0.58825  0.57633  1.0000
  H   H4222     1.0  0.91450  0.47109  0.96800  1.0000
  H   H4223     1.0  0.80641  0.65221  0.88618  1.0000
  H   H4224     1.0  0.98144  0.39617  0.87991  1.0000
  S   S714      1.0  0.81714  0.65000  0.77299  1.0000
  H   H4225     1.0  0.89854  0.65023  0.67020  1.0000
  C   C2462     1.0  0.93965  0.46593  0.91292  1.0000
  S   S715      1.0  0.91462  0.36880  0.97847  1.0000
  H   H4226     1.0  0.88046  0.62199  0.53154  1.0000
  H   H4227     1.0  0.94915  0.41667  0.87259  1.0000
  H   H4228     1.0  0.82550  0.62200  0.62421  1.0000
  H   H4229     1.0  0.74498  0.65280  0.60777  1.0000
  H   H4230     1.0  0.89200  0.61970  0.69668  1.0000
  H   H4231     1.0  0.93081  0.50779  0.96131  1.0000
  Fe  Fe352     1.0  0.95247  0.65688  0.75896  1.0000
  H   H4232     1.0  0.93416  0.63390  0.50256  1.0000
  C   C2463     1.0  0.99123  0.65732  0.84587  1.0000
  H   H4233     1.0  0.80572  0.60985  0.60691  1.0000
  H   H4234     1.0  0.92560  0.43847  0.92466  1.0000
  H   H4235     1.0  0.85324  0.64581  0.84659  1.0000
  C   C2464     1.0  0.91009  0.59626  0.56926  1.0000
  H   H4236     1.0  0.97623  0.58039  0.79009  1.0000
  H   H4237     1.0  0.89681  0.58841  0.57806  1.0000
  H   H4238     1.0  0.94559  0.37365  0.87289  1.0000
  H   H4239     1.0  0.93265  0.47127  0.89913  1.0000
  H   H4240     1.0  0.94521  0.55113  0.79589  1.0000
  H   H4241     1.0  0.78978  0.53005  0.51383  1.0000
  C   C2465     1.0  0.94962  0.62221  0.86304  1.0000
  H   H4242     1.0  0.75604  0.55826  0.70506  1.0000
  S   S716      1.0  0.98918  0.41364  0.79156  1.0000
  H   H4243     1.0  0.85995  0.60915  0.69908  1.0000
  H   H4244     1.0  0.85785  0.43031  0.97838  1.0000
  H   H4245     1.0  0.87888  0.62351  0.74088  1.0000
  C   C2466     1.0  0.89891  0.47327  0.96432  1.0000
  C   C2467     1.0  0.76295  0.53102  0.75384  1.0000
  H   H4246     1.0  0.93332  0.60955  0.68848  1.0000
  Fe  Fe353     1.0  0.79991  0.62842  0.52902  1.0000
  C   C2468     1.0  0.88324  0.63511  0.70045  1.0000
  C   C2469     1.0  0.96907  0.33861  0.83949  1.0000
  Fe  Fe354     1.0  0.77666  0.59417  0.81315  1.0000
  H   H4247     1.0  0.97804  0.45168  0.88298  1.0000
  C   C2470     1.0  0.88730  0.60813  0.54270  1.0000
  C   C2471     1.0  0.95864  0.45157  0.94787  1.0000
  H   H4248     1.0  0.98122  0.38612  0.84652  1.0000
  H   H4249     1.0  0.90458  0.61995  0.81066  1.0000
  C   C2472     1.0  0.98320  0.62193  0.95975  1.0000
  H   H4250     1.0  0.88930  0.64651  0.54594  1.0000
  H   H4251     1.0  0.97241  0.47909  0.93640  1.0000
  C   C2473     1.0  0.93652  0.56791  0.83221  1.0000
  H   H4252     1.0  0.84200  0.55333  0.49007  1.0000
  C   C2474     1.0  0.88232  0.65060  0.67920  1.0000
  Fe  Fe355     1.0  0.91803  0.54969  0.94410  1.0000
  H   H4253     1.0  0.87399  0.60450  0.55573  1.0000
  C   C2475     1.0  0.91904  0.61630  0.81706  1.0000
  H   H4254     1.0  0.94418  0.61219  0.72186  1.0000
  C   C2476     1.0  0.77342  0.57140  0.63777  1.0000
  C   C2477     1.0  0.92944  0.57876  0.56459  1.0000
  C   C2478     1.0  0.96380  0.62044  0.95668  1.0000
  H   H4255     1.0  0.75851  0.51773  0.76569  1.0000
  S   S717      1.0  0.79377  0.59862  0.52421  1.0000
  C   C2479     1.0  0.93188  0.35552  0.84943  1.0000
  H   H4256     1.0  0.97094  0.34973  0.82416  1.0000
  C   C2480     1.0  0.85041  0.62363  0.70458  1.0000
  Fe  Fe356     1.0  0.83947  0.62847  0.49650  1.0000
  C   C2481     1.0  0.99118  0.33034  0.84445  1.0000
  H   H4257     1.0  0.93915  0.60768  0.78874  1.0000
  H   H4258     1.0  0.92426  0.63142  0.81426  1.0000
  C   C2482     1.0  0.74369  0.62288  0.60085  1.0000
  H   H4259     1.0  0.89355  0.63995  0.70822  1.0000
  C   C2483     1.0  0.95551  0.56286  0.67018  1.0000
  C   C2484     1.0  0.75523  0.53687  0.73512  1.0000
  C   C2485     1.0  0.96428  0.58266  0.66832  1.0000
  H   H4260     1.0  0.77240  0.57570  0.49998  1.0000
  H   H4261     1.0  0.98717  0.59929  0.84190  1.0000
  H   H4262     1.0  0.94173  0.59367  0.98709  1.0000
  H   H4263     1.0  0.96771  0.63534  0.83353  1.0000
  H   H4264     1.0  0.97641  0.56450  0.73584  1.0000
  H   H4265     1.0  0.98652  0.65799  0.81396  1.0000
  C   C2486     1.0  0.96890  0.54878  0.98163  1.0000
  H   H4266     1.0  0.93405  0.57818  0.97271  1.0000
  H   H4267     1.0  0.95923  0.60683  0.86902  1.0000
  C   C2487     1.0  0.83780  0.64644  0.82181  1.0000
  H   H4268     1.0  0.79858  0.63407  0.85677  1.0000
  C   C2488     1.0  0.97354  0.60797  0.68286  1.0000
  H   H4269     1.0  0.85180  0.63791  0.62276  1.0000
  H   H4270     1.0  0.84234  0.64754  0.64709  1.0000
  N   N180      1.0  0.98179  0.63855  0.85821  1.0000
  H   H4271     1.0  0.98304  0.64408  0.90872  1.0000
  H   H4272     1.0  0.87209  0.64870  0.58213  1.0000
  H   H4273     1.0  0.76053  0.58371  0.56109  1.0000
  C   C2489     1.0  0.96310  0.63838  0.84976  1.0000
  C   C2490     1.0  0.97488  0.57035  0.70258  1.0000
  H   H4274     1.0  0.74801  0.62022  0.56032  1.0000
  H   H4275     1.0  0.97139  0.61542  0.69643  1.0000
  H   H4276     1.0  0.98189  0.39884  0.91367  1.0000
  C   C2491     1.0  0.93207  0.58224  0.98826  1.0000
  H   H4277     1.0  0.91691  0.34043  0.89054  1.0000
  C   C2492     1.0  0.81297  0.65855  0.55918  1.0000
  C   C2493     1.0  0.99043  0.64348  0.89204  1.0000
  H   H4278     1.0  0.98897  0.56201  0.69292  1.0000
  H   H4279     1.0  0.98935  0.53265  0.89395  1.0000
  H   H4280     1.0  0.95977  0.54072  0.97554  1.0000
  H   H4281     1.0  0.98684  0.41660  0.85768  1.0000
  C   C2494     1.0  0.99188  0.53699  0.97811  1.0000
  C   C2495     1.0  0.95019  0.33073  0.87558  1.0000
  H   H4282     1.0  0.98882  0.53130  0.85947  1.0000
  S   S718      1.0  0.85257  0.37925  0.98665  1.0000
  H   H4283     1.0  0.74328  0.46645  0.55825  1.0000
  S   S719      1.0  0.74363  0.59915  0.83154  1.0000
  C   C2496     1.0  0.93726  0.99128  0.24154  1.0000
  H   H4284     1.0  0.82750  0.97654  0.25669  1.0000
  C   C2497     1.0  0.91717  0.79946  0.45977  1.0000
  H   H4285     1.0  0.80780  0.94140  0.21588  1.0000
  Fe  Fe357     1.0  0.97484  0.98689  0.27185  1.0000
  C   C2498     1.0  0.95242  0.96515  0.46555  1.0000
  H   H4286     1.0  0.85409  0.96793  0.24297  1.0000
  N   N181      1.0  0.89088  0.98292  0.43821  1.0000
  H   H4287     1.0  0.91704  0.96199  0.42328  1.0000
  C   C2499     1.0  0.87176  0.95602  0.43242  1.0000
  H   H4288     1.0  0.91274  0.95069  0.28642  1.0000
  C   C2500     1.0  0.90324  0.98298  0.45410  1.0000
  H   H4289     1.0  0.95246  0.88679  0.38491  1.0000
  H   H4290     1.0  0.82704  0.76024  0.45204  1.0000
  H   H4291     1.0  0.83620  0.68681  0.44203  1.0000
  Fe  Fe358     1.0  0.93453  0.90094  0.46718  1.0000
  Fe  Fe359     1.0  0.94429  0.85600  0.46099  1.0000
  S   S720      1.0  0.91287  0.85846  0.45410  1.0000
  S   S721      1.0  0.96497  0.82405  0.46428  1.0000
  C   C2501     1.0  0.83616  0.69110  0.45700  1.0000
  S   S722      1.0  0.90203  0.90700  0.46138  1.0000
  H   H4292     1.0  0.96907  0.83976  0.39624  1.0000
  H   H4293     1.0  0.99132  0.90944  0.46446  1.0000
  Fe  Fe360     1.0  0.91763  0.89018  0.43484  1.0000
  S   S723      1.0  0.90939  0.90217  0.40292  1.0000
  S   S724      1.0  0.95049  0.88622  0.43921  1.0000
  H   H4294     1.0  0.80294  0.77532  0.46228  1.0000
  C   C2502     1.0  0.85059  0.98044  0.30037  1.0000
  H   H4295     1.0  0.89904  0.97536  0.40689  1.0000
  H   H4296     1.0  0.91336  0.98627  0.32169  1.0000
  H   H4297     1.0  0.92952  0.98932  0.39216  1.0000
  H   H4298     1.0  0.94386  0.78694  0.48920  1.0000
  C   C2503     1.0  0.84414  0.95769  0.20983  1.0000
  H   H4299     1.0  0.99038  0.93799  0.47991  1.0000
  H   H4300     1.0  0.94589  0.97787  0.25083  1.0000
  H   H4301     1.0  0.80386  0.75920  0.44394  1.0000
  H   H4302     1.0  0.85049  0.82827  0.46874  1.0000
  H   H4303     1.0  0.80656  0.71278  0.45610  1.0000
  H   H4304     1.0  0.86067  0.94560  0.44149  1.0000
  C   C2504     1.0  0.81020  0.75999  0.45744  1.0000
  H   H4305     1.0  0.94462  0.96712  0.48133  1.0000
  H   H4306     1.0  0.86875  0.85477  0.47210  1.0000
  S   S725      1.0  0.95839  0.96287  0.29562  1.0000
  N   N182      1.0  0.82712  0.97676  0.21296  1.0000
  C   C2505     1.0  0.84064  0.98133  0.24412  1.0000
  H   H4307     1.0  0.87882  0.97708  0.48293  1.0000
  H   H4308     1.0  0.82999  0.67882  0.46989  1.0000
  H   H4309     1.0  0.93728  0.88670  0.35735  1.0000
  H   H4310     1.0  0.83434  0.98499  0.29756  1.0000
  H   H4311     1.0  0.87284  0.96937  0.20700  1.0000
  Fe  Fe361     1.0  0.97168  0.97191  0.31870  1.0000
  Fe  Fe362     1.0  0.98961  0.94065  0.29044  1.0000
  H   H4312     1.0  0.78996  0.73923  0.47568  1.0000
  S   S726      1.0  0.93157  0.87022  0.48956  1.0000
  C   C2506     1.0  0.84287  0.72488  0.47661  1.0000
  H   H4313     1.0  0.89679  0.81324  0.48529  1.0000
  H   H4314     1.0  0.93325  0.80020  0.46007  1.0000
  H   H4315     1.0  0.84954  0.97287  0.31721  1.0000
  N   N183      1.0  0.97970  0.87825  0.36100  1.0000
  C   C2507     1.0  0.82244  0.71316  0.45784  1.0000
  C   C2508     1.0  0.96379  0.94381  0.43899  1.0000
  H   H4316     1.0  0.94896  0.90532  0.33550  1.0000
  H   H4317     1.0  0.96503  0.92922  0.43421  1.0000
  C   C2509     1.0  0.92186  0.92285  0.38831  1.0000
  C   C2510     1.0  0.92101  0.93038  0.36701  1.0000
  C   C2511     1.0  0.93153  0.94647  0.35506  1.0000
  C   C2512     1.0  0.94229  0.95555  0.36459  1.0000
  C   C2513     1.0  0.94331  0.94785  0.38582  1.0000
  C   C2514     1.0  0.93319  0.93147  0.39764  1.0000
  H   H4318     1.0  0.91233  0.92365  0.35972  1.0000
  H   H4319     1.0  0.93098  0.95210  0.33861  1.0000
  H   H4320     1.0  0.95194  0.95458  0.39312  1.0000
  H   H4321     1.0  0.93390  0.92579  0.41407  1.0000
  C   C2515     1.0  0.94851  0.88846  0.34209  1.0000
  H   H4322     1.0  0.79612  0.98310  0.23192  1.0000
  H   H4323     1.0  0.88749  0.95297  0.30322  1.0000
  S   S727      1.0  0.95370  0.97709  0.35047  1.0000
  C   C2516     1.0  0.83377  0.99119  0.22289  1.0000
  H   H4324     1.0  0.88559  0.94578  0.42450  1.0000
  H   H4325     1.0  0.81194  0.95948  0.24230  1.0000
  C   C2517     1.0  0.96610  0.87370  0.38258  1.0000
  H   H4326     1.0  0.86394  0.96772  0.42047  1.0000
  C   C2518     1.0  0.80542  0.74189  0.47630  1.0000
  H   H4327     1.0  0.79202  0.96544  0.20385  1.0000
  N   N184      1.0  0.82141  0.72162  0.47695  1.0000
  C   C2519     1.0  0.95391  0.94622  0.45948  1.0000
  C   C2520     1.0  0.80807  0.96951  0.22727  1.0000
  C   C2521     1.0  0.97977  0.81725  0.44066  1.0000
  C   C2522     1.0  0.95777  0.85305  0.38917  1.0000
  C   C2523     1.0  0.90177  0.95967  0.29798  1.0000
  C   C2524     1.0  0.97056  0.97935  0.43076  1.0000
  H   H4328     1.0  0.86031  0.73997  0.48955  1.0000
  S   S728      1.0  0.94335  0.92600  0.47810  1.0000
  H   H4329     1.0  0.96963  0.85864  0.34547  1.0000
  H   H4330     1.0  0.87668  0.97480  0.32884  1.0000
  H   H4331     1.0  0.91731  0.78667  0.45193  1.0000
  H   H4332     1.0  0.94308  0.85519  0.40117  1.0000
  H   H4333     1.0  0.98379  0.90491  0.38728  1.0000
  H   H4334     1.0  0.88874  0.79290  0.47970  1.0000
  C   C2525     1.0  0.97970  0.79775  0.43673  1.0000
  H   H4335     1.0  0.85357  0.70949  0.48046  1.0000
  H   H4336     1.0  0.96950  0.78785  0.44740  1.0000
  C   C2526     1.0  0.93885  0.75205  0.48291  1.0000
  H   H4337     1.0  0.91703  0.97351  0.23643  1.0000
  H   H4338     1.0  0.96598  0.91166  0.35702  1.0000
  C   C2527     1.0  0.90288  0.79724  0.48171  1.0000
  H   H4339     1.0  0.91128  0.81479  0.44992  1.0000
  H   H4340     1.0  0.90136  0.98395  0.48658  1.0000
  C   C2528     1.0  0.82255  0.98866  0.19175  1.0000
  H   H4341     1.0  0.94243  0.88301  0.33089  1.0000
  H   H4342     1.0  0.89395  0.98429  0.27188  1.0000
  C   C2529     1.0  0.96035  0.98182  0.45112  1.0000
  C   C2530     1.0  0.87784  0.96616  0.44772  1.0000
  C   C2531     1.0  0.86588  0.96215  0.19797  1.0000
  H   H4343     1.0  0.82048  0.97791  0.18253  1.0000
  H   H4344     1.0  0.89746  0.98317  0.34778  1.0000
  H   H4345     1.0  0.91314  0.98794  0.28365  1.0000
  C   C2532     1.0  0.79746  0.95661  0.21851  1.0000
  C   C2533     1.0  0.89042  0.98728  0.47566  1.0000
  H   H4346     1.0  0.82865  0.72390  0.44324  1.0000
  H   H4347     1.0  0.88617  0.95272  0.45819  1.0000
  H   H4348     1.0  0.83983  0.94822  0.20072  1.0000
  H   H4349     1.0  0.93953  0.73633  0.47982  1.0000
  C   C2534     1.0  0.97248  0.96025  0.42476  1.0000
  H   H4350     1.0  0.78332  0.95292  0.23028  1.0000
  H   H4351     1.0  0.95316  0.84864  0.37645  1.0000
  H   H4352     1.0  0.85047  0.73210  0.46059  1.0000
  H   H4353     1.0  0.94266  0.76259  0.46753  1.0000
  C   C2535     1.0  0.97053  0.87526  0.34388  1.0000
  C   C2536     1.0  0.86118  0.84523  0.48608  1.0000
  H   H4354     1.0  0.79307  0.69340  0.48639  1.0000
  H   H4355     1.0  0.91407  0.96752  0.45720  1.0000
  H   H4356     1.0  0.87670  0.94701  0.19576  1.0000
  H   H4357     1.0  0.90709  0.69595  0.48143  1.0000
  H   H4358     1.0  0.86554  0.97216  0.18207  1.0000
  H   H4359     1.0  0.84611  0.94693  0.22516  1.0000
  H   H4360     1.0  0.90947  0.95678  0.31153  1.0000
  H   H4361     1.0  0.85265  0.69055  0.45730  1.0000
  C   C2537     1.0  0.85071  0.83031  0.48419  1.0000
  Fe  Fe363     1.0  0.90035  0.87481  0.48130  1.0000
  H   H4362     1.0  0.86303  0.97238  0.45803  1.0000
  C   C2538     1.0  0.88963  0.67275  0.48216  1.0000
  C   C2539     1.0  0.90655  0.97746  0.41893  1.0000
  H   H4363     1.0  0.98099  0.87901  0.32833  1.0000
  H   H4364     1.0  0.85924  0.96912  0.29013  1.0000
  C   C2540     1.0  0.98161  0.90106  0.35614  1.0000
  C   C2541     1.0  0.89767  0.98324  0.28742  1.0000
  H   H4365     1.0  0.98034  0.95834  0.40898  1.0000
  H   H4366     1.0  0.98644  0.98537  0.36642  1.0000
  C   C2542     1.0  0.87930  0.99114  0.32305  1.0000
  H   H4367     1.0  0.89834  0.66932  0.46709  1.0000
  C   C2543     1.0  0.92103  0.98882  0.23331  1.0000
  H   H4368     1.0  0.90512  0.75703  0.48811  1.0000
  H   H4369     1.0  0.99028  0.90551  0.33968  1.0000
  H   H4370     1.0  0.99306  0.77556  0.41632  1.0000
  H   H4371     1.0  0.97462  0.87327  0.39496  1.0000
  H   H4372     1.0  0.99260  0.92441  0.36557  1.0000
  C   C2544     1.0  0.99244  0.90732  0.37072  1.0000
  H   H4373     1.0  0.83437  0.75423  0.48916  1.0000
  C   C2545     1.0  0.89823  0.99243  0.33142  1.0000
  Fe  Fe364     1.0  0.79738  0.76137  0.82528  1.0000
  S   S729      1.0  0.78859  0.75977  0.79567  1.0000
  S   S730      1.0  0.83071  0.74925  0.82949  1.0000
  C   C2546     1.0  0.91694  0.75960  0.49574  1.0000
  C   C2547     1.0  0.95890  0.74670  0.62387  1.0000
  Fe  Fe365     1.0  0.76130  0.74748  0.81748  1.0000
  Fe  Fe366     1.0  0.76917  0.79178  0.79771  1.0000
  S   S731      1.0  0.76681  0.81690  0.76869  1.0000
  S   S732      1.0  0.77115  0.74704  0.84714  1.0000
  S   S733      1.0  0.78022  0.79487  0.82540  1.0000
  H   H4374     1.0  0.86925  0.78155  0.63277  1.0000
  H   H4375     1.0  0.83665  0.75494  0.74461  1.0000
  C   C2548     1.0  0.75363  0.83274  0.88752  1.0000
  H   H4376     1.0  0.82310  0.79475  0.65069  1.0000
  C   C2549     1.0  0.78511  0.85908  0.56893  1.0000
  H   H4377     1.0  0.81480  0.72404  0.81054  1.0000
  C   C2550     1.0  0.87661  0.77240  0.52167  1.0000
  H   H4378     1.0  0.80525  0.88726  0.59262  1.0000
  C   C2551     1.0  0.84392  0.73809  0.49196  1.0000
  C   C2552     1.0  0.78311  0.68273  0.85799  1.0000
  C   C2553     1.0  0.76307  0.95866  0.87567  1.0000
  H   H4379     1.0  0.77986  0.91717  0.89877  1.0000
  C   C2554     1.0  0.76654  0.67936  0.80957  1.0000
  C   C2555     1.0  0.79389  0.69993  0.49970  1.0000
  Fe  Fe367     1.0  0.93826  0.70202  0.73751  1.0000
  S   S734      1.0  0.94430  0.73496  0.72701  1.0000
  S   S735      1.0  0.91033  0.69519  0.73003  1.0000
  S   S736      1.0  0.90049  0.71612  0.61522  1.0000
  Fe  Fe368     1.0  0.96497  0.95252  0.60115  1.0000
  S   S737      1.0  0.97429  0.93829  0.57255  1.0000
  S   S738      1.0  0.95561  0.93066  0.63195  1.0000
  H   H4380     1.0  0.88267  0.77300  0.70225  1.0000
  H   H4381     1.0  0.95712  0.78290  0.57949  1.0000
  Fe  Fe369     1.0  0.86135  0.83790  0.68754  1.0000
  S   S739      1.0  0.85376  0.81186  0.67713  1.0000
  S   S740      1.0  0.85549  0.83738  0.72211  1.0000
  Fe  Fe370     1.0  0.87686  0.86016  0.64301  1.0000
  S   S741      1.0  0.87012  0.83608  0.62914  1.0000
  S   S742      1.0  0.88956  0.88575  0.61800  1.0000
  Fe  Fe371     1.0  0.84023  0.83808  0.65306  1.0000
  S   S743      1.0  0.81000  0.84261  0.64258  1.0000
  Fe  Fe372     1.0  0.88439  0.81267  0.65446  1.0000
  S   S744      1.0  0.90641  0.78315  0.64697  1.0000
  S   S745      1.0  0.84563  0.86419  0.66497  1.0000
  S   S746      1.0  0.89339  0.83651  0.66680  1.0000
  C   C2556     1.0  0.75611  0.81638  0.68962  1.0000
  C   C2557     1.0  0.91115  0.69961  0.63650  1.0000
  H   H4382     1.0  0.83787  0.74274  0.59602  1.0000
  C   C2558     1.0  0.92199  0.98773  0.52447  1.0000
  H   H4383     1.0  0.87289  0.94562  0.51599  1.0000
  H   H4384     1.0  0.91611  0.74801  0.51090  1.0000
  C   C2559     1.0  0.92699  0.67242  0.67085  1.0000
  H   H4385     1.0  0.77493  0.87746  0.72932  1.0000
  C   C2560     1.0  0.78940  0.83320  0.66155  1.0000
  C   C2561     1.0  0.76904  0.84022  0.65785  1.0000
  H   H4386     1.0  0.84189  0.80038  0.61666  1.0000
  H   H4387     1.0  0.81309  0.77296  0.64828  1.0000
  C   C2562     1.0  0.77643  0.80969  0.69362  1.0000
  C   C2563     1.0  0.79302  0.81828  0.67976  1.0000
  H   H4388     1.0  0.84791  0.85600  0.57430  1.0000
  H   H4389     1.0  0.84373  0.76580  0.66491  1.0000
  H   H4390     1.0  0.78668  0.89598  0.54140  1.0000
  H   H4391     1.0  0.80865  0.81289  0.68288  1.0000
  C   C2564     1.0  0.93618  0.91875  0.62932  1.0000
  C   C2565     1.0  0.92878  0.92462  0.61058  1.0000
  C   C2566     1.0  0.91427  0.91452  0.60766  1.0000
  C   C2567     1.0  0.90683  0.89853  0.62342  1.0000
  C   C2568     1.0  0.91376  0.89282  0.64249  1.0000
  C   C2569     1.0  0.92844  0.90300  0.64546  1.0000
  H   H4392     1.0  0.93399  0.93719  0.59832  1.0000
  H   H4393     1.0  0.90865  0.91929  0.59319  1.0000
  H   H4394     1.0  0.90783  0.88065  0.65490  1.0000
  H   H4395     1.0  0.93383  0.89866  0.66016  1.0000
  C   C2570     1.0  0.90372  0.70395  0.65673  1.0000
  S   S747      1.0  0.93240  0.68505  0.77139  1.0000
  H   H4396     1.0  0.89172  0.71766  0.65917  1.0000
  C   C2571     1.0  0.75056  0.92364  0.92177  1.0000
  C   C2572     1.0  0.93586  0.74800  0.70350  1.0000
  C   C2573     1.0  0.93008  0.73692  0.69149  1.0000
  C   C2574     1.0  0.92130  0.74779  0.67394  1.0000
  C   C2575     1.0  0.91838  0.76973  0.66829  1.0000
  C   C2576     1.0  0.92488  0.78076  0.67981  1.0000
  C   C2577     1.0  0.93380  0.76987  0.69728  1.0000
  H   H4397     1.0  0.93232  0.71998  0.69572  1.0000
  H   H4398     1.0  0.91634  0.73922  0.66503  1.0000
  H   H4399     1.0  0.92305  0.79766  0.67531  1.0000
  H   H4400     1.0  0.93853  0.77847  0.70637  1.0000
  H   H4401     1.0  0.93363  0.91915  0.55649  1.0000
  H   H4402     1.0  0.94108  0.89244  0.55247  1.0000
  H   H4403     1.0  0.95298  0.91264  0.53431  1.0000
  H   H4404     1.0  0.85853  0.74004  0.66113  1.0000
  H   H4405     1.0  0.80344  0.79854  0.63564  1.0000
  Fe  Fe373     1.0  0.91563  0.70692  0.58388  1.0000
  Fe  Fe374     1.0  0.95400  0.96756  0.55817  1.0000
  H   H4406     1.0  0.86640  0.92461  0.57840  1.0000
  Fe  Fe375     1.0  0.94021  0.67229  0.56112  1.0000
  H   H4407     1.0  0.97791  0.91884  0.49905  1.0000
  C   C2578     1.0  0.88340  0.69260  0.50964  1.0000
  S   S748      1.0  0.88737  0.71414  0.51775  1.0000
  H   H4408     1.0  0.85712  0.93474  0.55381  1.0000
  C   C2579     1.0  0.79157  0.82239  0.75597  1.0000
  C   C2580     1.0  0.79726  0.82547  0.73403  1.0000
  C   C2581     1.0  0.81668  0.83054  0.72356  1.0000
  C   C2582     1.0  0.83057  0.83245  0.73501  1.0000
  C   C2583     1.0  0.82488  0.82944  0.75699  1.0000
  C   C2584     1.0  0.80549  0.82417  0.76749  1.0000
  H   H4409     1.0  0.78674  0.82372  0.72512  1.0000
  H   H4410     1.0  0.82082  0.83303  0.70660  1.0000
  H   H4411     1.0  0.83558  0.83090  0.76592  1.0000
  H   H4412     1.0  0.80121  0.82181  0.78445  1.0000
  H   H4413     1.0  0.96523  0.95157  0.50944  1.0000
  H   H4414     1.0  0.77437  0.66112  0.62461  1.0000
  C   C2585     1.0  0.99028  0.77562  0.56713  1.0000
  C   C2586     1.0  0.96457  0.71006  0.64448  1.0000
  C   C2587     1.0  0.75132  0.81715  0.87804  1.0000
  H   H4415     1.0  0.76323  0.77094  0.73273  1.0000
  H   H4416     1.0  0.76480  0.80867  0.86880  1.0000
  H   H4417     1.0  0.76887  0.83639  0.88539  1.0000
  H   H4418     1.0  0.83239  0.86033  0.59978  1.0000
  H   H4419     1.0  0.80065  0.67395  0.65969  1.0000
  C   C2588     1.0  0.78542  0.70604  0.78768  1.0000
  H   H4420     1.0  0.79977  0.91226  0.54944  1.0000
  H   H4421     1.0  0.78711  0.72225  0.78274  1.0000
  C   C2589     1.0  0.84312  0.72815  0.81681  1.0000
  C   C2590     1.0  0.86469  0.72036  0.81506  1.0000
  C   C2591     1.0  0.87475  0.70427  0.80378  1.0000
  H   H4422     1.0  0.94829  0.73147  0.60358  1.0000
  C   C2592     1.0  0.84153  0.70314  0.79704  1.0000
  C   C2593     1.0  0.83155  0.71913  0.80819  1.0000
  H   H4423     1.0  0.87366  0.72701  0.82210  1.0000
  H   H4424     1.0  0.82705  0.69177  0.49885  1.0000
  C   C2594     1.0  0.86311  0.69585  0.79456  1.0000
  H   H4425     1.0  0.87249  0.80665  0.75772  1.0000
  H   H4426     1.0  0.88106  0.75504  0.52598  1.0000
  H   H4427     1.0  0.75102  0.96889  0.98597  1.0000
  H   H4428     1.0  0.98929  0.80457  0.50482  1.0000
  H   H4429     1.0  0.88830  0.79961  0.52069  1.0000
  H   H4430     1.0  0.84804  0.78892  0.76085  1.0000
  H   H4431     1.0  0.75992  0.73918  0.76052  1.0000
  H   H4432     1.0  0.80903  0.83639  0.59619  1.0000
  H   H4433     1.0  0.97990  0.67223  0.84820  1.0000
  C   C2595     1.0  0.76858  0.70046  0.80346  1.0000
  H   H4434     1.0  0.95732  0.87172  0.62628  1.0000
  H   H4435     1.0  0.96586  0.81206  0.64358  1.0000
  H   H4436     1.0  0.77715  0.84500  0.54686  1.0000
  C   C2596     1.0  0.81740  0.84629  0.58217  1.0000
  H   H4437     1.0  0.83250  0.69607  0.79061  1.0000
  S   S749      1.0  0.74958  0.71954  0.81538  1.0000
  H   H4438     1.0  0.87568  0.66707  0.68107  1.0000
  H   H4439     1.0  0.74640  0.73412  0.73213  1.0000
  Fe  Fe376     1.0  0.80924  0.78287  0.52918  1.0000
  N   N185      1.0  0.91179  0.78183  0.49950  1.0000
  H   H4440     1.0  0.83927  0.66654  0.56599  1.0000
  H   H4441     1.0  0.88914  0.99066  0.53816  1.0000
  H   H4442     1.0  0.90212  0.77560  0.53357  1.0000
  Fe  Fe377     1.0  0.93268  0.66661  0.72081  1.0000
  C   C2597     1.0  0.90682  0.87282  0.55359  1.0000
  H   H4443     1.0  0.76608  0.85175  0.64382  1.0000
  S   S750      1.0  0.87450  0.67465  0.78188  1.0000
  C   C2598     1.0  0.82669  0.68102  0.86274  1.0000
  N   N186      1.0  0.96442  0.84061  0.61931  1.0000
  H   H4444     1.0  0.91640  0.81056  0.52369  1.0000
  C   C2599     1.0  0.94161  0.84104  0.62071  1.0000
  H   H4445     1.0  0.75355  0.67489  0.82172  1.0000
  H   H4446     1.0  0.97429  0.88148  0.58809  1.0000
  C   C2600     1.0  0.78207  0.68616  0.55804  1.0000
  C   C2601     1.0  0.93678  0.83104  0.60456  1.0000
  H   H4447     1.0  0.97638  0.83580  0.58713  1.0000
  H   H4448     1.0  0.98693  0.90211  0.54470  1.0000
  C   C2602     1.0  0.89521  0.78294  0.51933  1.0000
  H   H4449     1.0  0.78579  0.86916  0.70466  1.0000
  H   H4450     1.0  0.82035  0.67929  0.62880  1.0000
  H   H4451     1.0  0.93468  0.83264  0.63650  1.0000
  H   H4452     1.0  0.75285  0.84720  0.80677  1.0000
  C   C2603     1.0  0.75245  0.83209  0.67204  1.0000
  C   C2604     1.0  0.82340  0.67210  0.56356  1.0000
  H   H4453     1.0  0.78261  0.84265  0.82188  1.0000
  C   C2605     1.0  0.78337  0.69100  0.61955  1.0000
  H   H4454     1.0  0.86123  0.67297  0.85842  1.0000
  H   H4455     1.0  0.97149  0.73736  0.66206  1.0000
  H   H4456     1.0  0.94041  0.84026  0.58831  1.0000
  H   H4457     1.0  0.94514  0.81445  0.60521  1.0000
  H   H4458     1.0  0.91977  0.83102  0.60821  1.0000
  H   H4459     1.0  0.94080  0.84914  0.65947  1.0000
  H   H4460     1.0  0.95652  0.70486  0.63479  1.0000
  H   H4461     1.0  0.86406  0.77739  0.53472  1.0000
  C   C2606     1.0  0.93469  0.66834  0.65058  1.0000
  H   H4462     1.0  0.93317  0.67892  0.61797  1.0000
  C   C2607     1.0  0.96657  0.86972  0.58557  1.0000
  C   C2608     1.0  0.76884  0.85460  0.82717  1.0000
  H   H4463     1.0  0.97020  0.67755  0.66142  1.0000
  H   H4464     1.0  0.84527  0.66424  0.70446  1.0000
  C   C2609     1.0  0.79151  0.84664  0.55106  1.0000
  H   H4465     1.0  0.94821  0.76031  0.56007  1.0000
  H   H4466     1.0  0.81073  0.90121  0.52619  1.0000
  C   C2610     1.0  0.81797  0.78790  0.63988  1.0000
  H   H4467     1.0  0.86326  0.95192  0.56685  1.0000
  S   S751      1.0  0.97436  0.73540  0.52970  1.0000
  H   H4468     1.0  0.81571  0.75904  0.61016  1.0000
  H   H4469     1.0  0.79590  0.69951  0.61016  1.0000
  H   H4470     1.0  0.81278  0.69499  0.76544  1.0000
  H   H4471     1.0  0.93041  0.73471  0.62814  1.0000
  H   H4472     1.0  0.90121  0.73700  0.78718  1.0000
  S   S752      1.0  0.90565  0.68395  0.57100  1.0000
  H   H4473     1.0  0.90557  0.69365  0.68947  1.0000
  C   C2611     1.0  0.79825  0.66943  0.78446  1.0000
  H   H4474     1.0  0.77972  0.69319  0.63592  1.0000
  H   H4475     1.0  0.82619  0.88480  0.56008  1.0000
  H   H4476     1.0  0.94947  0.87475  0.59057  1.0000
  S   S753      1.0  0.78534  0.80309  0.59894  1.0000
  C   C2612     1.0  0.85895  0.75701  0.65791  1.0000
  H   H4477     1.0  0.96673  0.83493  0.66333  1.0000
  H   H4478     1.0  0.78480  0.71581  0.56293  1.0000
  H   H4479     1.0  0.83953  0.73009  0.50860  1.0000
  C   C2613     1.0  0.80363  0.67432  0.84358  1.0000
  H   H4480     1.0  0.75673  0.89267  0.79172  1.0000
  H   H4481     1.0  0.87537  0.92872  0.49842  1.0000
  C   C2614     1.0  0.86152  0.84798  0.50597  1.0000
  C   C2615     1.0  0.80197  0.89813  0.54272  1.0000
  H   H4482     1.0  0.78045  0.71313  0.50234  1.0000
  N   N187      1.0  0.89938  0.91334  0.54223  1.0000
  C   C2616     1.0  0.89828  0.89443  0.56002  1.0000
  C   C2617     1.0  0.89095  0.93312  0.55100  1.0000
  C   C2618     1.0  0.92162  0.91375  0.53070  1.0000
  C   C2619     1.0  0.88680  0.91227  0.52696  1.0000
  C   C2620     1.0  0.74733  0.75329  0.76231  1.0000
  C   C2621     1.0  0.86807  0.93595  0.56310  1.0000
  C   C2622     1.0  0.93803  0.90920  0.54455  1.0000
  C   C2623     1.0  0.88327  0.93207  0.50954  1.0000
  C   C2624     1.0  0.76708  0.90924  0.90846  1.0000
  C   C2625     1.0  0.97538  0.84732  0.59694  1.0000
  H   H4483     1.0  0.89257  0.94743  0.53841  1.0000
  H   H4484     1.0  0.90039  0.93401  0.56197  1.0000
  H   H4485     1.0  0.92713  0.90237  0.51997  1.0000
  H   H4486     1.0  0.92271  0.92947  0.52033  1.0000
  H   H4487     1.0  0.89457  0.89902  0.51868  1.0000
  H   H4488     1.0  0.87123  0.90866  0.53532  1.0000
  H   H4489     1.0  0.89822  0.93650  0.50035  1.0000
  C   C2626     1.0  0.79248  0.66062  0.66427  1.0000
  S   S754      1.0  0.91545  0.73149  0.55410  1.0000
  H   H4490     1.0  0.82451  0.86871  0.54408  1.0000
  C   C2627     1.0  0.81494  0.70644  0.49705  1.0000
  H   H4491     1.0  0.85715  0.76621  0.71168  1.0000
  H   H4492     1.0  0.83527  0.75519  0.77180  1.0000
  H   H4493     1.0  0.77406  0.96972  0.87047  1.0000
  C   C2628     1.0  0.83483  0.78633  0.61970  1.0000
  Fe  Fe378     1.0  0.90656  0.67576  0.76265  1.0000
  C   C2629     1.0  0.87413  0.76033  0.71116  1.0000
  H   H4494     1.0  0.87921  0.74750  0.70215  1.0000
  C   C2630     1.0  0.78879  0.66768  0.61758  1.0000
  H   H4495     1.0  0.80754  0.68767  0.83056  1.0000
  H   H4496     1.0  0.95119  0.74991  0.49201  1.0000
  C   C2631     1.0  0.87928  0.75141  0.73325  1.0000
  C   C2632     1.0  0.79229  0.66553  0.55639  1.0000
  H   H4497     1.0  0.77050  0.68847  0.84879  1.0000
  C   C2633     1.0  0.77263  0.89332  0.59149  1.0000
  H   H4498     1.0  0.87064  0.75840  0.66631  1.0000
  C   C2634     1.0  0.83514  0.76508  0.75584  1.0000
  H   H4499     1.0  0.81951  0.77569  0.75633  1.0000
  S   S755      1.0  0.79919  0.75268  0.53166  1.0000
  H   H4500     1.0  0.90505  0.72998  0.76238  1.0000
  Fe  Fe379     1.0  0.90929  0.70680  0.54026  1.0000
  H   H4501     1.0  0.82681  0.78955  0.60627  1.0000
  H   H4502     1.0  0.84952  0.78957  0.73393  1.0000
  H   H4503     1.0  0.77215  0.94298  0.87328  1.0000
  C   C2635     1.0  0.74910  0.84978  0.82321  1.0000
  H   H4504     1.0  0.75352  0.82443  0.57415  1.0000
  Fe  Fe380     1.0  0.75298  0.78035  0.84441  1.0000
  C   C2636     1.0  0.93080  0.78745  0.50304  1.0000
  H   H4505     1.0  0.84859  0.67020  0.82943  1.0000
  C   C2637     1.0  0.75694  0.77236  0.74934  1.0000
  C   C2638     1.0  0.86605  0.76567  0.63423  1.0000
  C   C2639     1.0  0.85195  0.77874  0.74911  1.0000
  H   H4506     1.0  0.87125  0.73793  0.74079  1.0000
  C   C2640     1.0  0.96603  0.85561  0.63192  1.0000
  S   S756      1.0  0.82216  0.77141  0.55864  1.0000
  H   H4507     1.0  0.83369  0.74459  0.64216  1.0000
  C   C2641     1.0  0.77117  0.87647  0.71443  1.0000
  H   H4508     1.0  0.99205  0.84723  0.59630  1.0000
  H   H4509     1.0  0.89815  0.80920  0.74359  1.0000
  N   N188      1.0  0.85164  0.76665  0.61983  1.0000
  H   H4510     1.0  0.77801  0.67029  0.87136  1.0000
  S   S757      1.0  0.96104  0.67469  0.72592  1.0000
  C   C2642     1.0  0.84720  0.67527  0.87111  1.0000
  H   H4511     1.0  0.81397  0.68564  0.87593  1.0000
  H   H4512     1.0  0.74967  0.70923  0.76651  1.0000
  H   H4513     1.0  0.77252  0.87248  0.56448  1.0000
  S   S758      1.0  0.98030  0.98502  0.54467  1.0000
  H   H4514     1.0  0.93315  0.75675  0.60716  1.0000
  H   H4515     1.0  0.77943  0.79780  0.70738  1.0000
  H   H4516     1.0  0.85781  0.68659  0.53525  1.0000
  H   H4517     1.0  0.85190  0.83753  0.53935  1.0000
  H   H4518     1.0  0.88159  0.75552  0.62953  1.0000
  H   H4519     1.0  0.80008  0.83041  0.55612  1.0000
  H   H4520     1.0  0.95013  0.75564  0.63633  1.0000
  H   H4521     1.0  0.90723  0.86032  0.56806  1.0000
  S   S759      1.0  0.87437  0.86671  0.50878  1.0000
  H   H4522     1.0  0.96948  0.87006  0.56845  1.0000
  C   C2643     1.0  0.86444  0.76754  0.59770  1.0000
  C   C2644     1.0  0.79995  0.69060  0.77787  1.0000
  H   H4523     1.0  0.78432  0.69640  0.86379  1.0000
  C   C2645     1.0  0.84286  0.74685  0.62587  1.0000
  C   C2646     1.0  0.98810  0.71188  0.59882  1.0000
  H   H4524     1.0  0.86879  0.80054  0.58958  1.0000
  H   H4525     1.0  0.89623  0.74420  0.73069  1.0000
  Fe  Fe381     1.0  0.94920  0.71653  0.54533  1.0000
  H   H4526     1.0  0.98751  0.67134  0.76178  1.0000
  C   C2647     1.0  0.97464  0.81833  0.62773  1.0000
  C   C2648     1.0  0.86699  0.68227  0.52072  1.0000
  C   C2649     1.0  0.75290  0.98492  0.97720  1.0000
  H   H4527     1.0  0.88618  0.78373  0.57311  1.0000
  H   H4528     1.0  0.76924  0.69895  0.61279  1.0000
  Fe  Fe382     1.0  0.80936  0.74256  0.56254  1.0000
  S   S760      1.0  0.82607  0.70931  0.57150  1.0000
  C   C2650     1.0  0.75475  0.86264  0.71892  1.0000
  C   C2651     1.0  0.88833  0.79754  0.75261  1.0000
  S   S761      1.0  0.82760  0.79939  0.49929  1.0000
  C   C2652     1.0  0.92736  0.80927  0.50848  1.0000
  H   H4529     1.0  0.83278  0.81172  0.53598  1.0000
  C   C2653     1.0  0.81333  0.69281  0.56484  1.0000
  C   C2654     1.0  0.79270  0.69988  0.56189  1.0000
  S   S762      1.0  0.95003  0.69374  0.57607  1.0000
  H   H4530     1.0  0.94254  0.81172  0.51010  1.0000
  H   H4531     1.0  0.86981  0.77671  0.50740  1.0000
  H   H4532     1.0  0.91188  0.75385  0.76405  1.0000
  C   C2655     1.0  0.84031  0.81823  0.50215  1.0000
  S   S763      1.0  0.94310  0.98089  0.58738  1.0000
  C   C2656     1.0  0.92700  0.68210  0.63346  1.0000
  C   C2657     1.0  0.98362  0.73513  0.64759  1.0000
  H   H4533     1.0  0.82747  0.69568  0.85044  1.0000
  Fe  Fe383     1.0  0.78976  0.78477  0.57415  1.0000
  H   H4534     1.0  0.98156  0.93725  0.52740  1.0000
  H   H4535     1.0  0.75983  0.80885  0.63871  1.0000
  H   H4536     1.0  0.96676  0.75821  0.61136  1.0000
  H   H4537     1.0  0.76604  0.69167  0.55594  1.0000
  C   C2658     1.0  0.85130  0.83577  0.52395  1.0000
  C   C2659     1.0  0.84062  0.82103  0.52206  1.0000
  H   H4538     1.0  0.77038  0.77293  0.75580  1.0000
  N   N189      1.0  0.87433  0.76701  0.74739  1.0000
  H   H4539     1.0  0.93220  0.85735  0.61937  1.0000
  H   H4540     1.0  0.93713  0.77549  0.51605  1.0000
  C   C2660     1.0  0.83667  0.84984  0.58831  1.0000
  C   C2661     1.0  0.87816  0.78440  0.58963  1.0000
  H   H4541     1.0  0.85585  0.73276  0.62584  1.0000
  H   H4542     1.0  0.89063  0.78144  0.59876  1.0000
  C   C2662     1.0  0.90031  0.74351  0.77040  1.0000
  H   H4543     1.0  0.88416  0.79316  0.72350  1.0000
  H   H4544     1.0  0.82155  0.73111  0.61889  1.0000
  H   H4545     1.0  0.77430  0.89531  0.91923  1.0000
  H   H4546     1.0  0.75895  0.92786  0.93196  1.0000
  H   H4547     1.0  0.89641  0.86950  0.54488  1.0000
  H   H4548     1.0  0.80072  0.85470  0.53651  1.0000
  H   H4549     1.0  0.99105  0.94764  0.64616  1.0000
  S   S764      1.0  0.77746  0.79816  0.54450  1.0000
  H   H4550     1.0  0.90488  0.77472  0.73356  1.0000
  C   C2663     1.0  0.96433  0.76132  0.55841  1.0000
  S   S765      1.0  0.92942  0.96468  0.54241  1.0000
  H   H4551     1.0  0.82372  0.83620  0.57028  1.0000
  H   H4552     1.0  0.79145  0.66835  0.60042  1.0000
  H   H4553     1.0  0.77197  0.90447  0.57629  1.0000
  H   H4554     1.0  0.92289  0.87139  0.54401  1.0000
  C   C2664     1.0  0.74687  0.82467  0.59050  1.0000
  H   H4555     1.0  0.89137  0.69823  0.80248  1.0000
  H   H4556     1.0  0.76962  0.90275  0.60378  1.0000
  H   H4557     1.0  0.87510  0.75212  0.59614  1.0000
  H   H4558     1.0  0.76679  0.89246  0.70518  1.0000
  C   C2665     1.0  0.88841  0.78276  0.73826  1.0000
  C   C2666     1.0  0.87767  0.75517  0.76896  1.0000
  H   H4559     1.0  0.87220  0.76568  0.78058  1.0000
  C   C2667     1.0  0.86200  0.66704  0.51262  1.0000
  H   H4560     1.0  0.84507  0.83453  0.59601  1.0000
  H   H4561     1.0  0.79172  0.86700  0.60736  1.0000
  H   H4562     1.0  0.88184  0.89417  0.56839  1.0000
  H   H4563     1.0  0.95185  0.71497  0.65752  1.0000
  C   C2668     1.0  0.79395  0.87804  0.59181  1.0000
  H   H4564     1.0  0.89510  0.78896  0.76659  1.0000
  C   C2669     1.0  0.98013  0.75026  0.54495  1.0000
  C   C2670     1.0  0.75043  0.81598  0.62685  1.0000
  H   H4565     1.0  0.76437  0.95802  0.90763  1.0000
  C   C2671     1.0  0.78163  0.66386  0.80045  1.0000
  Fe  Fe384     1.0  0.76870  0.76662  0.55029  1.0000
  H   H4566     1.0  0.81374  0.71310  0.51102  1.0000
  C   C2672     1.0  0.81457  0.87869  0.55528  1.0000
  H   H4567     1.0  0.75160  0.96430  0.86513  1.0000
  C   C2673     1.0  0.75910  0.81531  0.60580  1.0000
  H   H4568     1.0  0.85422  0.77048  0.58612  1.0000
  S   S766      1.0  0.77831  0.75464  0.58151  1.0000
  S   S767      1.0  0.94313  0.69359  0.52929  1.0000
  H   H4569     1.0  0.77208  0.87014  0.81842  1.0000
  C   C2674     1.0  0.91174  0.69046  0.67388  1.0000
  H   H4570     1.0  0.84833  0.68859  0.87757  1.0000
  H   H4571     1.0  0.86802  0.74292  0.77491  1.0000
  N   N190      1.0  0.80251  0.86598  0.57417  1.0000
  H   H4572     1.0  0.87487  0.67026  0.71824  1.0000
  N   N191      1.0  0.97487  0.72830  0.63230  1.0000
  C   C2675     1.0  0.82871  0.74518  0.61175  1.0000
  C   C2676     1.0  0.96941  0.77408  0.56939  1.0000
  H   H4573     1.0  0.97729  0.70087  0.60581  1.0000
  C   C2677     1.0  0.97919  0.69027  0.65416  1.0000
  H   H4574     1.0  0.90647  0.89515  0.57222  1.0000
  H   H4575     1.0  0.75742  0.85091  0.73347  1.0000
  H   H4576     1.0  0.99235  0.68421  0.64214  1.0000
  H   H4577     1.0  0.77719  0.84926  0.58322  1.0000
  H   H4578     1.0  0.79201  0.68722  0.51389  1.0000
  H   H4579     1.0  0.74549  0.90389  0.73631  1.0000
  H   H4580     1.0  0.74585  0.78757  0.75011  1.0000
  C   C2678     1.0  0.94196  0.74179  0.61514  1.0000
  C   C2679     1.0  0.95761  0.84990  0.65581  1.0000
  H   H4581     1.0  0.76015  0.90295  0.89858  1.0000
  H   H4582     1.0  0.75971  0.88453  0.59559  1.0000
  H   H4583     1.0  0.97974  0.76951  0.63540  1.0000
  H   H4584     1.0  0.75919  0.85287  0.70667  1.0000
  H   H4585     1.0  0.74454  0.75413  0.77917  1.0000
  C   C2680     1.0  0.82496  0.66500  0.62194  1.0000
  H   H4586     1.0  0.76797  0.85322  0.84420  1.0000
  C   C2681     1.0  0.75206  0.95913  0.89877  1.0000
  H   H4587     1.0  0.98204  0.72390  0.58586  1.0000
  H   H4588     1.0  0.98513  0.69303  0.66702  1.0000
  N   N192      1.0  0.82197  0.66422  0.85425  1.0000
  H   H4589     1.0  0.97408  0.80765  0.61774  1.0000
  H   H4590     1.0  0.95901  0.86242  0.66323  1.0000
  H   H4591     1.0  0.75072  0.72963  0.57980  1.0000
  H   H4592     1.0  0.74756  0.83411  0.83357  1.0000
  H   H4593     1.0  0.95342  0.98908  0.50746  1.0000
  H   H4594     1.0  0.79988  0.66352  0.83564  1.0000
  H   H4595     1.0  0.98247  0.85753  0.62944  1.0000
  H   H4596     1.0  0.92195  0.82218  0.49580  1.0000
  C   C2682     1.0  0.98171  0.94438  0.51068  1.0000
  H   H4597     1.0  0.82951  0.67096  0.60470  1.0000
  H   H4598     1.0  0.74624  0.90140  0.81642  1.0000
  H   H4599     1.0  0.75395  0.98519  0.96034  1.0000
  H   H4600     1.0  0.84770  0.66119  0.88405  1.0000
  H   H4601     1.0  0.84939  0.68102  0.73141  1.0000
  C   C2683     1.0  0.99009  0.92835  0.49617  1.0000
  H   H4602     1.0  0.75233  0.87895  0.67792  1.0000
  C   C2684     1.0  0.86032  0.66606  0.72875  1.0000
  H   H4603     1.0  0.77538  0.66652  0.66542  1.0000
  H   H4604     1.0  0.80208  0.74779  0.49107  1.0000
  S   S768      1.0  0.99219  0.96886  0.59228  1.0000
  C   C2685     1.0  0.87316  0.66248  0.49312  1.0000
  H   H4605     1.0  0.76798  0.98798  0.97826  1.0000
  H   H4606     1.0  0.85711  0.66199  0.62468  1.0000
  H   H4607     1.0  0.99043  0.95742  0.50566  1.0000
  C   C2686     1.0  0.99219  0.75567  0.63924  1.0000
  C   C2687     1.0  0.99269  0.72234  0.61474  1.0000
  H   H4608     1.0  0.84916  0.65935  0.52115  1.0000
  C   C2688     1.0  0.89471  0.68774  0.49034  1.0000
