data_image0
_chemical_formula_structural       HCH4SCH2FeS2FeS2FeSFeS3CS2HCH3NCHCSNH2C6H4C2HC2H2CHNCH3C6H5CH3C6H6CHCH2NC2H4SH2CHCHC3H4CHCH2C2H4CH5C3HCHCH5CH2CH2CH6CNH2FeHSH3CHSCH3CHCHCFeH8CH3C2HC2HCH4CNH3CH2C2HCHCH2CNHSH9C2HCH2FeCH5C2FeSHFeCH3FeSCS3FeS2FeS2FeSFeS3CS2HSHCSCFeS2CHSHSCHCH2CFeHSFeHC6H4C6H8CSCHC6H4CHC4H3C2NC5HCH4SH8FeH4S2HNCHC4H12FeHCSHCH3C2HCSC2FeC2H4CHSHCH8CHC2HFeCNC8H20NC8H8CFeCH2SHNH2FeS2HCHCH2FeH2C2H3CHCH8SHFeS2FeS2FeSFeS3H2SCH4CFeSH2CH6CH5C6H4C6H4C2SH4C8H4CNC8H15CH5CH2C2HC2H2CHCH5CH3C4SHCH2CHC2FeNH2NHCHCH3CH3CH3CH2SHCNCH2C3HCH3CH8NH3SHCH10NC5S2HCH3CH3CH2NH3C4H2C2HFe2HFeS2H3CS2FeS2FeS2FeSFeS3FeH2FeHSFeSCSCSC2H2FeS2C2H2SHSH2CH2C7H4C6H5CFeHC3HCHC4H4C7H7C2FeHCSH2CHCH2CH2CH2C2FeHSH3SFeS2CH3C3H3NH3C3NC4HC3H9NH10CH12CNH2CHCSCHS2NC8H17C3H5C2SH7FeH4SH3CHC5H4Fe2H3SH3CH2CH2CHCH2CHC2H2CH3CH3SH4FeSHFeS2FeS2FeSFeS3HC2H2FeH4C7HCH2C6H5C2HCHSH3C6H6NC5H13CH3S2HCH2NCHCHC2FeH2SC2HSNH7CH2CNC8H21NC5HC2H3CH6CH12C3H5CH4FeH3CH3CSH5CHC2HCSHCHSCHSH2CNCHFeCHCH2CH2CHSHCFeHFeSCFeSHSHFeS2FeS2FeSFeS2FeS2CFeCHSHSHCSHFeSFeHSH4C2HC2HSCH2C6H4C6H5C6H6C4H2C2H8CHSH2SH2SFeCHCHNC5H11CHCH4CH2CHC4HC3H3NHCHCHCHCHCH3CSHSH5C2SH3CNC8H20FeH10FeH2C2H2CHNHNC4FeHCHC2SC2SH2SH6CH2SC2S2HFeCHCHC2HFeSHFeS2FeS2FeSFeS3HSC6H4C2H2C3H3C6H4C6H6SCH3CSH6CH2NHCHCNC8H13NH4CH4CH4CH2S2H4CH3CFeHCH4SHCFeCHCH3CSHCH2C2SHCNCH2SH2CH2CH5C2H2CHC3H3CH2C2HCNCH2FeH3CH3FeCH2FeHCH3CHFeS2FeS2FeSFeS3HSH2SHFeSFeH2CHFeHSFeSHCHSFeS2H3CH2C2HC3HC3SH4C2HC2NHCHNH2SH2FeHC2H3SH4CH3C6H4C6H4C6H6SH3CH3SHSHFeHCH4CH2C6H2C2HCH3CHC3HSH5C2HCNH3CH2CH4CH2CH2FeH2CH2C2HCH2NCSCH3NCHCHCH5CH7NC8H15CH4S2H2CH2C2H2C4H4CHNCH2CH7CH2SHFeHC2HC3H3SH2C2H3CHFeH2CH3SCFeS2FeS2FeSFeS3HCH4NFeSHCH2C6H4C2HCHCHC6H4C6H5NC8H22CH2CHCH2C2H5CHNH3CH2C2H2CHSH2CHSC2SH3NCHC3H2C2HC2H14SCH2CHCHSNH2C2H2CH7CHSHCH2CH2CH2C3H2SH3CH10FeHCHFeS4FeSCHSNFeSFeS2HFeS2FeS2FeSFeS3HFeS2CHC2HC3HC6H4Fe2H2FeH5C7H4C3HSH2C3H5C7H6NC2H2FeHS2CHNC8H25CNH2C3H2CH5C3H3FeH3CHCH3FeH2CHCH2C2HCS2C3HC2HCH3NC8H16CHSH5NCH3CHCHCSCHCHSHC2H8NH3C2H4SH2C2HC3SCSHCHC2HC2H5FeSH2C2H3FeCNH3C2H2FeS2FeS2FeSFeS3CHCSC2HC2H8C6H4C6H4C2HC2H3C6H5CH2CH7CH4NH3SH2CH6C2HC2HCH2C2H7CH2C3H9NC8H20CHCHNSNH2CH3CHC2H3CHCNCH3CHC2H4CH3NCH2FeH10CH2C2SH3CFeS2C2FeHS2FeS2FeS2Fe2S3FeS2FeSFeS2FeS2H2FeCFeS6FeH2C2H3C2H2C3HSCH4SCHC6H4C6H5SH2CH2CH6C4SFeC6H4SCHFeHCH3CH2CHFeH5CHC3HC2H3CNC8H20NC8H20C2H8C2HSHNHCHSH2NHFeHSHCHCH4CH2C2H3NHCFeCFeHCHC5H2NCHCH2C2HC2H3CH3CH3CHCSCSH2SHC2HCHSCH4CHS2H4C2H3FeSCFeS2FeS2FeSFeS3N2CSHC6H6C2H3C6H4C6H8CH6CH5CH2CH4NHSH2CH5SH2C3H2C2HCS2CH4CNC8H21C3H2CH3SC3H4CHCH3SC2HCFeH2FeH5SHCH2C2SCFeH3CH3CNCFeCHCSFeH5CFeS3FeHFeS2FeH3S2FeS2FeS2FeSFeS3FeS2HCFeSCSHCH3C6H7C5H4SC6H5CH3CHSH5C6H4C3H4C4H2CH3CHNC5HC2H18NC8H8NH10CNC6SH3CHFeH7CHCH6S2H2CH9SCH2FeH3C4H2CH3CH4CHC2H2CH4C2H2CHCNC5FeCH10CHCH3CH2CHNC4NCHCSH2C2H2C2H7SHC6Fe2S2H3CH3NHFeS2HFeS2FeS2FeSFeS3C3H4C6H4C7H4C7H5SNC7H18C2H6CHCH6SHSH3CH2CH8NH2CSH6CHNCH3CHFeC3HCNHCH3CHC2H4CHCH4SHC2HCFeCH4CH4C4H2C2HCH3CSH8CH4CHCHSFeS2FeSCFeCFeSHSHFeSFeS2FeSFeS3FeS2HCHFe2HS2FeSFeSHSC2H2C2HC4H3C6H4CH5C3H2SC6H7C2H2C6H6C2H4NH2CHSHCHNC5H6CH7C2H5CHNH5CH2SC3HC2HC2H6C2NHS2CH3C2H3CHCHCHC2SNC7H11C2H3NC8H20CH3CH3CH4FeH2CHCH4CHC4SH3SC2H3CH4FeSH2NSC3H10FeC3HC2
_chemical_formula_sum              "H2304 C1344 S384 Fe192 N96"
_cell_length_a       59.6419
_cell_length_b       60.2483
_cell_length_c       60.4964
_cell_angle_alpha    80.7871
_cell_angle_beta     80.829
_cell_angle_gamma    80.7819

_space_group_name_H-M_alt    "P 1"
_space_group_IT_number       1

loop_
  _space_group_symop_operation_xyz
  'x, y, z'

loop_
  _atom_site_type_symbol
  _atom_site_label
  _atom_site_symmetry_multiplicity
  _atom_site_fract_x
  _atom_site_fract_y
  _atom_site_fract_z
  _atom_site_occupancy
  H   H1        1.0  0.35124  0.18646  0.04726  1.0000
  C   C1        1.0  0.07093  0.19540  0.21908  1.0000
  H   H2        1.0  0.33175  0.01344  0.21251  1.0000
  H   H3        1.0  0.23363  0.15770  0.18001  1.0000
  H   H4        1.0  0.07524  0.20805  0.18357  1.0000
  H   H5        1.0  0.29485  0.06648  0.15742  1.0000
  S   S1        1.0  0.14131  0.22702  0.20486  1.0000
  C   C2        1.0  0.20180  0.13155  0.20438  1.0000
  H   H6        1.0  0.22978  0.15031  0.22370  1.0000
  H   H7        1.0  0.21648  0.18442  0.18246  1.0000
  Fe  Fe1       1.0  0.26592  0.17911  0.12362  1.0000
  S   S2        1.0  0.28050  0.19270  0.14973  1.0000
  S   S3        1.0  0.25217  0.14589  0.13269  1.0000
  Fe  Fe2       1.0  0.27116  0.22019  0.08855  1.0000
  S   S4        1.0  0.28585  0.23796  0.11193  1.0000
  S   S5        1.0  0.26757  0.23839  0.05304  1.0000
  Fe  Fe3       1.0  0.30659  0.20433  0.12112  1.0000
  S   S6        1.0  0.34394  0.20264  0.12494  1.0000
  Fe  Fe4       1.0  0.25875  0.22528  0.13893  1.0000
  S   S7        1.0  0.24291  0.24491  0.16762  1.0000
  S   S8        1.0  0.29423  0.18726  0.09575  1.0000
  S   S9        1.0  0.24181  0.21080  0.11490  1.0000
  C   C3        1.0  0.31992  0.46601  0.17093  1.0000
  S   S10       1.0  0.40796  0.25587  0.23345  1.0000
  S   S11       1.0  0.35435  0.22854  0.22008  1.0000
  H   H8        1.0  0.24644  0.33973  0.20127  1.0000
  C   C4        1.0  0.34714  0.32364  0.23544  1.0000
  H   H9        1.0  0.33539  0.23225  0.00137  1.0000
  H   H10       1.0  0.24876  0.45899  0.19170  1.0000
  H   H11       1.0  0.20617  0.18606  0.14912  1.0000
  N   N1        1.0  0.30168  0.45378  0.21202  1.0000
  C   C5        1.0  0.07400  0.24665  0.21973  1.0000
  H   H12       1.0  0.30693  0.19417  0.04704  1.0000
  C   C6        1.0  0.19057  0.17756  0.15253  1.0000
  S   S12       1.0  0.20921  0.34941  0.24209  1.0000
  N   N2        1.0  0.06551  0.23766  0.20120  1.0000
  H   H13       1.0  0.31576  0.25780  0.07193  1.0000
  H   H14       1.0  0.09305  0.24487  0.21774  1.0000
  C   C7        1.0  0.34749  0.21091  0.15073  1.0000
  C   C8        1.0  0.32834  0.21910  0.16519  1.0000
  C   C9        1.0  0.33093  0.22435  0.18630  1.0000
  C   C10       1.0  0.35271  0.22191  0.19307  1.0000
  C   C11       1.0  0.37202  0.21406  0.17855  1.0000
  C   C12       1.0  0.36938  0.20853  0.15739  1.0000
  H   H15       1.0  0.31144  0.22132  0.16016  1.0000
  H   H16       1.0  0.31590  0.23034  0.19744  1.0000
  H   H17       1.0  0.38888  0.21207  0.18367  1.0000
  H   H18       1.0  0.38427  0.20216  0.14629  1.0000
  C   C13       1.0  0.38228  0.21523  0.04808  1.0000
  C   C14       1.0  0.33298  0.24777  0.06857  1.0000
  H   H19       1.0  0.34557  0.32206  0.21820  1.0000
  C   C15       1.0  0.26331  0.22413  0.03090  1.0000
  C   C16       1.0  0.26108  0.20102  0.03444  1.0000
  H   H20       1.0  0.34100  0.26954  0.01456  1.0000
  H   H21       1.0  0.19667  0.13153  0.22287  1.0000
  C   C17       1.0  0.29402  0.03897  0.18544  1.0000
  H   H22       1.0  0.26133  0.19153  0.05119  1.0000
  N   N3        1.0  0.34185  0.22243  0.03604  1.0000
  C   C18       1.0  0.31419  0.16374  0.20128  1.0000
  H   H23       1.0  0.21442  0.17887  0.22371  1.0000
  H   H24       1.0  0.30940  0.28793  0.22486  1.0000
  H   H25       1.0  0.34830  0.17197  0.22276  1.0000
  C   C19       1.0  0.16884  0.23407  0.19415  1.0000
  C   C20       1.0  0.18263  0.24010  0.20826  1.0000
  C   C21       1.0  0.20528  0.24370  0.19993  1.0000
  C   C22       1.0  0.21427  0.24113  0.17750  1.0000
  C   C23       1.0  0.20031  0.23562  0.16324  1.0000
  C   C24       1.0  0.17753  0.23241  0.17149  1.0000
  H   H26       1.0  0.17587  0.24212  0.22555  1.0000
  H   H27       1.0  0.21591  0.24819  0.21097  1.0000
  H   H28       1.0  0.20692  0.23427  0.14575  1.0000
  H   H29       1.0  0.16671  0.22845  0.16033  1.0000
  H   H30       1.0  0.48810  0.27983  0.23826  1.0000
  C   C25       1.0  0.29974  0.28288  0.21252  1.0000
  H   H31       1.0  0.28256  0.04972  0.19716  1.0000
  H   H32       1.0  0.37560  0.21804  0.06576  1.0000
  H   H33       1.0  0.31152  0.04204  0.18689  1.0000
  C   C26       1.0  0.29131  0.10218  0.18644  1.0000
  C   C27       1.0  0.26837  0.10010  0.18598  1.0000
  C   C28       1.0  0.25683  0.11268  0.16861  1.0000
  C   C29       1.0  0.26767  0.12843  0.15264  1.0000
  C   C30       1.0  0.29050  0.13075  0.15330  1.0000
  C   C31       1.0  0.30250  0.11717  0.16986  1.0000
  H   H34       1.0  0.25967  0.08850  0.19873  1.0000
  H   H35       1.0  0.23935  0.11058  0.16779  1.0000
  H   H36       1.0  0.29902  0.14272  0.14080  1.0000
  H   H37       1.0  0.32032  0.11853  0.17001  1.0000
  H   H38       1.0  0.31195  0.43271  0.18531  1.0000
  H   H39       1.0  0.37405  0.22424  0.01398  1.0000
  C   C32       1.0  0.26287  0.23620  0.00903  1.0000
  H   H40       1.0  0.29865  0.00179  0.15989  1.0000
  C   C33       1.0  0.19399  0.15458  0.16781  1.0000
  H   H41       1.0  0.26336  0.26966  0.20240  1.0000
  H   H42       1.0  0.02892  0.23893  0.17372  1.0000
  N   N4        1.0  0.19767  0.15538  0.19176  1.0000
  C   C34       1.0  0.28202  0.32150  0.20074  1.0000
  C   C35       1.0  0.31614  0.28245  0.19001  1.0000
  H   H43       1.0  0.22041  0.12482  0.20265  1.0000
  H   H44       1.0  0.33514  0.44112  0.19535  1.0000
  H   H45       1.0  0.29725  0.26491  0.21866  1.0000
  H   H46       1.0  0.14898  0.16562  0.18714  1.0000
  S   S13       1.0  0.47290  0.22938  0.23146  1.0000
  H   H47       1.0  0.28043  0.01117  0.22891  1.0000
  H   H48       1.0  0.22811  0.28645  0.19325  1.0000
  C   C36       1.0  0.34313  0.19768  0.03337  1.0000
  H   H49       1.0  0.18715  0.17455  0.13581  1.0000
  C   C37       1.0  0.27802  0.46397  0.20666  1.0000
  H   H50       1.0  0.17752  0.18765  0.19722  1.0000
  C   C38       1.0  0.23832  0.29937  0.19608  1.0000
  C   C39       1.0  0.03995  0.23801  0.20699  1.0000
  C   C40       1.0  0.19040  0.11298  0.19723  1.0000
  H   H51       1.0  0.34920  0.17067  0.18641  1.0000
  H   H52       1.0  0.26458  0.25408  0.00613  1.0000
  H   H53       1.0  0.27132  0.05127  0.15918  1.0000
  H   H54       1.0  0.33723  0.21126  0.07224  1.0000
  C   C41       1.0  0.21892  0.16645  0.19065  1.0000
  H   H55       1.0  0.05291  0.19242  0.22004  1.0000
  C   C42       1.0  0.44922  0.29499  0.22161  1.0000
  H   H56       1.0  0.23733  0.31340  0.18179  1.0000
  H   H57       1.0  0.30896  0.27533  0.17729  1.0000
  C   C43       1.0  0.22677  0.16730  0.21360  1.0000
  C   C44       1.0  0.15387  0.16330  0.20436  1.0000
  H   H58       1.0  0.34387  0.14235  0.18452  1.0000
  H   H59       1.0  0.20877  0.14395  0.15921  1.0000
  H   H60       1.0  0.17878  0.14628  0.16736  1.0000
  H   H61       1.0  0.26701  0.46891  0.22221  1.0000
  C   C45       1.0  0.02829  0.22819  0.19044  1.0000
  H   H62       1.0  0.25962  0.43453  0.20931  1.0000
  H   H63       1.0  0.34390  0.25913  0.05725  1.0000
  H   H64       1.0  0.38571  0.19675  0.04707  1.0000
  H   H65       1.0  0.26163  0.34476  0.22315  1.0000
  H   H66       1.0  0.07373  0.19930  0.23556  1.0000
  C   C46       1.0  0.06408  0.27131  0.22344  1.0000
  C   C47       1.0  0.25794  0.20220  0.99438  1.0000
  C   C48       1.0  0.26570  0.01296  0.19203  1.0000
  H   H67       1.0  0.32281  0.17022  0.03504  1.0000
  C   C49       1.0  0.32015  0.18907  0.03309  1.0000
  H   H68       1.0  0.27177  0.28933  0.17942  1.0000
  C   C50       1.0  0.43881  0.30911  0.24075  1.0000
  H   H69       1.0  0.33230  0.27124  0.19328  1.0000
  H   H70       1.0  0.27838  0.47997  0.19472  1.0000
  H   H71       1.0  0.25449  0.02517  0.20250  1.0000
  H   H72       1.0  0.06159  0.28282  0.20762  1.0000
  H   H73       1.0  0.26113  0.01782  0.17463  1.0000
  C   C51       1.0  0.31746  0.44726  0.19130  1.0000
  H   H74       1.0  0.14119  0.17496  0.21415  1.0000
  H   H75       1.0  0.31359  0.26789  0.03271  1.0000
  C   C52       1.0  0.33070  0.22557  0.05975  1.0000
  H   H76       1.0  0.17561  0.18893  0.15955  1.0000
  H   H77       1.0  0.32802  0.47995  0.17481  1.0000
  C   C53       1.0  0.32469  0.26232  0.01753  1.0000
  H   H78       1.0  0.00989  0.22792  0.19738  1.0000
  H   H79       1.0  0.24328  0.17430  0.21026  1.0000
  H   H80       1.0  0.33148  0.45870  0.15681  1.0000
  H   H81       1.0  0.27557  0.18897  0.22145  1.0000
  H   H82       1.0  0.06971  0.23616  0.23626  1.0000
  H   H83       1.0  0.35418  0.19382  0.01737  1.0000
  C   C54       1.0  0.33617  0.16039  0.18409  1.0000
  N   N5        1.0  0.29068  0.01440  0.19251  1.0000
  H   H84       1.0  0.46564  0.30040  0.21280  1.0000
  H   H85       1.0  0.33164  0.16612  0.16676  1.0000
  Fe  Fe5       1.0  0.28192  0.07755  0.23882  1.0000
  H   H86       1.0  0.07640  0.27861  0.23121  1.0000
  S   S14       1.0  0.30620  0.08588  0.20746  1.0000
  H   H87       1.0  0.36695  0.24621  0.03052  1.0000
  H   H88       1.0  0.31079  0.03412  0.22597  1.0000
  H   H89       1.0  0.15219  0.14593  0.21295  1.0000
  C   C55       1.0  0.26334  0.34169  0.20535  1.0000
  H   H90       1.0  0.25672  0.17225  0.01912  1.0000
  S   S15       1.0  0.25292  0.39079  0.23763  1.0000
  C   C56       1.0  0.31549  0.01586  0.22403  1.0000
  H   H91       1.0  0.28606  0.32234  0.18203  1.0000
  H   H92       1.0  0.22943  0.30559  0.21184  1.0000
  H   H93       1.0  0.34863  0.13314  0.22372  1.0000
  C   C57       1.0  0.07055  0.25205  0.17866  1.0000
  H   H94       1.0  0.05887  0.26842  0.17749  1.0000
  C   C58       1.0  0.17794  0.16944  0.20424  1.0000
  H   H95       1.0  0.03119  0.25568  0.20779  1.0000
  C   C59       1.0  0.36610  0.22793  0.03121  1.0000
  Fe  Fe6       1.0  0.38568  0.22823  0.23719  1.0000
  H   H96       1.0  0.19799  0.10916  0.18005  1.0000
  H   H97       1.0  0.32356  0.19129  0.22711  1.0000
  H   H98       1.0  0.04751  0.27183  0.23486  1.0000
  H   H99       1.0  0.17162  0.11726  0.19795  1.0000
  H   H100      1.0  0.33997  0.24363  0.08495  1.0000
  H   H101      1.0  0.19370  0.09693  0.20882  1.0000
  H   H102      1.0  0.09998  0.26790  0.18393  1.0000
  H   H103      1.0  0.29754  0.32555  0.20661  1.0000
  C   C60       1.0  0.32791  0.23632  0.01860  1.0000
  H   H104      1.0  0.18017  0.16847  0.22231  1.0000
  H   H105      1.0  0.32114  0.29936  0.18285  1.0000
  H   H106      1.0  0.24942  0.31089  0.23647  1.0000
  C   C61       1.0  0.26490  0.44880  0.19660  1.0000
  C   C62       1.0  0.07771  0.21390  0.19946  1.0000
  H   H107      1.0  0.30162  0.15411  0.19650  1.0000
  C   C63       1.0  0.32155  0.42049  0.23794  1.0000
  C   C64       1.0  0.29572  0.00654  0.21649  1.0000
  H   H108      1.0  0.08193  0.17909  0.21632  1.0000
  C   C65       1.0  0.28973  0.04917  0.16115  1.0000
  H   H109      1.0  0.03547  0.22891  0.22424  1.0000
  H   H110      1.0  0.09727  0.26731  0.15511  1.0000
  H   H111      1.0  0.10798  0.24173  0.17168  1.0000
  H   H112      1.0  0.31212  0.22450  0.06152  1.0000
  C   C66       1.0  0.25848  0.19011  0.01624  1.0000
  N   N6        1.0  0.27700  0.29803  0.21144  1.0000
  H   H113      1.0  0.31346  0.19505  0.01672  1.0000
  H   H114      1.0  0.43728  0.29793  0.20875  1.0000
  H   H115      1.0  0.06705  0.24360  0.16474  1.0000
  C   C67       1.0  0.26336  0.28828  0.19727  1.0000
  H   H116      1.0  0.09658  0.21349  0.19838  1.0000
  H   H117      1.0  0.30337  0.47270  0.16458  1.0000
  C   C68       1.0  0.26535  0.29856  0.23544  1.0000
  C   C69       1.0  0.31168  0.46998  0.22328  1.0000
  H   H118      1.0  0.30020  0.03925  0.14829  1.0000
  C   C70       1.0  0.09541  0.25739  0.17227  1.0000
  H   H119      1.0  0.30707  0.18199  0.19783  1.0000
  C   C71       1.0  0.30469  0.49573  0.21654  1.0000
  H   H120      1.0  0.31532  0.26993  0.00304  1.0000
  H   H121      1.0  0.26859  0.35735  0.19478  1.0000
  C   C72       1.0  0.33073  0.17334  0.23238  1.0000
  N   N7        1.0  0.31710  0.15691  0.22595  1.0000
  H   H122      1.0  0.39908  0.22171  0.04380  1.0000
  S   S16       1.0  0.31529  0.36161  0.23065  1.0000
  H   H123      1.0  0.17518  0.32531  0.23200  1.0000
  H   H124      1.0  0.31017  0.23199  0.02145  1.0000
  H   H125      1.0  0.03572  0.21048  0.18826  1.0000
  H   H126      1.0  0.27471  0.44237  0.18123  1.0000
  H   H127      1.0  0.29326  0.41931  0.22078  1.0000
  H   H128      1.0  0.45147  0.27653  0.22743  1.0000
  H   H129      1.0  0.33076  0.46667  0.22083  1.0000
  H   H130      1.0  0.33582  0.01674  0.17166  1.0000
  H   H131      1.0  0.30658  0.46726  0.24194  1.0000
  C   C73       1.0  0.29935  0.43237  0.22857  1.0000
  C   C74       1.0  0.30492  0.99906  0.17663  1.0000
  H   H132      1.0  0.37196  0.29361  0.23945  1.0000
  C   C75       1.0  0.33102  0.99960  0.17274  1.0000
  H   H133      1.0  0.43773  0.32699  0.23241  1.0000
  H   H134      1.0  0.24628  0.26926  0.23964  1.0000
  Fe  Fe7       1.0  0.13298  0.22740  0.24237  1.0000
  C   C76       1.0  0.32982  0.13301  0.22857  1.0000
  H   H135      1.0  0.31866  0.00680  0.24099  1.0000
  H   H136      1.0  0.32473  0.12288  0.21680  1.0000
  H   H137      1.0  0.47576  0.32669  0.24133  1.0000
  H   H138      1.0  0.33450  0.41356  0.22458  1.0000
  H   H139      1.0  0.28347  0.14617  0.23315  1.0000
  C   C77       1.0  0.29337  0.15764  0.23925  1.0000
  C   C78       1.0  0.27888  0.18132  0.23873  1.0000
  Fe  Fe8       1.0  0.26979  0.04034  0.27662  1.0000
  S   S17       1.0  0.29708  0.06334  0.27029  1.0000
  H   H140      1.0  0.34942  0.15817  0.26088  1.0000
  Fe  Fe9       1.0  0.23338  0.07879  0.26320  1.0000
  C   C79       1.0  0.19875  0.32437  0.25581  1.0000
  H   H141      1.0  0.17311  0.22058  0.35907  1.0000
  H   H142      1.0  0.46236  0.25737  0.30074  1.0000
  H   H143      1.0  0.29375  0.15099  0.25739  1.0000
  Fe  Fe10      1.0  0.27087  0.08884  0.28700  1.0000
  S   S18       1.0  0.28233  0.11669  0.30191  1.0000
  C   C80       1.0  0.17112  0.29781  0.25931  1.0000
  S   S19       1.0  0.24469  0.06443  0.29697  1.0000
  S   S20       1.0  0.14398  0.16769  0.31045  1.0000
  S   S21       1.0  0.11457  0.22945  0.30604  1.0000
  Fe  Fe11      1.0  0.30113  0.20847  0.40544  1.0000
  S   S22       1.0  0.28305  0.20083  0.37859  1.0000
  S   S23       1.0  0.33902  0.21006  0.40033  1.0000
  Fe  Fe12      1.0  0.25836  0.21312  0.43971  1.0000
  S   S24       1.0  0.23612  0.20565  0.41559  1.0000
  S   S25       1.0  0.24236  0.22308  0.47420  1.0000
  Fe  Fe13      1.0  0.26472  0.17829  0.40621  1.0000
  S   S26       1.0  0.25726  0.14404  0.40027  1.0000
  Fe  Fe14      1.0  0.25576  0.22856  0.38938  1.0000
  S   S27       1.0  0.23906  0.24967  0.36070  1.0000
  S   S28       1.0  0.28529  0.18345  0.43278  1.0000
  S   S29       1.0  0.27559  0.23856  0.41387  1.0000
  C   C81       1.0  0.46091  0.27599  0.29533  1.0000
  S   S30       1.0  0.42388  0.23232  0.28289  1.0000
  S   S31       1.0  0.39603  0.17850  0.31095  1.0000
  H   H144      1.0  0.34282  0.16182  0.31379  1.0000
  S   S32       1.0  0.22311  0.38497  0.28788  1.0000
  H   H145      1.0  0.13879  0.32795  0.36254  1.0000
  C   C82       1.0  0.33596  0.34344  0.26813  1.0000
  S   S33       1.0  0.27781  0.39248  0.28199  1.0000
  C   C83       1.0  0.19680  0.29394  0.28727  1.0000
  Fe  Fe15      1.0  0.25569  0.36624  0.29987  1.0000
  S   S34       1.0  0.25772  0.35161  0.33631  1.0000
  S   S35       1.0  0.16310  0.26684  0.29749  1.0000
  C   C84       1.0  0.33421  0.17079  0.25742  1.0000
  H   H146      1.0  0.24295  0.22588  0.32089  1.0000
  S   S36       1.0  0.05442  0.25074  0.28275  1.0000
  H   H147      1.0  0.19015  0.18022  0.37468  1.0000
  S   S37       1.0  0.19745  0.09011  0.25561  1.0000
  C   C85       1.0  0.16382  0.12569  0.26296  1.0000
  H   H148      1.0  0.13724  0.15382  0.26876  1.0000
  C   C86       1.0  0.35161  0.32786  0.27982  1.0000
  H   H149      1.0  0.23597  0.00079  0.27508  1.0000
  H   H150      1.0  0.15931  0.37297  0.31343  1.0000
  C   C87       1.0  0.13978  0.33767  0.34525  1.0000
  Fe  Fe16      1.0  0.24588  0.40967  0.26767  1.0000
  H   H151      1.0  0.13436  0.35089  0.29951  1.0000
  S   S38       1.0  0.11689  0.25956  0.25600  1.0000
  Fe  Fe17      1.0  0.14039  0.24833  0.28247  1.0000
  H   H152      1.0  0.47487  0.22234  0.28011  1.0000
  C   C88       1.0  0.24432  0.27794  0.35445  1.0000
  C   C89       1.0  0.25085  0.28901  0.37053  1.0000
  C   C90       1.0  0.25457  0.31180  0.36503  1.0000
  C   C91       1.0  0.25201  0.32343  0.34338  1.0000
  C   C92       1.0  0.24522  0.31235  0.32749  1.0000
  C   C93       1.0  0.24142  0.28967  0.33298  1.0000
  H   H153      1.0  0.25270  0.28014  0.38729  1.0000
  H   H154      1.0  0.25953  0.32039  0.37751  1.0000
  H   H155      1.0  0.24258  0.32131  0.31107  1.0000
  H   H156      1.0  0.23634  0.28115  0.32054  1.0000
  C   C94       1.0  0.35464  0.20245  0.37488  1.0000
  C   C95       1.0  0.34447  0.20524  0.35510  1.0000
  C   C96       1.0  0.35756  0.19921  0.33495  1.0000
  C   C97       1.0  0.38051  0.18941  0.33488  1.0000
  C   C98       1.0  0.39065  0.18680  0.35459  1.0000
  C   C99       1.0  0.37785  0.19367  0.37444  1.0000
  H   H157      1.0  0.32662  0.21216  0.35523  1.0000
  H   H158      1.0  0.34969  0.20128  0.31969  1.0000
  H   H159      1.0  0.40840  0.17928  0.35456  1.0000
  H   H160      1.0  0.38581  0.19164  0.38964  1.0000
  H   H161      1.0  0.21799  0.17770  0.38277  1.0000
  H   H162      1.0  0.21383  0.16146  0.36193  1.0000
  H   H163      1.0  0.35359  0.32982  0.29683  1.0000
  H   H164      1.0  0.10482  0.35467  0.35141  1.0000
  C   C100      1.0  0.34200  0.14446  0.32314  1.0000
  S   S39       1.0  0.38407  0.29050  0.28457  1.0000
  C   C101      1.0  0.17838  0.28699  0.27967  1.0000
  H   H165      1.0  0.20265  0.28528  0.30282  1.0000
  C   C102      1.0  0.27087  0.12506  0.32845  1.0000
  C   C103      1.0  0.26199  0.10991  0.34650  1.0000
  C   C104      1.0  0.25703  0.11616  0.36843  1.0000
  C   C105      1.0  0.26063  0.13762  0.37231  1.0000
  C   C106      1.0  0.26813  0.15313  0.35394  1.0000
  C   C107      1.0  0.27351  0.14681  0.33219  1.0000
  H   H166      1.0  0.26002  0.09304  0.34379  1.0000
  H   H167      1.0  0.25104  0.10409  0.38253  1.0000
  H   H168      1.0  0.27055  0.16977  0.35651  1.0000
  H   H169      1.0  0.28046  0.15858  0.31833  1.0000
  C   C108      1.0  0.18316  0.11209  0.27060  1.0000
  H   H170      1.0  0.13321  0.32695  0.33499  1.0000
  C   C109      1.0  0.15223  0.14342  0.27465  1.0000
  C   C110      1.0  0.15936  0.14684  0.29462  1.0000
  C   C111      1.0  0.17863  0.13316  0.30236  1.0000
  C   C112      1.0  0.19082  0.11611  0.29009  1.0000
  H   H171      1.0  0.16263  0.37116  0.35210  1.0000
  H   H172      1.0  0.18412  0.13574  0.31785  1.0000
  H   H173      1.0  0.20571  0.10562  0.29610  1.0000
  C   C113      1.0  0.36458  0.30978  0.26958  1.0000
  C   C114      1.0  0.01156  0.24790  0.27311  1.0000
  N   N8        1.0  0.33667  0.12404  0.36419  1.0000
  C   C115      1.0  0.32408  0.10772  0.35606  1.0000
  C   C116      1.0  0.33389  0.14609  0.34844  1.0000
  C   C117      1.0  0.32511  0.12784  0.38763  1.0000
  C   C118      1.0  0.36144  0.11362  0.36443  1.0000
  C   C119      1.0  0.32188  0.08493  0.37148  1.0000
  H   H174      1.0  0.30641  0.11575  0.35367  1.0000
  C   C120      1.0  0.33352  0.14565  0.39874  1.0000
  H   H175      1.0  0.00757  0.26551  0.27580  1.0000
  H   H176      1.0  0.39339  0.12152  0.37241  1.0000
  H   H177      1.0  0.33238  0.10331  0.33920  1.0000
  H   H178      1.0  0.47827  0.28089  0.29379  1.0000
  S   S40       1.0  0.10749  0.20575  0.26262  1.0000
  H   H179      1.0  0.30632  0.13296  0.38752  1.0000
  H   H180      1.0  0.32699  0.11191  0.39972  1.0000
  H   H181      1.0  0.36330  0.10097  0.37983  1.0000
  H   H182      1.0  0.36725  0.10404  0.34976  1.0000
  H   H183      1.0  0.33859  0.07625  0.37627  1.0000
  H   H184      1.0  0.30924  0.08724  0.38683  1.0000
  H   H185      1.0  0.31512  0.07349  0.36222  1.0000
  H   H186      1.0  0.15769  0.12233  0.24812  1.0000
  Fe  Fe18      1.0  0.39549  0.25778  0.27004  1.0000
  H   H187      1.0  0.31559  0.15396  0.35003  1.0000
  H   H188      1.0  0.32253  0.14741  0.41518  1.0000
  H   H189      1.0  0.33188  0.16274  0.38871  1.0000
  H   H190      1.0  0.35119  0.14017  0.40282  1.0000
  S   S41       1.0  0.28234  0.00253  0.28361  1.0000
  S   S42       1.0  0.41405  0.20035  0.24653  1.0000
  H   H191      1.0  0.35936  0.13473  0.32021  1.0000
  N   N9        1.0  0.16419  0.34118  0.33611  1.0000
  C   C121      1.0  0.17824  0.31810  0.33477  1.0000
  H   H192      1.0  0.18401  0.35444  0.30487  1.0000
  C   C122      1.0  0.17287  0.35407  0.35162  1.0000
  C   C123      1.0  0.18404  0.30432  0.35742  1.0000
  C   C124      1.0  0.15322  0.34657  0.29577  1.0000
  C   C125      1.0  0.19813  0.35827  0.34531  1.0000
  H   H193      1.0  0.19480  0.31933  0.32357  1.0000
  H   H194      1.0  0.16928  0.30719  0.32686  1.0000
  H   H195      1.0  0.17035  0.34567  0.36946  1.0000
  H   H196      1.0  0.19667  0.31185  0.36451  1.0000
  H   H197      1.0  0.16865  0.30240  0.37009  1.0000
  H   H198      1.0  0.19220  0.28694  0.35438  1.0000
  H   H199      1.0  0.15748  0.32810  0.29530  1.0000
  H   H200      1.0  0.15853  0.35522  0.27850  1.0000
  H   H201      1.0  0.19916  0.37651  0.33907  1.0000
  H   H202      1.0  0.20795  0.34849  0.33212  1.0000
  H   H203      1.0  0.20720  0.35357  0.36043  1.0000
  H   H204      1.0  0.44728  0.32024  0.29234  1.0000
  Fe  Fe19      1.0  0.40096  0.20652  0.28221  1.0000
  H   H205      1.0  0.22044  0.31855  0.28191  1.0000
  C   C126      1.0  0.24059  0.49183  0.25763  1.0000
  S   S43       1.0  0.26396  0.34404  0.27243  1.0000
  H   H206      1.0  0.24952  0.27867  0.26529  1.0000
  C   C127      1.0  0.43826  0.32129  0.27737  1.0000
  H   H207      1.0  0.12514  0.36855  0.36067  1.0000
  H   H208      1.0  0.43272  0.27812  0.27665  1.0000
  H   H209      1.0  0.14992  0.20660  0.35644  1.0000
  C   C128      1.0  0.12239  0.35946  0.34697  1.0000
  C   C129      1.0  0.36213  0.30754  0.24746  1.0000
  H   H210      1.0  0.32584  0.35726  0.27619  1.0000
  C   C130      1.0  0.25848  0.27582  0.24819  1.0000
  S   S44       1.0  0.15842  0.21786  0.26696  1.0000
  C   C131      1.0  0.20685  0.31273  0.27550  1.0000
  C   C132      1.0  0.26716  0.46403  0.27732  1.0000
  Fe  Fe20      1.0  0.09260  0.23735  0.27800  1.0000
  C   C133      1.0  0.49124  0.22656  0.27142  1.0000
  C   C134      1.0  0.02184  0.20267  0.26572  1.0000
  H   H211      1.0  0.29412  0.47747  0.28864  1.0000
  H   H212      1.0  0.42111  0.31605  0.28421  1.0000
  H   H213      1.0  0.28633  0.19741  0.48433  1.0000
  H   H214      1.0  0.23264  0.24524  0.29800  1.0000
  C   C135      1.0  0.18136  0.31646  0.24737  1.0000
  H   H215      1.0  0.19386  0.17927  0.29154  1.0000
  S   S45       1.0  0.23369  0.44747  0.26019  1.0000
  H   H216      1.0  0.21561  0.19736  0.27997  1.0000
  C   C136      1.0  0.24795  0.46909  0.26593  1.0000
  H   H217      1.0  0.27288  0.44664  0.28396  1.0000
  H   H218      1.0  0.30887  0.11342  0.25552  1.0000
  H   H219      1.0  0.22265  0.16716  0.28368  1.0000
  H   H220      1.0  0.32966  0.13690  0.31565  1.0000
  H   H221      1.0  0.37263  0.14601  0.36995  1.0000
  H   H222      1.0  0.34298  0.15888  0.35300  1.0000
  H   H223      1.0  0.17700  0.18013  0.33985  1.0000
  H   H224      1.0  0.15754  0.23001  0.33545  1.0000
  C   C137      1.0  0.03860  0.21351  0.27203  1.0000
  H   H225      1.0  0.05535  0.20423  0.27429  1.0000
  C   C138      1.0  0.37921  0.13009  0.36289  1.0000
  C   C139      1.0  0.03361  0.23625  0.27553  1.0000
  H   H226      1.0  0.24185  0.21621  0.29427  1.0000
  Fe  Fe21      1.0  0.13138  0.19961  0.28882  1.0000
  C   C140      1.0  0.16578  0.35467  0.31276  1.0000
  N   N10       1.0  0.32852  0.27987  0.34322  1.0000
  C   C141      1.0  0.32761  0.26587  0.32484  1.0000
  C   C142      1.0  0.35326  0.28263  0.34300  1.0000
  C   C143      1.0  0.31509  0.30288  0.33707  1.0000
  C   C144      1.0  0.31799  0.26819  0.36561  1.0000
  C   C145      1.0  0.30342  0.26263  0.32097  1.0000
  C   C146      1.0  0.37028  0.26041  0.34437  1.0000
  C   C147      1.0  0.31469  0.32081  0.35265  1.0000
  C   C148      1.0  0.32667  0.27230  0.38717  1.0000
  H   H227      1.0  0.33659  0.27332  0.30834  1.0000
  H   H228      1.0  0.33686  0.24845  0.32854  1.0000
  H   H229      1.0  0.35544  0.29159  0.35699  1.0000
  H   H230      1.0  0.35938  0.29371  0.32742  1.0000
  H   H231      1.0  0.32156  0.31032  0.31958  1.0000
  H   H232      1.0  0.29682  0.30146  0.33682  1.0000
  H   H233      1.0  0.29902  0.27287  0.36801  1.0000
  H   H234      1.0  0.32071  0.24944  0.36601  1.0000
  H   H235      1.0  0.29271  0.25673  0.33692  1.0000
  H   H236      1.0  0.29439  0.27838  0.31232  1.0000
  H   H237      1.0  0.30507  0.24946  0.30967  1.0000
  H   H238      1.0  0.36381  0.24709  0.35755  1.0000
  H   H239      1.0  0.37415  0.25383  0.32784  1.0000
  H   H240      1.0  0.38678  0.26379  0.34852  1.0000
  H   H241      1.0  0.33199  0.32356  0.35509  1.0000
  H   H242      1.0  0.30396  0.31674  0.36909  1.0000
  H   H243      1.0  0.30636  0.33736  0.34473  1.0000
  H   H244      1.0  0.34438  0.26364  0.38836  1.0000
  H   H245      1.0  0.31580  0.26471  0.40223  1.0000
  H   H246      1.0  0.32587  0.29043  0.38866  1.0000
  N   N11       1.0  0.20526  0.19998  0.32815  1.0000
  C   C149      1.0  0.21784  0.18113  0.31534  1.0000
  C   C150      1.0  0.21512  0.19801  0.34999  1.0000
  C   C151      1.0  0.20801  0.22301  0.31488  1.0000
  C   C152      1.0  0.18010  0.19771  0.33237  1.0000
  C   C153      1.0  0.21195  0.18162  0.29130  1.0000
  C   C154      1.0  0.20871  0.17812  0.36814  1.0000
  C   C155      1.0  0.23292  0.22750  0.30665  1.0000
  C   C156      1.0  0.16449  0.21482  0.34658  1.0000
  H   H247      1.0  0.23673  0.18069  0.31393  1.0000
  H   H248      1.0  0.21442  0.16428  0.32472  1.0000
  H   H249      1.0  0.21032  0.21387  0.35787  1.0000
  H   H250      1.0  0.23418  0.19599  0.34682  1.0000
  H   H251      1.0  0.19871  0.22614  0.29986  1.0000
  H   H252      1.0  0.19983  0.23668  0.32517  1.0000
  H   H253      1.0  0.17301  0.20025  0.31609  1.0000
  H   H254      1.0  0.12262  0.37119  0.33088  1.0000
  C   C157      1.0  0.43412  0.34677  0.26800  1.0000
  Fe  Fe22      1.0  0.28301  0.37175  0.25341  1.0000
  C   C158      1.0  0.27914  0.48153  0.27998  1.0000
  H   H255      1.0  0.27356  0.26281  0.25075  1.0000
  H   H256      1.0  0.44941  0.28394  0.30907  1.0000
  S   S46       1.0  0.37151  0.23231  0.27326  1.0000
  H   H257      1.0  0.45945  0.26888  0.26199  1.0000
  N   N12       1.0  0.45140  0.30567  0.26106  1.0000
  H   H258      1.0  0.42046  0.35037  0.25689  1.0000
  H   H259      1.0  0.38740  0.13408  0.34515  1.0000
  Fe  Fe23      1.0  0.23313  0.36459  0.25897  1.0000
  S   S47       1.0  0.25759  0.10451  0.25460  1.0000
  S   S48       1.0  0.25639  0.05322  0.24373  1.0000
  H   H260      1.0  0.15697  0.29248  0.25327  1.0000
  C   C159      1.0  0.45074  0.28171  0.27284  1.0000
  H   H261      1.0  0.31747  0.40567  0.25055  1.0000
  C   C160      1.0  0.49492  0.23030  0.24780  1.0000
  H   H262      1.0  0.32924  0.12703  0.26592  1.0000
  H   H263      1.0  0.48156  0.31636  0.26939  1.0000
  Fe  Fe24      1.0  0.43526  0.22846  0.24643  1.0000
  H   H264      1.0  0.42783  0.35665  0.28232  1.0000
  H   H265      1.0  0.31906  0.16630  0.26938  1.0000
  C   C161      1.0  0.47550  0.31154  0.25455  1.0000
  C   C162      1.0  0.32630  0.11853  0.25197  1.0000
  H   H266      1.0  0.02593  0.18510  0.26287  1.0000
  H   H267      1.0  0.44997  0.35318  0.25892  1.0000
  H   H268      1.0  0.33852  0.10255  0.25191  1.0000
  C   C163      1.0  0.33397  0.34154  0.24580  1.0000
  H   H269      1.0  0.27657  0.30468  0.24558  1.0000
  C   C164      1.0  0.49423  0.29267  0.24604  1.0000
  H   H270      1.0  0.32913  0.43162  0.24676  1.0000
  H   H271      1.0  0.42074  0.30568  0.24608  1.0000
  H   H272      1.0  0.33707  0.18746  0.26131  1.0000
  H   H273      1.0  0.22572  0.49587  0.24882  1.0000
  H   H274      1.0  0.28616  0.43590  0.24330  1.0000
  H   H275      1.0  0.00270  0.18132  0.35932  1.0000
  H   H276      1.0  0.26190  0.17957  0.24900  1.0000
  H   H277      1.0  0.28690  0.19310  0.24636  1.0000
  S   S49       1.0  0.12796  0.24034  0.70132  1.0000
  H   H278      1.0  0.31326  0.45626  0.72782  1.0000
  Fe  Fe25      1.0  0.23943  0.21028  0.63033  1.0000
  S   S50       1.0  0.24247  0.23965  0.60246  1.0000
  S   S51       1.0  0.21120  0.18889  0.64268  1.0000
  Fe  Fe26      1.0  0.28654  0.21069  0.64315  1.0000
  S   S52       1.0  0.29440  0.23958  0.61615  1.0000
  S   S53       1.0  0.30624  0.19279  0.67122  1.0000
  Fe  Fe27      1.0  0.25822  0.25487  0.62721  1.0000
  S   S54       1.0  0.25072  0.29149  0.63360  1.0000
  Fe  Fe28      1.0  0.27831  0.22206  0.59352  1.0000
  S   S55       1.0  0.29583  0.21397  0.55895  1.0000
  S   S56       1.0  0.25147  0.22709  0.65559  1.0000
  S   S57       1.0  0.27399  0.19159  0.61988  1.0000
  H   H279      1.0  0.24493  0.22653  0.72849  1.0000
  H   H280      1.0  0.21117  0.00537  0.71234  1.0000
  S   S58       1.0  0.27817  0.36842  0.72091  1.0000
  C   C165      1.0  0.25047  0.03482  0.70908  1.0000
  H   H281      1.0  0.34115  0.31901  0.70289  1.0000
  H   H282      1.0  0.36451  0.11156  0.70542  1.0000
  H   H283      1.0  0.38381  0.13991  0.71205  1.0000
  H   H284      1.0  0.30653  0.41132  0.69519  1.0000
  C   C166      1.0  0.33228  0.45339  0.72665  1.0000
  Fe  Fe29      1.0  0.40027  0.22318  0.72456  1.0000
  S   S59       1.0  0.39109  0.23431  0.68935  1.0000
  H   H285      1.0  0.34386  0.42578  0.69388  1.0000
  H   H286      1.0  0.16592  0.30136  0.68021  1.0000
  C   C167      1.0  0.37058  0.31542  0.73895  1.0000
  H   H287      1.0  0.18936  0.14115  0.72325  1.0000
  H   H288      1.0  0.13858  0.31426  0.70945  1.0000
  H   H289      1.0  0.41388  0.16014  0.67170  1.0000
  H   H290      1.0  0.33742  0.14785  0.71273  1.0000
  H   H291      1.0  0.33256  0.27269  0.64561  1.0000
  H   H292      1.0  0.36865  0.16497  0.69952  1.0000
  C   C168      1.0  0.30909  0.42152  0.70812  1.0000
  H   H293      1.0  0.18109  0.03927  0.71387  1.0000
  H   H294      1.0  0.19430  0.30794  0.66943  1.0000
  H   H295      1.0  0.32465  0.14510  0.68808  1.0000
  H   H296      1.0  0.39746  0.09115  0.69397  1.0000
  H   H297      1.0  0.30358  0.28203  0.64084  1.0000
  C   C169      1.0  0.32828  0.20641  0.67654  1.0000
  C   C170      1.0  0.34042  0.21976  0.65914  1.0000
  C   C171      1.0  0.35969  0.22834  0.66320  1.0000
  C   C172      1.0  0.36668  0.22382  0.68471  1.0000
  C   C173      1.0  0.35423  0.21084  0.70220  1.0000
  C   C174      1.0  0.33509  0.20209  0.69810  1.0000
  H   H298      1.0  0.33548  0.22279  0.64235  1.0000
  H   H299      1.0  0.36943  0.23817  0.64955  1.0000
  H   H300      1.0  0.35964  0.20704  0.71876  1.0000
  H   H301      1.0  0.32587  0.19159  0.71156  1.0000
  C   C175      1.0  0.25198  0.29723  0.66102  1.0000
  C   C176      1.0  0.24830  0.31979  0.66547  1.0000
  C   C177      1.0  0.24812  0.32467  0.68749  1.0000
  C   C178      1.0  0.25113  0.30694  0.70520  1.0000
  C   C179      1.0  0.25537  0.28444  0.70066  1.0000
  C   C180      1.0  0.25616  0.27964  0.67861  1.0000
  H   H302      1.0  0.24520  0.33350  0.65192  1.0000
  H   H303      1.0  0.24459  0.34207  0.69092  1.0000
  H   H304      1.0  0.25779  0.27067  0.71429  1.0000
  H   H305      1.0  0.25969  0.26231  0.67535  1.0000
  C   C181      1.0  0.28202  0.21845  0.53443  1.0000
  C   C182      1.0  0.26194  0.23378  0.53261  1.0000
  S   S60       1.0  0.42574  0.23905  0.73845  1.0000
  H   H306      1.0  0.20921  0.20206  0.73928  1.0000
  H   H307      1.0  0.32454  0.12341  0.71163  1.0000
  H   H308      1.0  0.40891  0.13126  0.65794  1.0000
  H   H309      1.0  0.25537  0.24421  0.54581  1.0000
  C   C183      1.0  0.17962  0.31044  0.68309  1.0000
  C   C184      1.0  0.33500  0.13604  0.70130  1.0000
  C   C185      1.0  0.15128  0.22580  0.68547  1.0000
  C   C186      1.0  0.15920  0.20298  0.69230  1.0000
  C   C187      1.0  0.17748  0.19156  0.67895  1.0000
  C   C188      1.0  0.18842  0.20321  0.65930  1.0000
  C   C189      1.0  0.18091  0.22617  0.65282  1.0000
  C   C190      1.0  0.16204  0.23732  0.66564  1.0000
  H   H310      1.0  0.15078  0.19397  0.70748  1.0000
  H   H311      1.0  0.18313  0.17372  0.68386  1.0000
  H   H312      1.0  0.18929  0.23520  0.63762  1.0000
  H   H313      1.0  0.15591  0.25495  0.66029  1.0000
  C   C191      1.0  0.23140  0.16888  0.74193  1.0000
  N   N13       1.0  0.21265  0.18815  0.56332  1.0000
  C   C192      1.0  0.23790  0.18937  0.56232  1.0000
  C   C193      1.0  0.20292  0.20874  0.54825  1.0000
  C   C194      1.0  0.21064  0.16654  0.55446  1.0000
  C   C195      1.0  0.20181  0.18780  0.58761  1.0000
  C   C196      1.0  0.25197  0.16888  0.57501  1.0000
  C   C197      1.0  0.20140  0.23177  0.55689  1.0000
  C   C198      1.0  0.18053  0.26367  0.70876  1.0000
  C   C199      1.0  0.17551  0.18910  0.59246  1.0000
  H   H314      1.0  0.24632  0.19120  0.54442  1.0000
  H   H315      1.0  0.24073  0.20446  0.56937  1.0000
  H   H316      1.0  0.18525  0.20775  0.54538  1.0000
  H   H317      1.0  0.21304  0.20979  0.53101  1.0000
  H   H318      1.0  0.22466  0.16320  0.54029  1.0000
  H   H319      1.0  0.21291  0.15164  0.56782  1.0000
  H   H320      1.0  0.20856  0.17199  0.59809  1.0000
  H   H321      1.0  0.20687  0.20150  0.59538  1.0000
  H   H322      1.0  0.24643  0.16704  0.59352  1.0000
  H   H323      1.0  0.25168  0.15278  0.56848  1.0000
  H   H324      1.0  0.27020  0.17184  0.57235  1.0000
  H   H325      1.0  0.21811  0.23536  0.56000  1.0000
  H   H326      1.0  0.19527  0.24557  0.54381  1.0000
  H   H327      1.0  0.18893  0.23297  0.57250  1.0000
  H   H328      1.0  0.23458  0.24711  0.51262  1.0000
  C   C200      1.0  0.32100  0.34062  0.67935  1.0000
  H   H329      1.0  0.30232  0.43938  0.70225  1.0000
  H   H330      1.0  0.17032  0.17185  0.59548  1.0000
  H   H331      1.0  0.16647  0.19976  0.57908  1.0000
  H   H332      1.0  0.16926  0.19733  0.60792  1.0000
  H   H333      1.0  0.29562  0.30224  0.67464  1.0000
  C   C201      1.0  0.40517  0.16130  0.68905  1.0000
  H   H334      1.0  0.37861  0.29779  0.64346  1.0000
  H   H335      1.0  0.35367  0.11232  0.67962  1.0000
  C   C202      1.0  0.40809  0.10455  0.68589  1.0000
  C   C203      1.0  0.25031  0.23548  0.51374  1.0000
  H   H336      1.0  0.41751  0.15338  0.70096  1.0000
  C   C204      1.0  0.35793  0.12335  0.69106  1.0000
  C   C205      1.0  0.38246  0.15092  0.69558  1.0000
  H   H337      1.0  0.41347  0.11255  0.69909  1.0000
  H   H338      1.0  0.17270  0.16987  0.55679  1.0000
  C   C206      1.0  0.26053  0.47353  0.72797  1.0000
  H   H339      1.0  0.33519  0.28852  0.73093  1.0000
  C   C207      1.0  0.18352  0.13462  0.74058  1.0000
  H   H340      1.0  0.30879  0.26297  0.66565  1.0000
  H   H341      1.0  0.37620  0.31914  0.72102  1.0000
  H   H342      1.0  0.35149  0.31347  0.64108  1.0000
  H   H343      1.0  0.20697  0.30173  0.70316  1.0000
  H   H344      1.0  0.35849  0.27345  0.66944  1.0000
  C   C208      1.0  0.36524  0.15369  0.66016  1.0000
  H   H345      1.0  0.17298  0.32885  0.68057  1.0000
  H   H346      1.0  0.31126  0.31760  0.70855  1.0000
  H   H347      1.0  0.35872  0.14384  0.64902  1.0000
  C   C209      1.0  0.19594  0.27547  0.73915  1.0000
  C   C210      1.0  0.01013  0.27031  0.73624  1.0000
  C   C211      1.0  0.22479  0.04454  0.71290  1.0000
  C   C212      1.0  0.21410  0.00747  0.72960  1.0000
  S   S61       1.0  0.24659  0.31191  0.73347  1.0000
  H   H348      1.0  0.38452  0.18286  0.65420  1.0000
  C   C213      1.0  0.33726  0.27323  0.72238  1.0000
  H   H349      1.0  0.37042  0.17978  0.63148  1.0000
  H   H350      1.0  0.26805  0.13873  0.72542  1.0000
  C   C214      1.0  0.39563  0.12207  0.66875  1.0000
  H   H351      1.0  0.18751  0.07827  0.71777  1.0000
  C   C215      1.0  0.27951  0.20764  0.49766  1.0000
  C   C216      1.0  0.36379  0.30723  0.65326  1.0000
  Fe  Fe30      1.0  0.12126  0.22571  0.73785  1.0000
  N   N14       1.0  0.17996  0.28340  0.72150  1.0000
  H   H352      1.0  0.25320  0.01889  0.70138  1.0000
  H   H353      1.0  0.33886  0.46148  0.70944  1.0000
  N   N15       1.0  0.34113  0.42833  0.72968  1.0000
  H   H354      1.0  0.48831  0.23873  0.71183  1.0000
  C   C217      1.0  0.33485  0.41849  0.71038  1.0000
  H   H355      1.0  0.19784  0.17992  0.72935  1.0000
  C   C218      1.0  0.31503  0.27765  0.65417  1.0000
  H   H356      1.0  0.38971  0.11243  0.65701  1.0000
  H   H357      1.0  0.23147  0.14590  0.70936  1.0000
  H   H358      1.0  0.33049  0.25953  0.73499  1.0000
  C   C219      1.0  0.13670  0.29730  0.71922  1.0000
  H   H359      1.0  0.31580  0.31308  0.65302  1.0000
  H   H360      1.0  0.29871  0.41527  0.72407  1.0000
  H   H361      1.0  0.21721  0.24913  0.70632  1.0000
  C   C220      1.0  0.28325  0.16064  0.74166  1.0000
  H   H362      1.0  0.18326  0.31922  0.71554  1.0000
  H   H363      1.0  0.37430  0.43425  0.71123  1.0000
  H   H364      1.0  0.32734  0.26063  0.69495  1.0000
  C   C221      1.0  0.27029  0.15706  0.72269  1.0000
  H   H365      1.0  0.39612  0.16121  0.63591  1.0000
  H   H366      1.0  0.35015  0.16492  0.66720  1.0000
  S   S62       1.0  0.41399  0.18722  0.73714  1.0000
  H   H367      1.0  0.22422  0.06265  0.71505  1.0000
  C   C222      1.0  0.38038  0.17003  0.64481  1.0000
  N   N16       1.0  0.24752  0.17163  0.72009  1.0000
  C   C223      1.0  0.23701  0.16277  0.70262  1.0000
  H   H368      1.0  0.30532  0.27953  0.70852  1.0000
  H   H369      1.0  0.33115  0.48562  0.73861  1.0000
  C   C224      1.0  0.25041  0.19608  0.71172  1.0000
  C   C225      1.0  0.25236  0.15982  0.67989  1.0000
  C   C226      1.0  0.36696  0.42492  0.72753  1.0000
  H   H370      1.0  0.21409  0.27284  0.73110  1.0000
  C   C227      1.0  0.25887  0.22224  0.49631  1.0000
  H   H371      1.0  0.16798  0.26717  0.69663  1.0000
  H   H372      1.0  0.22127  0.17413  0.69820  1.0000
  H   H373      1.0  0.20992  0.26954  0.68228  1.0000
  C   C228      1.0  0.18836  0.16540  0.54504  1.0000
  H   H374      1.0  0.01778  0.26117  0.72169  1.0000
  H   H375      1.0  0.28258  0.15971  0.70692  1.0000
  H   H376      1.0  0.26389  0.19713  0.69688  1.0000
  H   H377      1.0  0.23469  0.20546  0.70499  1.0000
  H   H378      1.0  0.26674  0.14578  0.68176  1.0000
  H   H379      1.0  0.24200  0.15507  0.66812  1.0000
  H   H380      1.0  0.25903  0.17567  0.67168  1.0000
  H   H381      1.0  0.37841  0.39309  0.71276  1.0000
  N   N17       1.0  0.37582  0.13789  0.67887  1.0000
  H   H382      1.0  0.30335  0.34292  0.67482  1.0000
  H   H383      1.0  0.21805  0.04492  0.69665  1.0000
  H   H384      1.0  0.40178  0.17967  0.69084  1.0000
  S   S63       1.0  0.22250  0.10368  0.73786  1.0000
  H   H385      1.0  0.42388  0.09582  0.67680  1.0000
  C   C229      1.0  0.18795  0.30402  0.70658  1.0000
  H   H386      1.0  0.39685  0.39912  0.73082  1.0000
  H   H387      1.0  0.34046  0.39986  0.71191  1.0000
  H   H388      1.0  0.16035  0.07228  0.73246  1.0000
  H   H389      1.0  0.33348  0.34251  0.66384  1.0000
  H   H390      1.0  0.30668  0.19406  0.51779  1.0000
  H   H391      1.0  0.32184  0.35475  0.68882  1.0000
  H   H392      1.0  0.25445  0.47718  0.71167  1.0000
  H   H393      1.0  0.36600  0.29070  0.68673  1.0000
  H   H394      1.0  0.25988  0.04723  0.69701  1.0000
  H   H395      1.0  0.18760  0.17634  0.52847  1.0000
  N   N18       1.0  0.32978  0.29642  0.68370  1.0000
  C   C230      1.0  0.32397  0.27707  0.70185  1.0000
  C   C231      1.0  0.31359  0.29848  0.66646  1.0000
  C   C232      1.0  0.32605  0.31784  0.69467  1.0000
  C   C233      1.0  0.35455  0.29099  0.67382  1.0000
  C   C234      1.0  0.29099  0.20575  0.51666  1.0000
  S   S64       1.0  0.24890  0.43073  0.72971  1.0000
  S   S65       1.0  0.33914  0.35349  0.73366  1.0000
  H   H396      1.0  0.36970  0.32179  0.65876  1.0000
  C   C235      1.0  0.37857  0.39999  0.72867  1.0000
  H   H397      1.0  0.02396  0.27720  0.74221  1.0000
  H   H398      1.0  0.35576  0.26740  0.71766  1.0000
  H   H399      1.0  0.17508  0.24869  0.72058  1.0000
  C   C236      1.0  0.25661  0.21021  0.72855  1.0000
  H   H400      1.0  0.20202  0.24172  0.68624  1.0000
  H   H401      1.0  0.18829  0.14775  0.54185  1.0000
  H   H402      1.0  0.13492  0.28515  0.70793  1.0000
  C   C237      1.0  0.20388  0.25583  0.69527  1.0000
  H   H403      1.0  0.27431  0.21448  0.72316  1.0000
  H   H404      1.0  0.25837  0.03175  0.72483  1.0000
  N   N19       1.0  0.21021  0.03231  0.73240  1.0000
  H   H405      1.0  0.23219  0.00006  0.73106  1.0000
  H   H406      1.0  0.12016  0.29931  0.73061  1.0000
  H   H407      1.0  0.29882  0.14779  0.74182  1.0000
  C   C238      1.0  0.17914  0.06748  0.73235  1.0000
  C   C239      1.0  0.26922  0.49051  0.73635  1.0000
  C   C240      1.0  0.25985  0.45182  0.74050  1.0000
  C   C241      1.0  0.18554  0.04195  0.73037  1.0000
  H   H408      1.0  0.28961  0.17728  0.73842  1.0000
  H   H409      1.0  0.37325  0.43226  0.74062  1.0000
  C   C242      1.0  0.15614  0.28896  0.73379  1.0000
  C   C243      1.0  0.20775  0.18368  0.74198  1.0000
  H   H410      1.0  0.37471  0.10755  0.74280  1.0000
  Fe  Fe31      1.0  0.25764  0.34296  0.74268  1.0000
  Fe  Fe32      1.0  0.26826  0.04118  0.78576  1.0000
  H   H411      1.0  0.21085  0.13190  0.85742  1.0000
  Fe  Fe33      1.0  0.26080  0.08444  0.80822  1.0000
  S   S66       1.0  0.26795  0.10691  0.77539  1.0000
  S   S67       1.0  0.24961  0.09698  0.84195  1.0000
  H   H412      1.0  0.04930  0.18736  0.82947  1.0000
  H   H413      1.0  0.31082  0.28951  0.79758  1.0000
  H   H414      1.0  0.30281  0.24742  0.86684  1.0000
  C   C244      1.0  0.17648  0.13248  0.87521  1.0000
  S   S68       1.0  0.23716  0.06584  0.79523  1.0000
  S   S69       1.0  0.29140  0.05815  0.80184  1.0000
  Fe  Fe34      1.0  0.26659  0.20314  0.88658  1.0000
  S   S70       1.0  0.23710  0.19169  0.91121  1.0000
  S   S71       1.0  0.28603  0.18517  0.85798  1.0000
  Fe  Fe35      1.0  0.26149  0.24844  0.90359  1.0000
  S   S72       1.0  0.23111  0.24112  0.92938  1.0000
  S   S73       1.0  0.27630  0.28085  0.90058  1.0000
  Fe  Fe36      1.0  0.25172  0.20686  0.93671  1.0000
  S   S74       1.0  0.25471  0.18781  0.97193  1.0000
  Fe  Fe37      1.0  0.21936  0.22690  0.90158  1.0000
  S   S75       1.0  0.18273  0.23233  0.89386  1.0000
  S   S76       1.0  0.28300  0.21511  0.91257  1.0000
  S   S77       1.0  0.24802  0.23744  0.87538  1.0000
  Fe  Fe38      1.0  0.08589  0.22661  0.77961  1.0000
  H   H415      1.0  0.07844  0.15723  0.79483  1.0000
  H   H416      1.0  0.32661  0.41953  0.78752  1.0000
  Fe  Fe39      1.0  0.12286  0.18655  0.77589  1.0000
  H   H417      1.0  0.33229  0.23384  0.86438  1.0000
  S   S78       1.0  0.13006  0.14944  0.78872  1.0000
  Fe  Fe40      1.0  0.13590  0.23158  0.78201  1.0000
  S   S79       1.0  0.16421  0.24693  0.79199  1.0000
  C   C245      1.0  0.29331  0.24140  0.82407  1.0000
  S   S80       1.0  0.11145  0.20926  0.80265  1.0000
  C   C246      1.0  0.07761  0.16186  0.83772  1.0000
  S   S81       1.0  0.23589  0.36913  0.76258  1.0000
  C   C247      1.0  0.03441  0.11811  0.81131  1.0000
  C   C248      1.0  0.21014  0.15998  0.82013  1.0000
  H   H418      1.0  0.32447  0.24126  0.78329  1.0000
  H   H419      1.0  0.28281  0.25844  0.82344  1.0000
  Fe  Fe41      1.0  0.26250  0.35961  0.78601  1.0000
  S   S82       1.0  0.25022  0.35953  0.82303  1.0000
  S   S83       1.0  0.28462  0.38566  0.76838  1.0000
  C   C249      1.0  0.27653  0.46416  0.76983  1.0000
  C   C250      1.0  0.34566  0.32502  0.77279  1.0000
  H   H420      1.0  0.35164  0.30271  0.80353  1.0000
  H   H421      1.0  0.33196  0.33616  0.78107  1.0000
  S   S84       1.0  0.04949  0.23727  0.79511  1.0000
  H   H422      1.0  0.22649  0.15658  0.82746  1.0000
  S   S85       1.0  0.26195  0.00445  0.79569  1.0000
  H   H423      1.0  0.28894  0.23280  0.84151  1.0000
  H   H424      1.0  0.25982  0.23482  0.97412  1.0000
  C   C251      1.0  0.34070  0.41714  0.77331  1.0000
  H   H425      1.0  0.19830  0.14700  0.79246  1.0000
  H   H426      1.0  0.32035  0.15295  0.79454  1.0000
  C   C252      1.0  0.00986  0.20774  0.76254  1.0000
  C   C253      1.0  0.27025  0.30205  0.87802  1.0000
  C   C254      1.0  0.26885  0.29689  0.85653  1.0000
  C   C255      1.0  0.26429  0.31450  0.83879  1.0000
  C   C256      1.0  0.26018  0.33715  0.84298  1.0000
  C   C257      1.0  0.26148  0.34210  0.86449  1.0000
  C   C258      1.0  0.26696  0.32467  0.88179  1.0000
  H   H427      1.0  0.27126  0.27940  0.85372  1.0000
  H   H428      1.0  0.26303  0.31060  0.82223  1.0000
  H   H429      1.0  0.25816  0.35953  0.86783  1.0000
  H   H430      1.0  0.26812  0.32872  0.89834  1.0000
  C   C259      1.0  0.17793  0.23537  0.86546  1.0000
  C   C260      1.0  0.19556  0.23918  0.84766  1.0000
  C   C261      1.0  0.19112  0.24262  0.82520  1.0000
  C   C262      1.0  0.16916  0.24164  0.82032  1.0000
  C   C263      1.0  0.15158  0.23724  0.83801  1.0000
  C   C264      1.0  0.15592  0.23437  0.86056  1.0000
  H   H431      1.0  0.21255  0.23986  0.85110  1.0000
  H   H432      1.0  0.20478  0.24599  0.81156  1.0000
  H   H433      1.0  0.13452  0.23666  0.83436  1.0000
  H   H434      1.0  0.14218  0.23145  0.87424  1.0000
  H   H435      1.0  0.17386  0.18034  0.86441  1.0000
  C   C265      1.0  0.19643  0.11596  0.75178  1.0000
  Fe  Fe42      1.0  0.29721  0.07954  0.76788  1.0000
  H   H436      1.0  0.29233  0.20991  0.81004  1.0000
  C   C266      1.0  0.38099  0.29596  0.75147  1.0000
  C   C267      1.0  0.02877  0.21602  0.76800  1.0000
  C   C268      1.0  0.31408  0.10293  0.89880  1.0000
  H   H437      1.0  0.19706  0.27361  0.90654  1.0000
  C   C269      1.0  0.16845  0.16173  0.82734  1.0000
  H   H438      1.0  0.17106  0.14773  0.88374  1.0000
  C   C270      1.0  0.18840  0.10725  0.77395  1.0000
  C   C271      1.0  0.16765  0.11723  0.78496  1.0000
  C   C272      1.0  0.15523  0.13643  0.77411  1.0000
  C   C273      1.0  0.19311  0.13620  0.85308  1.0000
  H   H439      1.0  0.31812  0.28263  0.76968  1.0000
  H   H440      1.0  0.19789  0.09260  0.78255  1.0000
  H   H441      1.0  0.16146  0.11029  0.80207  1.0000
  H   H442      1.0  0.04195  0.16421  0.85017  1.0000
  C   C274      1.0  0.35408  0.14917  0.77574  1.0000
  C   C275      1.0  0.25997  0.12144  0.84618  1.0000
  C   C276      1.0  0.27201  0.13444  0.82837  1.0000
  C   C277      1.0  0.27946  0.15431  0.83210  1.0000
  C   C278      1.0  0.27516  0.16108  0.85362  1.0000
  C   C279      1.0  0.26326  0.14802  0.87146  1.0000
  C   C280      1.0  0.25557  0.12829  0.86771  1.0000
  H   H443      1.0  0.27544  0.12934  0.81174  1.0000
  H   H444      1.0  0.28847  0.16457  0.81830  1.0000
  H   H445      1.0  0.26025  0.15291  0.88823  1.0000
  H   H446      1.0  0.24634  0.11822  0.88158  1.0000
  H   H447      1.0  0.14408  0.18833  0.84265  1.0000
  H   H448      1.0  0.18109  0.30096  0.90610  1.0000
  H   H449      1.0  0.32849  0.09332  0.90734  1.0000
  C   C281      1.0  0.32504  0.25349  0.79511  1.0000
  C   C282      1.0  0.35805  0.21904  0.82204  1.0000
  Fe  Fe43      1.0  0.39973  0.23936  0.76963  1.0000
  H   H450      1.0  0.27346  0.15787  0.75878  1.0000
  C   C283      1.0  0.28434  0.22792  0.80845  1.0000
  S   S86       1.0  0.47511  0.18938  0.75351  1.0000
  H   H451      1.0  0.36590  0.20103  0.82530  1.0000
  H   H452      1.0  0.04538  0.21300  0.75801  1.0000
  C   C284      1.0  0.35678  0.30612  0.78548  1.0000
  H   H453      1.0  0.18105  0.99631  0.74641  1.0000
  C   C285      1.0  0.02607  0.22810  0.78641  1.0000
  H   H454      1.0  0.18760  0.19484  0.83984  1.0000
  H   H455      1.0  0.31262  0.27540  0.83288  1.0000
  C   C286      1.0  0.26765  0.44736  0.76157  1.0000
  H   H456      1.0  0.20538  0.47535  0.74538  1.0000
  H   H457      1.0  0.26563  0.22782  0.81372  1.0000
  C   C287      1.0  0.26019  0.22532  0.99085  1.0000
  H   H458      1.0  0.21129  0.29701  0.90789  1.0000
  H   H459      1.0  0.03748  0.16193  0.76844  1.0000
  C   C288      1.0  0.02054  0.16730  0.81343  1.0000
  C   C289      1.0  0.00429  0.23229  0.79890  1.0000
  Fe  Fe44      1.0  0.43750  0.20337  0.75370  1.0000
  H   H460      1.0  0.28421  0.00111  0.74960  1.0000
  S   S87       1.0  0.10930  0.25149  0.76159  1.0000
  H   H461      1.0  0.00406  0.25810  0.75067  1.0000
  H   H462      1.0  0.28671  0.23562  0.79049  1.0000
  H   H463      1.0  0.15125  0.27390  0.74580  1.0000
  S   S88       1.0  0.33217  0.08853  0.75181  1.0000
  Fe  Fe45      1.0  0.38865  0.19219  0.76821  1.0000
  S   S89       1.0  0.27679  0.06026  0.75108  1.0000
  S   S90       1.0  0.28265  0.33187  0.76765  1.0000
  C   C290      1.0  0.32383  0.25878  0.83462  1.0000
  H   H464      1.0  0.23863  0.17269  0.75637  1.0000
  H   H465      1.0  0.04370  0.12785  0.84086  1.0000
  H   H466      1.0  0.46488  0.23349  0.76917  1.0000
  C   C291      1.0  0.05238  0.16845  0.83351  1.0000
  C   C292      1.0  0.05517  0.15596  0.77226  1.0000
  C   C293      1.0  0.48256  0.22681  0.77084  1.0000
  H   H467      1.0  0.25552  0.20204  0.74628  1.0000
  H   H468      1.0  0.16007  0.28019  0.88916  1.0000
  H   H469      1.0  0.32547  0.21089  0.84009  1.0000
  N   N20       1.0  0.04514  0.15742  0.81550  1.0000
  H   H470      1.0  0.32943  0.20934  0.81078  1.0000
  H   H471      1.0  0.06681  0.12493  0.81860  1.0000
  H   H472      1.0  0.32518  0.26263  0.86949  1.0000
  C   C294      1.0  0.33189  0.22002  0.82337  1.0000
  C   C295      1.0  0.00307  0.16299  0.83485  1.0000
  C   C296      1.0  0.19917  0.47518  0.76372  1.0000
  N   N21       1.0  0.33798  0.11301  0.85973  1.0000
  C   C297      1.0  0.31815  0.10182  0.87309  1.0000
  C   C298      1.0  0.33709  0.11252  0.83501  1.0000
  C   C299      1.0  0.33498  0.13727  0.86470  1.0000
  C   C300      1.0  0.35985  0.09991  0.86720  1.0000
  H   H473      1.0  0.13122  0.16788  0.83246  1.0000
  C   C301      1.0  0.33828  0.08882  0.82786  1.0000
  C   C302      1.0  0.34372  0.15538  0.84562  1.0000
  C   C303      1.0  0.38235  0.10706  0.85382  1.0000
  H   H474      1.0  0.30189  0.10948  0.86639  1.0000
  H   H475      1.0  0.32028  0.08348  0.87132  1.0000
  H   H476      1.0  0.35110  0.12066  0.82399  1.0000
  H   H477      1.0  0.32096  0.12272  0.83002  1.0000
  H   H478      1.0  0.31654  0.14375  0.86914  1.0000
  H   H479      1.0  0.34297  0.13832  0.87988  1.0000
  H   H480      1.0  0.36063  0.10137  0.88515  1.0000
  H   H481      1.0  0.36045  0.08145  0.86670  1.0000
  H   H482      1.0  0.29856  0.09492  0.90634  1.0000
  N   N22       1.0  0.31853  0.24341  0.81930  1.0000
  H   H483      1.0  0.16643  0.14549  0.82178  1.0000
  H   H484      1.0  0.32233  0.08125  0.83444  1.0000
  H   H485      1.0  0.33986  0.09054  0.80916  1.0000
  H   H486      1.0  0.35346  0.07702  0.83278  1.0000
  H   H487      1.0  0.33229  0.15928  0.83230  1.0000
  H   H488      1.0  0.36151  0.15068  0.83770  1.0000
  H   H489      1.0  0.34315  0.17139  0.85269  1.0000
  H   H490      1.0  0.38410  0.10514  0.83567  1.0000
  H   H491      1.0  0.39703  0.09585  0.86073  1.0000
  H   H492      1.0  0.38421  0.12461  0.85572  1.0000
  C   C304      1.0  0.21255  0.14320  0.80282  1.0000
  H   H493      1.0  0.28250  0.46046  0.78619  1.0000
  H   H494      1.0  0.22103  0.05373  0.75303  1.0000
  H   H495      1.0  0.20672  0.19188  0.87425  1.0000
  H   H496      1.0  0.19169  0.12233  0.84347  1.0000
  H   H497      1.0  0.14280  0.16029  0.85838  1.0000
  H   H498      1.0  0.22580  0.18063  0.85187  1.0000
  H   H499      1.0  0.19687  0.30918  0.74904  1.0000
  H   H500      1.0  0.26643  0.43109  0.77181  1.0000
  H   H501      1.0  0.20972  0.17735  0.81033  1.0000
  H   H502      1.0  0.31067  0.12059  0.90284  1.0000
  H   H503      1.0  0.16974  0.17427  0.81162  1.0000
  H   H504      1.0  0.21399  0.12525  0.81084  1.0000
  C   C305      1.0  0.18919  0.17855  0.85147  1.0000
  N   N23       1.0  0.18983  0.15898  0.83854  1.0000
  H   H505      1.0  0.16116  0.12562  0.87226  1.0000
  H   H506      1.0  0.30856  0.12014  0.78193  1.0000
  C   C306      1.0  0.33208  0.14329  0.78297  1.0000
  H   H507      1.0  0.21305  0.16193  0.87560  1.0000
  C   C307      1.0  0.37431  0.29149  0.77480  1.0000
  S   S91       1.0  0.38739  0.26746  0.79070  1.0000
  C   C308      1.0  0.06015  0.16405  0.79365  1.0000
  H   H508      1.0  0.22866  0.14489  0.79105  1.0000
  S   S92       1.0  0.09571  0.20228  0.75415  1.0000
  S   S93       1.0  0.36229  0.17086  0.78766  1.0000
  N   N24       1.0  0.18904  0.31097  0.85960  1.0000
  C   C309      1.0  0.20236  0.31708  0.83656  1.0000
  C   C310      1.0  0.18081  0.33294  0.86922  1.0000
  C   C311      1.0  0.16869  0.30060  0.85611  1.0000
  C   C312      1.0  0.20449  0.29428  0.87384  1.0000
  C   C313      1.0  0.21146  0.29740  0.82256  1.0000
  C   C314      1.0  0.19981  0.34570  0.87357  1.0000
  C   C315      1.0  0.15185  0.29385  0.87731  1.0000
  C   C316      1.0  0.19781  0.29177  0.89985  1.0000
  H   H509      1.0  0.19190  0.33030  0.82590  1.0000
  H   H510      1.0  0.21764  0.32478  0.83805  1.0000
  H   H511      1.0  0.16915  0.33065  0.88529  1.0000
  H   H512      1.0  0.17012  0.34488  0.85770  1.0000
  H   H513      1.0  0.15855  0.31231  0.84395  1.0000
  H   H514      1.0  0.17436  0.28473  0.84843  1.0000
  H   H515      1.0  0.20617  0.27702  0.86887  1.0000
  H   H516      1.0  0.22223  0.29875  0.87042  1.0000
  H   H517      1.0  0.22172  0.28310  0.83202  1.0000
  H   H518      1.0  0.19742  0.29127  0.81624  1.0000
  H   H519      1.0  0.22301  0.30377  0.80736  1.0000
  H   H520      1.0  0.21279  0.33455  0.88301  1.0000
  H   H521      1.0  0.20850  0.35413  0.85756  1.0000
  H   H522      1.0  0.19200  0.35940  0.88385  1.0000
  H   H523      1.0  0.05924  0.13727  0.77309  1.0000
  H   H524      1.0  0.13784  0.28664  0.87202  1.0000
  H   H525      1.0  0.18332  0.07163  0.74826  1.0000
  C   C317      1.0  0.32534  0.12476  0.77570  1.0000
  C   C318      1.0  0.32080  0.24981  0.86016  1.0000
  C   C319      1.0  0.14552  0.16996  0.84132  1.0000
  H   H526      1.0  0.08244  0.14326  0.84160  1.0000
  H   H527      1.0  0.00449  0.17384  0.84762  1.0000
  H   H528      1.0  0.34308  0.25685  0.79227  1.0000
  H   H529      1.0  0.29262  0.27413  0.78622  1.0000
  H   H530      1.0  0.08961  0.16877  0.82330  1.0000
  C   C320      1.0  0.21005  0.17785  0.86382  1.0000
  C   C321      1.0  0.04836  0.13200  0.82222  1.0000
  S   S94       1.0  0.41327  0.20489  0.78606  1.0000
  H   H531      1.0  0.21014  0.02038  0.78924  1.0000
  H   H532      1.0  0.18542  0.11995  0.88763  1.0000
  H   H533      1.0  0.08013  0.16951  0.85253  1.0000
  H   H534      1.0  0.04565  0.10262  0.80635  1.0000
  H   H535      1.0  0.34162  0.26305  0.82970  1.0000
  H   H536      1.0  0.38657  0.14073  0.75559  1.0000
  H   H537      1.0  0.19245  0.25869  0.74872  1.0000
  Fe  Fe46      1.0  0.24708  0.08599  0.76173  1.0000
  H   H538      1.0  0.01922  0.18597  0.80876  1.0000
  H   H539      1.0  0.21021  0.28553  0.76638  1.0000
  H   H540      1.0  0.01394  0.16151  0.79958  1.0000
  H   H541      1.0  0.36295  0.22807  0.83473  1.0000
  S   S95       1.0  0.37323  0.22695  0.75432  1.0000
  H   H542      1.0  0.02024  0.11193  0.82385  1.0000
  H   H543      1.0  0.14359  0.30845  0.88607  1.0000
  H   H544      1.0  0.02729  0.12691  0.79597  1.0000
  C   C322      1.0  0.34052  0.11194  0.76098  1.0000
  H   H545      1.0  0.19425  0.04767  0.78322  1.0000
  C   C323      1.0  0.36935  0.13656  0.76083  1.0000
  C   C324      1.0  0.49649  0.23995  0.77844  1.0000
  C   C325      1.0  0.31061  0.27614  0.78703  1.0000
  C   C326      1.0  0.16316  0.14515  0.75189  1.0000
  C   C327      1.0  0.19539  0.29146  0.75687  1.0000
  H   H546      1.0  0.06671  0.16318  0.75752  1.0000
  H   H547      1.0  0.05941  0.18286  0.79016  1.0000
  H   H548      1.0  0.36583  0.22581  0.80497  1.0000
  H   H549      1.0  0.48938  0.25669  0.78262  1.0000
  Fe  Fe47      1.0  0.25939  0.39372  0.74359  1.0000
  Fe  Fe48      1.0  0.30177  0.35899  0.74718  1.0000
  H   H550      1.0  0.19744  0.17998  0.75879  1.0000
  H   H551      1.0  0.17977  0.29099  0.76954  1.0000
  H   H552      1.0  0.01204  0.19834  0.74835  1.0000
  S   S96       1.0  0.14945  0.20742  0.75697  1.0000
  H   H553      1.0  0.18585  0.02333  0.77484  1.0000
  H   H554      1.0  0.20951  0.48451  0.79280  1.0000
  H   H555      1.0  0.23419  0.02533  0.75679  1.0000
  C   C328      1.0  0.36261  0.11783  0.75362  1.0000
  H   H556      1.0  0.35083  0.40046  0.77841  1.0000
  H   H557      1.0  0.35127  0.43076  0.77246  1.0000
  C   C329      1.0  0.27721  0.48583  0.75738  1.0000
  H   H558      1.0  0.18031  0.47992  0.76650  1.0000
  H   H559      1.0  0.00466  0.14495  0.84251  1.0000
  C   C330      1.0  0.21754  0.03593  0.75416  1.0000
  H   H560      1.0  0.20317  0.45728  0.77161  1.0000
  C   C331      1.0  0.20073  0.03152  0.77621  1.0000
  H   H561      1.0  0.32835  0.46285  0.76086  1.0000
  H   H562      1.0  0.23039  0.48604  0.76858  1.0000
  C   C332      1.0  0.21182  0.49041  0.77428  1.0000
  H   H563      1.0  0.33049  0.39823  0.75047  1.0000
  C   C333      1.0  0.35276  0.32980  0.74957  1.0000
  C   C334      1.0  0.33009  0.41655  0.75169  1.0000
  H   H564      1.0  0.31165  0.42359  0.75489  1.0000
  H   H565      1.0  0.22849  0.15080  0.74668  1.0000
  C   C335      1.0  0.49162  0.20526  0.76514  1.0000
  H   H566      1.0  0.39458  0.28472  0.74320  1.0000
  H   H567      1.0  0.35623  0.46662  0.74429  1.0000
  H   H568      1.0  0.15544  0.30273  0.74420  1.0000
  C   C336      1.0  0.33765  0.46747  0.74376  1.0000
  H   H569      1.0  0.15339  0.15973  0.74326  1.0000
  H   H570      1.0  0.17336  0.03311  0.74313  1.0000
  H   H571      1.0  0.37055  0.38874  0.74306  1.0000
  S   S97       1.0  0.25348  0.87745  0.20959  1.0000
  H   H572      1.0  0.41089  0.67586  0.18923  1.0000
  H   H573      1.0  0.20928  0.78042  0.22668  1.0000
  H   H574      1.0  0.46857  0.72425  0.19488  1.0000
  H   H575      1.0  0.41304  0.69926  0.16748  1.0000
  Fe  Fe49      1.0  0.29107  0.86566  0.20839  1.0000
  S   S98       1.0  0.31330  0.86356  0.17495  1.0000
  H   H576      1.0  0.34377  0.81624  0.16708  1.0000
  Fe  Fe50      1.0  0.26742  0.78482  0.10272  1.0000
  S   S99       1.0  0.24297  0.78046  0.07956  1.0000
  S   S100      1.0  0.27714  0.81985  0.10081  1.0000
  Fe  Fe51      1.0  0.27258  0.73486  0.12225  1.0000
  S   S101      1.0  0.24810  0.72607  0.10134  1.0000
  S   S102      1.0  0.29354  0.71191  0.14684  1.0000
  Fe  Fe52      1.0  0.26601  0.74835  0.07253  1.0000
  S   S103      1.0  0.28166  0.73766  0.03824  1.0000
  Fe  Fe53      1.0  0.22700  0.75885  0.10987  1.0000
  S   S104      1.0  0.18895  0.76680  0.11973  1.0000
  S   S105      1.0  0.29210  0.75473  0.09306  1.0000
  S   S106      1.0  0.24987  0.76548  0.13344  1.0000
  H   H577      1.0  0.49483  0.71443  0.20592  1.0000
  C   C337      1.0  0.42335  0.68490  0.17690  1.0000
  C   C338      1.0  0.27576  0.67035  0.05089  1.0000
  H   H578      1.0  0.48673  0.67654  0.21721  1.0000
  H   H579      1.0  0.04662  0.68112  0.17282  1.0000
  Fe  Fe54      1.0  0.24962  0.84586  0.23432  1.0000
  H   H580      1.0  0.43031  0.65483  0.21481  1.0000
  H   H581      1.0  0.32922  0.66156  0.05520  1.0000
  H   H582      1.0  0.18287  0.68436  0.23754  1.0000
  H   H583      1.0  0.34015  0.69110  0.07044  1.0000
  C   C339      1.0  0.00961  0.74098  0.24159  1.0000
  C   C340      1.0  0.28381  0.68641  0.15999  1.0000
  C   C341      1.0  0.29703  0.67183  0.17493  1.0000
  C   C342      1.0  0.29053  0.65071  0.18475  1.0000
  C   C343      1.0  0.27079  0.64403  0.17963  1.0000
  C   C344      1.0  0.25732  0.65875  0.16493  1.0000
  C   C345      1.0  0.26375  0.68000  0.15519  1.0000
  H   H584      1.0  0.31259  0.67669  0.17864  1.0000
  C   C346      1.0  0.21846  0.69590  0.20854  1.0000
  H   H585      1.0  0.24194  0.65367  0.16107  1.0000
  H   H586      1.0  0.25338  0.69125  0.14381  1.0000
  C   C347      1.0  0.17828  0.75029  0.14457  1.0000
  C   C348      1.0  0.18608  0.72707  0.14866  1.0000
  C   C349      1.0  0.17662  0.71389  0.16812  1.0000
  C   C350      1.0  0.16020  0.72410  0.18408  1.0000
  C   C351      1.0  0.15276  0.74742  0.18021  1.0000
  C   C352      1.0  0.16145  0.76041  0.16024  1.0000
  H   H587      1.0  0.19891  0.71916  0.13649  1.0000
  H   H588      1.0  0.18213  0.69579  0.17084  1.0000
  H   H589      1.0  0.14009  0.75542  0.19240  1.0000
  H   H590      1.0  0.15536  0.77838  0.15706  1.0000
  H   H591      1.0  0.20447  0.69078  0.20123  1.0000
  C   C353      1.0  0.26719  0.73493  0.01562  1.0000
  C   C354      1.0  0.24339  0.74033  0.01642  1.0000
  H   H592      1.0  0.30783  0.50136  0.19818  1.0000
  C   C355      1.0  0.34751  0.64856  0.23326  1.0000
  H   H593      1.0  0.23315  0.74602  0.03143  1.0000
  S   S107      1.0  0.10545  0.75893  0.23291  1.0000
  H   H594      1.0  0.10741  0.68702  0.22461  1.0000
  H   H595      1.0  0.30286  0.98101  0.18300  1.0000
  H   H596      1.0  0.36849  0.77048  0.22966  1.0000
  C   C356      1.0  0.30279  0.85047  0.15530  1.0000
  C   C357      1.0  0.30667  0.85927  0.13243  1.0000
  C   C358      1.0  0.29876  0.84951  0.11616  1.0000
  C   C359      1.0  0.28763  0.83024  0.12235  1.0000
  C   C360      1.0  0.28428  0.82080  0.14521  1.0000
  C   C361      1.0  0.29150  0.83118  0.16177  1.0000
  H   H597      1.0  0.31550  0.87400  0.12728  1.0000
  H   H598      1.0  0.30142  0.85691  0.09859  1.0000
  H   H599      1.0  0.27586  0.80582  0.15012  1.0000
  H   H600      1.0  0.28861  0.82414  0.17942  1.0000
  H   H601      1.0  0.26925  0.67502  0.22409  1.0000
  H   H602      1.0  0.33292  0.70801  0.09303  1.0000
  N   N25       1.0  0.30159  0.66692  0.08261  1.0000
  C   C362      1.0  0.31039  0.68244  0.09555  1.0000
  C   C363      1.0  0.28555  0.65336  0.09923  1.0000
  C   C364      1.0  0.32175  0.65220  0.07141  1.0000
  C   C365      1.0  0.29599  0.63948  0.11986  1.0000
  C   C366      1.0  0.31734  0.62911  0.06616  1.0000
  H   H603      1.0  0.29583  0.69248  0.10520  1.0000
  H   H604      1.0  0.32090  0.67256  0.10840  1.0000
  H   H605      1.0  0.27864  0.64119  0.09107  1.0000
  H   H606      1.0  0.27021  0.66480  0.10594  1.0000
  H   H607      1.0  0.26461  0.68378  0.04123  1.0000
  H   H608      1.0  0.33596  0.64817  0.08198  1.0000
  H   H609      1.0  0.27532  0.69456  0.07340  1.0000
  H   H610      1.0  0.31290  0.62957  0.11517  1.0000
  H   H611      1.0  0.29798  0.65060  0.13212  1.0000
  H   H612      1.0  0.28419  0.62745  0.12897  1.0000
  H   H613      1.0  0.26430  0.65865  0.06106  1.0000
  H   H614      1.0  0.37651  0.83319  0.23742  1.0000
  H   H615      1.0  0.30280  0.63044  0.05659  1.0000
  C   C367      1.0  0.32562  0.69949  0.08137  1.0000
  H   H616      1.0  0.10121  0.71957  0.20142  1.0000
  H   H617      1.0  0.04013  0.71681  0.20557  1.0000
  H   H618      1.0  0.31447  0.61683  0.08170  1.0000
  S   S108      1.0  0.28713  0.83357  0.23149  1.0000
  S   S109      1.0  0.29571  0.88478  0.23614  1.0000
  H   H619      1.0  0.34719  0.73518  0.19231  1.0000
  C   C368      1.0  0.25799  0.98940  0.20035  1.0000
  H   H620      1.0  0.33126  0.74462  0.16916  1.0000
  H   H621      1.0  0.35152  0.77503  0.17086  1.0000
  N   N26       1.0  0.45614  0.67718  0.20160  1.0000
  C   C369      1.0  0.47199  0.68883  0.21162  1.0000
  H   H622      1.0  0.31651  0.74470  0.19703  1.0000
  C   C370      1.0  0.28020  0.72749  0.99601  1.0000
  H   H623      1.0  0.42988  0.70643  0.19981  1.0000
  C   C371      1.0  0.38587  0.76258  0.19774  1.0000
  C   C372      1.0  0.44140  0.66504  0.22097  1.0000
  Fe  Fe55      1.0  0.25744  0.89390  0.23953  1.0000
  H   H624      1.0  0.31467  0.50526  0.22490  1.0000
  H   H625      1.0  0.06358  0.75265  0.17919  1.0000
  S   S110      1.0  0.26286  0.61735  0.19140  1.0000
  C   C373      1.0  0.21365  0.72207  0.20654  1.0000
  C   C374      1.0  0.20891  0.64647  0.22249  1.0000
  H   H626      1.0  0.29937  0.98768  0.21975  1.0000
  S   S111      1.0  0.14927  0.70736  0.20867  1.0000
  N   N27       1.0  0.34310  0.77908  0.20650  1.0000
  H   H627      1.0  0.29990  0.69193  0.05263  1.0000
  H   H628      1.0  0.31554  0.71317  0.07100  1.0000
  H   H629      1.0  0.28796  0.66188  0.03797  1.0000
  H   H630      1.0  0.20519  0.65387  0.20527  1.0000
  H   H631      1.0  0.48557  0.65608  0.15322  1.0000
  H   H632      1.0  0.32963  0.81490  0.20657  1.0000
  H   H633      1.0  0.37255  0.80448  0.17227  1.0000
  C   C375      1.0  0.48200  0.70929  0.19695  1.0000
  H   H634      1.0  0.46280  0.69559  0.22713  1.0000
  H   H635      1.0  0.21464  0.72917  0.18833  1.0000
  C   C376      1.0  0.44021  0.69452  0.18850  1.0000
  N   N28       1.0  0.20884  0.82847  0.15292  1.0000
  C   C377      1.0  0.21273  0.82001  0.13023  1.0000
  C   C378      1.0  0.21796  0.80915  0.16973  1.0000
  C   C379      1.0  0.22219  0.84823  0.15063  1.0000
  C   C380      1.0  0.18348  0.83578  0.15878  1.0000
  C   C381      1.0  0.20728  0.83780  0.10972  1.0000
  C   C382      1.0  0.20478  0.78845  0.17487  1.0000
  C   C383      1.0  0.22882  0.85411  0.17236  1.0000
  C   C384      1.0  0.17509  0.84247  0.18259  1.0000
  H   H636      1.0  0.23096  0.81250  0.12617  1.0000
  H   H637      1.0  0.20230  0.80632  0.13032  1.0000
  H   H638      1.0  0.21820  0.81453  0.18631  1.0000
  H   H639      1.0  0.23625  0.80306  0.16396  1.0000
  H   H640      1.0  0.23878  0.84517  0.13934  1.0000
  H   H641      1.0  0.21268  0.86399  0.14234  1.0000
  H   H642      1.0  0.17758  0.85082  0.14684  1.0000
  H   H643      1.0  0.17329  0.82263  0.15623  1.0000
  H   H644      1.0  0.18895  0.84518  0.11122  1.0000
  H   H645      1.0  0.21835  0.85143  0.10670  1.0000
  H   H646      1.0  0.21093  0.82921  0.09433  1.0000
  H   H647      1.0  0.21349  0.77529  0.18689  1.0000
  H   H648      1.0  0.18693  0.79286  0.18300  1.0000
  H   H649      1.0  0.20470  0.78043  0.15970  1.0000
  H   H650      1.0  0.21414  0.85655  0.18580  1.0000
  H   H651      1.0  0.23631  0.87025  0.16816  1.0000
  H   H652      1.0  0.24236  0.84105  0.17905  1.0000
  H   H653      1.0  0.17519  0.86088  0.18262  1.0000
  H   H654      1.0  0.18493  0.83270  0.19576  1.0000
  H   H655      1.0  0.15728  0.83858  0.18814  1.0000
  H   H656      1.0  0.21440  0.74270  0.99837  1.0000
  N   N29       1.0  0.07454  0.70448  0.19098  1.0000
  C   C385      1.0  0.07775  0.68378  0.20854  1.0000
  C   C386      1.0  0.04916  0.71049  0.18974  1.0000
  C   C387      1.0  0.08280  0.72371  0.19922  1.0000
  C   C388      1.0  0.08840  0.69919  0.16877  1.0000
  C   C389      1.0  0.19731  0.79421  0.23298  1.0000
  H   H657      1.0  0.23435  0.69122  0.19690  1.0000
  C   C390      1.0  0.08098  0.74672  0.18381  1.0000
  C   C391      1.0  0.07960  0.71195  0.14686  1.0000
  H   H658      1.0  0.08489  0.75989  0.19295  1.0000
  H   H659      1.0  0.07231  0.66885  0.20321  1.0000
  H   H660      1.0  0.04549  0.72478  0.17623  1.0000
  C   C392      1.0  0.46956  0.65967  0.18761  1.0000
  H   H661      1.0  0.24267  0.65544  0.21877  1.0000
  H   H662      1.0  0.21618  0.62839  0.22172  1.0000
  H   H663      1.0  0.10645  0.70237  0.16798  1.0000
  H   H664      1.0  0.08978  0.68081  0.16726  1.0000
  H   H665      1.0  0.35998  0.74677  0.22099  1.0000
  H   H666      1.0  0.01977  0.69816  0.18085  1.0000
  C   C393      1.0  0.35557  0.66962  0.22608  1.0000
  H   H667      1.0  0.43239  0.67368  0.16449  1.0000
  H   H668      1.0  0.33946  0.98792  0.18608  1.0000
  H   H669      1.0  0.19605  0.72793  0.21447  1.0000
  H   H670      1.0  0.33281  0.62150  0.05568  1.0000
  H   H671      1.0  0.09405  0.74627  0.16857  1.0000
  H   H672      1.0  0.47612  0.68461  0.15659  1.0000
  H   H673      1.0  0.06368  0.70614  0.14408  1.0000
  H   H674      1.0  0.09271  0.70817  0.13221  1.0000
  H   H675      1.0  0.07661  0.73058  0.14635  1.0000
  H   H676      1.0  0.23906  0.99096  0.20113  1.0000
  H   H677      1.0  0.26116  0.70438  0.21315  1.0000
  H   H678      1.0  0.36006  0.83163  0.17992  1.0000
  C   C394      1.0  0.33756  0.77251  0.18512  1.0000
  C   C395      1.0  0.36384  0.76432  0.21480  1.0000
  C   C396      1.0  0.33295  0.74779  0.18639  1.0000
  H   H679      1.0  0.38361  0.75589  0.18234  1.0000
  H   H680      1.0  0.07341  0.72656  0.21625  1.0000
  H   H681      1.0  0.29860  0.72316  0.99527  1.0000
  H   H682      1.0  0.34726  0.68194  0.21381  1.0000
  H   H683      1.0  0.32217  0.78387  0.17957  1.0000
  C   C397      1.0  0.28835  0.68192  0.06520  1.0000
  H   H684      1.0  0.11523  0.67483  0.19852  1.0000
  H   H685      1.0  0.49088  0.70551  0.18026  1.0000
  H   H686      1.0  0.26775  0.79801  0.00919  1.0000
  H   H687      1.0  0.30674  0.78544  0.21860  1.0000
  Fe  Fe56      1.0  0.27616  0.60371  0.22455  1.0000
  H   H688      1.0  0.50148  0.67022  0.16835  1.0000
  H   H689      1.0  0.45832  0.64811  0.18373  1.0000
  H   H690      1.0  0.39923  0.75037  0.20572  1.0000
  C   C398      1.0  0.34631  0.80393  0.20300  1.0000
  H   H691      1.0  0.30117  0.63933  0.19581  1.0000
  H   H692      1.0  0.06675  0.68661  0.22479  1.0000
  H   H693      1.0  0.10334  0.65863  0.22388  1.0000
  C   C399      1.0  0.48398  0.66844  0.16537  1.0000
  S   S112      1.0  0.38400  0.70122  0.22615  1.0000
  H   H694      1.0  0.48193  0.64801  0.19751  1.0000
  H   H695      1.0  0.39264  0.77902  0.19338  1.0000
  H   H696      1.0  0.26193  0.98259  0.21759  1.0000
  H   H697      1.0  0.44962  0.70561  0.17504  1.0000
  H   H698      1.0  0.35716  0.80731  0.21513  1.0000
  C   C400      1.0  0.23281  0.73845  0.99765  1.0000
  H   H699      1.0  0.03347  0.67936  0.20203  1.0000
  C   C401      1.0  0.35641  0.81427  0.17915  1.0000
  C   C402      1.0  0.03682  0.69101  0.18603  1.0000
  H   H700      1.0  0.42950  0.67759  0.23040  1.0000
  C   C403      1.0  0.32279  0.77581  0.22452  1.0000
  S   S113      1.0  0.23453  0.81545  0.22941  1.0000
  H   H701      1.0  0.26556  0.97692  0.18866  1.0000
  C   C404      1.0  0.10245  0.67585  0.21391  1.0000
  H   H702      1.0  0.33310  0.64466  0.22649  1.0000
  S   S114      1.0  0.30667  0.57739  0.23074  1.0000
  C   C405      1.0  0.22656  0.65841  0.23056  1.0000
  H   H703      1.0  0.22630  0.72948  0.21362  1.0000
  S   S115      1.0  0.43095  0.73413  0.23950  1.0000
  H   H704      1.0  0.32002  0.75769  0.22825  1.0000
  H   H705      1.0  0.28637  0.50098  0.22273  1.0000
  C   C406      1.0  0.26153  0.69189  0.22873  1.0000
  N   N30       1.0  0.21985  0.68341  0.23206  1.0000
  C   C407      1.0  0.20519  0.81404  0.23593  1.0000
  H   H706      1.0  0.16807  0.77679  0.23568  1.0000
  Fe  Fe57      1.0  0.13001  0.72671  0.23642  1.0000
  C   C408      1.0  0.37415  0.67480  0.23498  1.0000
  H   H707      1.0  0.19271  0.64654  0.23435  1.0000
  C   C409      1.0  0.17403  0.79200  0.23834  1.0000
  H   H708      1.0  0.46540  0.63438  0.23130  1.0000
  H   H709      1.0  0.00530  0.75923  0.23820  1.0000
  C   C410      1.0  0.45422  0.64864  0.23869  1.0000
  H   H710      1.0  0.27328  0.69705  0.23888  1.0000
  H   H711      1.0  0.33824  0.99412  0.15606  1.0000
  C   C411      1.0  0.28460  0.96415  0.26379  1.0000
  H   H712      1.0  0.04989  0.70083  0.26384  1.0000
  S   S116      1.0  0.30458  0.83592  0.28936  1.0000
  H   H713      1.0  0.20765  0.59571  0.40363  1.0000
  C   C412      1.0  0.27533  0.94767  0.25529  1.0000
  Fe  Fe58      1.0  0.31396  0.60063  0.25349  1.0000
  H   H714      1.0  0.28565  0.71671  0.45583  1.0000
  Fe  Fe59      1.0  0.08360  0.74210  0.26259  1.0000
  S   S117      1.0  0.10701  0.70881  0.26423  1.0000
  C   C413      1.0  0.32444  0.78277  0.24762  1.0000
  Fe  Fe60      1.0  0.12526  0.72324  0.28738  1.0000
  S   S118      1.0  0.14333  0.70042  0.31451  1.0000
  H   H715      1.0  0.26621  0.93961  0.30571  1.0000
  S   S119      1.0  0.09969  0.75498  0.28858  1.0000
  H   H716      1.0  0.27853  0.88049  0.29773  1.0000
  Fe  Fe61      1.0  0.21860  0.72413  0.39745  1.0000
  S   S120      1.0  0.22058  0.69121  0.42098  1.0000
  S   S121      1.0  0.18623  0.74301  0.38461  1.0000
  Fe  Fe62      1.0  0.26895  0.72736  0.39562  1.0000
  S   S122      1.0  0.27547  0.69468  0.41861  1.0000
  S   S123      1.0  0.29540  0.74980  0.37926  1.0000
  Fe  Fe63      1.0  0.25322  0.68153  0.39852  1.0000
  S   S124      1.0  0.26370  0.64661  0.38830  1.0000
  Fe  Fe64      1.0  0.24252  0.70708  0.43948  1.0000
  S   S125      1.0  0.24969  0.71318  0.37353  1.0000
  S   S126      1.0  0.23761  0.74103  0.41790  1.0000
  Fe  Fe65      1.0  0.26390  0.61049  0.27352  1.0000
  S   S127      1.0  0.29301  0.58486  0.28431  1.0000
  S   S128      1.0  0.23942  0.63495  0.29344  1.0000
  C   C414      1.0  0.27216  0.50419  0.27117  1.0000
  Fe  Fe66      1.0  0.28361  0.56307  0.26112  1.0000
  C   C415      1.0  0.37731  0.63753  0.25732  1.0000
  H   H717      1.0  0.32634  0.87395  0.30595  1.0000
  S   S129      1.0  0.14969  0.73880  0.25953  1.0000
  H   H718      1.0  0.44137  0.64103  0.25188  1.0000
  S   S130      1.0  0.43175  0.73722  0.29360  1.0000
  H   H719      1.0  0.30281  0.96211  0.26464  1.0000
  C   C416      1.0  0.34496  0.83490  0.26052  1.0000
  S   S131      1.0  0.42231  0.69030  0.27725  1.0000
  H   H720      1.0  0.27179  0.90823  0.28353  1.0000
  Fe  Fe67      1.0  0.40390  0.71477  0.30053  1.0000
  S   S132      1.0  0.38802  0.69831  0.33416  1.0000
  Fe  Fe68      1.0  0.44870  0.71425  0.26803  1.0000
  H   H721      1.0  0.33703  0.85011  0.25109  1.0000
  S   S133      1.0  0.38275  0.73493  0.27484  1.0000
  H   H722      1.0  0.19533  0.66500  0.38486  1.0000
  H   H723      1.0  0.32177  0.90103  0.34157  1.0000
  H   H724      1.0  0.16463  0.62924  0.32889  1.0000
  H   H725      1.0  0.15436  0.84310  0.25639  1.0000
  C   C417      1.0  0.38485  0.65875  0.25073  1.0000
  C   C418      1.0  0.35849  0.63246  0.24885  1.0000
  H   H726      1.0  0.19259  0.70619  0.24817  1.0000
  C   C419      1.0  0.20595  0.61110  0.36766  1.0000
  C   C420      1.0  0.27046  0.98329  0.27115  1.0000
  H   H727      1.0  0.23710  0.89208  0.29944  1.0000
  S   S134      1.0  0.28918  0.52505  0.27327  1.0000
  C   C421      1.0  0.23769  0.96934  0.26153  1.0000
  H   H728      1.0  0.00515  0.77539  0.29076  1.0000
  H   H729      1.0  0.22530  0.82176  0.28563  1.0000
  C   C422      1.0  0.32078  0.73533  0.36625  1.0000
  C   C423      1.0  0.32809  0.71264  0.37418  1.0000
  C   C424      1.0  0.34912  0.70171  0.36463  1.0000
  C   C425      1.0  0.36238  0.71300  0.34638  1.0000
  C   C426      1.0  0.35491  0.73557  0.33814  1.0000
  C   C427      1.0  0.33431  0.74683  0.34833  1.0000
  H   H730      1.0  0.31784  0.70365  0.38800  1.0000
  H   H731      1.0  0.35501  0.68432  0.37117  1.0000
  H   H732      1.0  0.36519  0.74449  0.32423  1.0000
  H   H733      1.0  0.32879  0.76444  0.34224  1.0000
  C   C428      1.0  0.25787  0.64405  0.36141  1.0000
  C   C429      1.0  0.24316  0.66086  0.35003  1.0000
  C   C430      1.0  0.23788  0.65808  0.32895  1.0000
  C   C431      1.0  0.24738  0.63854  0.31915  1.0000
  C   C432      1.0  0.26243  0.62193  0.33032  1.0000
  C   C433      1.0  0.26757  0.62463  0.35149  1.0000
  H   H734      1.0  0.23542  0.67570  0.35773  1.0000
  H   H735      1.0  0.22624  0.67098  0.32033  1.0000
  H   H736      1.0  0.26962  0.60670  0.32298  1.0000
  H   H737      1.0  0.27889  0.61154  0.36031  1.0000
  H   H738      1.0  0.24459  0.74661  0.47318  1.0000
  C   C434      1.0  0.15584  0.71357  0.33257  1.0000
  C   C435      1.0  0.14446  0.73305  0.34142  1.0000
  C   C436      1.0  0.15381  0.74182  0.35758  1.0000
  C   C437      1.0  0.17464  0.73127  0.36483  1.0000
  C   C438      1.0  0.18634  0.71219  0.35548  1.0000
  C   C439      1.0  0.17699  0.70349  0.33930  1.0000
  H   H739      1.0  0.12813  0.74096  0.33631  1.0000
  H   H740      1.0  0.14479  0.75672  0.36462  1.0000
  H   H741      1.0  0.20261  0.70431  0.36062  1.0000
  H   H742      1.0  0.18625  0.68909  0.33172  1.0000
  H   H743      1.0  0.20758  0.60275  0.35224  1.0000
  H   H744      1.0  0.24456  0.88658  0.32733  1.0000
  C   C440      1.0  0.30017  0.71425  0.46579  1.0000
  C   C441      1.0  0.18973  0.83190  0.24401  1.0000
  C   C442      1.0  0.30961  0.68876  0.46782  1.0000
  C   C443      1.0  0.33297  0.82475  0.28036  1.0000
  H   H745      1.0  0.21009  0.57559  0.38382  1.0000
  H   H746      1.0  0.29418  0.87256  0.33128  1.0000
  C   C444      1.0  0.36545  0.79506  0.28433  1.0000
  C   C445      1.0  0.34335  0.80501  0.29244  1.0000
  H   H747      1.0  0.37333  0.77972  0.29361  1.0000
  H   H748      1.0  0.33411  0.79711  0.30778  1.0000
  H   H749      1.0  0.22864  0.75084  0.34348  1.0000
  H   H750      1.0  0.23318  0.59108  0.38513  1.0000
  H   H751      1.0  0.02515  0.67570  0.25330  1.0000
  H   H752      1.0  0.16351  0.65551  0.35760  1.0000
  H   H753      1.0  0.30149  0.95306  0.30933  1.0000
  H   H754      1.0  0.25388  0.80783  0.28077  1.0000
  C   C446      1.0  0.15859  0.80940  0.24718  1.0000
  H   H755      1.0  0.19579  0.84730  0.24619  1.0000
  S   S135      1.0  0.04535  0.75011  0.26035  1.0000
  H   H756      1.0  0.39906  0.66250  0.25777  1.0000
  H   H757      1.0  0.38589  0.62507  0.26930  1.0000
  S   S136      1.0  0.24007  0.69842  0.47771  1.0000
  H   H758      1.0  0.17239  0.58246  0.40040  1.0000
  H   H759      1.0  0.17819  0.65365  0.31775  1.0000
  S   S137      1.0  0.12994  0.80559  0.25643  1.0000
  Fe  Fe69      1.0  0.41190  0.75534  0.26560  1.0000
  C   C447      1.0  0.32323  0.88751  0.29162  1.0000
  H   H760      1.0  0.20596  0.67956  0.28080  1.0000
  C   C448      1.0  0.17959  0.63770  0.32982  1.0000
  H   H761      1.0  0.31466  0.88126  0.27938  1.0000
  N   N31       1.0  0.20724  0.78029  0.30824  1.0000
  C   C449      1.0  0.22908  0.78434  0.29270  1.0000
  C   C450      1.0  0.20342  0.75616  0.30807  1.0000
  C   C451      1.0  0.20873  0.78354  0.33212  1.0000
  C   C452      1.0  0.19573  0.75124  0.28640  1.0000
  C   C453      1.0  0.22916  0.76923  0.34272  1.0000
  H   H762      1.0  0.24343  0.77077  0.29674  1.0000
  H   H763      1.0  0.22710  0.78340  0.27491  1.0000
  H   H764      1.0  0.19056  0.75072  0.32240  1.0000
  H   H765      1.0  0.21928  0.74412  0.31077  1.0000
  H   H766      1.0  0.20919  0.80168  0.33339  1.0000
  H   H767      1.0  0.17843  0.76040  0.28400  1.0000
  H   H768      1.0  0.20806  0.75546  0.27114  1.0000
  H   H769      1.0  0.19444  0.73282  0.28805  1.0000
  H   H770      1.0  0.22802  0.77251  0.36046  1.0000
  H   H771      1.0  0.24592  0.77364  0.33379  1.0000
  H   H772      1.0  0.28641  0.93316  0.24938  1.0000
  C   C454      1.0  0.16367  0.79480  0.31319  1.0000
  H   H773      1.0  0.21909  0.62277  0.36311  1.0000
  C   C455      1.0  0.25266  0.50933  0.26019  1.0000
  H   H774      1.0  0.32132  0.91699  0.30755  1.0000
  H   H775      1.0  0.19056  0.81474  0.30063  1.0000
  H   H776      1.0  0.19703  0.65619  0.27045  1.0000
  H   H777      1.0  0.30119  0.93922  0.33824  1.0000
  C   C456      1.0  0.30611  0.89447  0.35073  1.0000
  H   H778      1.0  0.34029  0.89107  0.28260  1.0000
  H   H779      1.0  0.16121  0.64424  0.39651  1.0000
  C   C457      1.0  0.16403  0.60938  0.37209  1.0000
  H   H780      1.0  0.34753  0.74095  0.46415  1.0000
  C   C458      1.0  0.33641  0.72740  0.47001  1.0000
  C   C459      1.0  0.24704  0.98609  0.26949  1.0000
  C   C460      1.0  0.23746  0.80733  0.29239  1.0000
  C   C461      1.0  0.15746  0.59338  0.39395  1.0000
  H   H781      1.0  0.18714  0.79688  0.28180  1.0000
  C   C462      1.0  0.16635  0.82955  0.24964  1.0000
  C   C463      1.0  0.17966  0.64377  0.35367  1.0000
  C   C464      1.0  0.18779  0.79706  0.29996  1.0000
  H   H782      1.0  0.19382  0.65408  0.35201  1.0000
  H   H783      1.0  0.23160  0.70852  0.24791  1.0000
  H   H784      1.0  0.24103  0.80984  0.30917  1.0000
  N   N32       1.0  0.31724  0.73030  0.45580  1.0000
  H   H785      1.0  0.14767  0.62017  0.36832  1.0000
  C   C465      1.0  0.32739  0.72527  0.43234  1.0000
  H   H786      1.0  0.29729  0.90601  0.36299  1.0000
  C   C466      1.0  0.30504  0.75428  0.45534  1.0000
  H   H787      1.0  0.17834  0.62066  0.40924  1.0000
  C   C467      1.0  0.34213  0.74271  0.41812  1.0000
  H   H788      1.0  0.23752  0.91546  0.31358  1.0000
  C   C468      1.0  0.28711  0.76153  0.43869  1.0000
  H   H789      1.0  0.21393  0.63992  0.39539  1.0000
  C   C469      1.0  0.19432  0.67484  0.27029  1.0000
  H   H790      1.0  0.31384  0.72346  0.42234  1.0000
  H   H791      1.0  0.33858  0.70858  0.43308  1.0000
  H   H792      1.0  0.14598  0.58195  0.39042  1.0000
  C   C470      1.0  0.21423  0.59230  0.38622  1.0000
  S   S138      1.0  0.48555  0.69675  0.26318  1.0000
  H   H793      1.0  0.31766  0.76662  0.45119  1.0000
  S   S139      1.0  0.24962  0.86311  0.26454  1.0000
  H   H794      1.0  0.19297  0.77920  0.34355  1.0000
  H   H795      1.0  0.19237  0.65420  0.41413  1.0000
  H   H796      1.0  0.35636  0.74534  0.42670  1.0000
  H   H797      1.0  0.35001  0.73627  0.40203  1.0000
  H   H798      1.0  0.33163  0.75919  0.41335  1.0000
  C   C471      1.0  0.19620  0.64907  0.39694  1.0000
  C   C472      1.0  0.17850  0.63394  0.39429  1.0000
  S   S140      1.0  0.40468  0.79262  0.25348  1.0000
  H   H799      1.0  0.27079  0.76948  0.44761  1.0000
  H   H800      1.0  0.28292  0.74757  0.43096  1.0000
  H   H801      1.0  0.29293  0.77474  0.42489  1.0000
  C   C473      1.0  0.24644  0.89822  0.31121  1.0000
  N   N33       1.0  0.32263  0.66513  0.31053  1.0000
  C   C474      1.0  0.32589  0.63971  0.31085  1.0000
  C   C475      1.0  0.29792  0.67421  0.30833  1.0000
  C   C476      1.0  0.32827  0.67138  0.33195  1.0000
  C   C477      1.0  0.33851  0.67517  0.29087  1.0000
  C   C478      1.0  0.34877  0.62681  0.31776  1.0000
  C   C479      1.0  0.28965  0.67081  0.28635  1.0000
  C   C480      1.0  0.31413  0.66177  0.35402  1.0000
  C   C481      1.0  0.33523  0.70131  0.28552  1.0000
  H   H802      1.0  0.31179  0.63189  0.32218  1.0000
  H   H803      1.0  0.32489  0.63538  0.29384  1.0000
  H   H804      1.0  0.29415  0.69256  0.31023  1.0000
  H   H805      1.0  0.28644  0.66580  0.32234  1.0000
  H   H806      1.0  0.34683  0.66635  0.33349  1.0000
  H   H807      1.0  0.32532  0.69010  0.33168  1.0000
  H   H808      1.0  0.35672  0.67002  0.29365  1.0000
  H   H809      1.0  0.33695  0.66850  0.27518  1.0000
  H   H810      1.0  0.35003  0.60878  0.31512  1.0000
  H   H811      1.0  0.36381  0.63361  0.30733  1.0000
  H   H812      1.0  0.34974  0.62686  0.33590  1.0000
  H   H813      1.0  0.29027  0.65254  0.28512  1.0000
  H   H814      1.0  0.27141  0.67848  0.28659  1.0000
  H   H815      1.0  0.29945  0.67910  0.27098  1.0000
  H   H816      1.0  0.32185  0.66446  0.36873  1.0000
  H   H817      1.0  0.31354  0.64332  0.35548  1.0000
  H   H818      1.0  0.29643  0.67101  0.35578  1.0000
  H   H819      1.0  0.31806  0.70829  0.28075  1.0000
  H   H820      1.0  0.34787  0.70625  0.27069  1.0000
  H   H821      1.0  0.33840  0.70950  0.29967  1.0000
  Fe  Fe70      1.0  0.28764  0.85325  0.25945  1.0000
  H   H822      1.0  0.27268  0.88981  0.34613  1.0000
  H   H823      1.0  0.19570  0.62720  0.32371  1.0000
  H   H824      1.0  0.14764  0.60307  0.40737  1.0000
  H   H825      1.0  0.26164  0.92816  0.33472  1.0000
  H   H826      1.0  0.23050  0.64887  0.24712  1.0000
  H   H827      1.0  0.24711  0.52672  0.25339  1.0000
  H   H828      1.0  0.17655  0.67937  0.27861  1.0000
  H   H829      1.0  0.24049  0.68008  0.25908  1.0000
  H   H830      1.0  0.30781  0.78168  0.25873  1.0000
  H   H831      1.0  0.49140  0.74378  0.26518  1.0000
  Fe  Fe71      1.0  0.12298  0.76954  0.25877  1.0000
  H   H832      1.0  0.15056  0.80131  0.30171  1.0000
  H   H833      1.0  0.16913  0.59863  0.35824  1.0000
  C   C482      1.0  0.03492  0.70813  0.25580  1.0000
  C   C483      1.0  0.36726  0.82529  0.25276  1.0000
  H   H834      1.0  0.31249  0.87795  0.36032  1.0000
  H   H835      1.0  0.16094  0.77706  0.31946  1.0000
  C   C484      1.0  0.29048  0.94663  0.32488  1.0000
  H   H836      1.0  0.30684  0.92167  0.28381  1.0000
  N   N34       1.0  0.18226  0.62405  0.37237  1.0000
  H   H837      1.0  0.16026  0.80455  0.32776  1.0000
  N   N35       1.0  0.28693  0.90713  0.31412  1.0000
  C   C485      1.0  0.27183  0.89827  0.30066  1.0000
  C   C486      1.0  0.30957  0.90951  0.29934  1.0000
  C   C487      1.0  0.27524  0.93011  0.31989  1.0000
  C   C488      1.0  0.28950  0.89033  0.33520  1.0000
  Fe  Fe72      1.0  0.40315  0.71219  0.25097  1.0000
  H   H838      1.0  0.29558  0.67897  0.47636  1.0000
  C   C489      1.0  0.24812  0.73868  0.48983  1.0000
  H   H839      1.0  0.32784  0.80048  0.24602  1.0000
  C   C490      1.0  0.37739  0.80516  0.26442  1.0000
  C   C491      1.0  0.25170  0.94986  0.25475  1.0000
  S   S141      1.0  0.23899  0.92891  0.24562  1.0000
  C   C492      1.0  0.02926  0.73170  0.25174  1.0000
  C   C493      1.0  0.02081  0.69396  0.24997  1.0000
  S   S142      1.0  0.25229  0.58759  0.25301  1.0000
  H   H840      1.0  0.21943  0.97136  0.26087  1.0000
  H   H841      1.0  0.32380  0.68425  0.47822  1.0000
  S   S143      1.0  0.34927  0.60592  0.25841  1.0000
  H   H842      1.0  0.27929  0.96180  0.33068  1.0000
  H   H843      1.0  0.34801  0.71120  0.46807  1.0000
  H   H844      1.0  0.31512  0.68308  0.45100  1.0000
  H   H845      1.0  0.46429  0.65751  0.24756  1.0000
  H   H846      1.0  0.29207  0.71790  0.48288  1.0000
  H   H847      1.0  0.49794  0.70267  0.34931  1.0000
  C   C494      1.0  0.19680  0.68792  0.24614  1.0000
  H   H848      1.0  0.33772  0.77130  0.25644  1.0000
  H   H849      1.0  0.29593  0.75711  0.47241  1.0000
  S   S144      1.0  0.28564  0.62813  0.24462  1.0000
  C   C495      1.0  0.23764  0.69131  0.24297  1.0000
  C   C496      1.0  0.16111  0.85585  0.71667  1.0000
  S   S145      1.0  0.24110  0.88053  0.71281  1.0000
  S   S146      1.0  0.27948  0.82109  0.72166  1.0000
  H   H850      1.0  0.25612  0.76919  0.49956  1.0000
  Fe  Fe73      1.0  0.20728  0.87513  0.73355  1.0000
  C   C497      1.0  0.16943  0.83358  0.72542  1.0000
  H   H851      1.0  0.35392  0.70177  0.71733  1.0000
  C   C498      1.0  0.26553  0.74610  0.72484  1.0000
  H   H852      1.0  0.22118  0.75252  0.71863  1.0000
  C   C499      1.0  0.13700  0.81982  0.71462  1.0000
  C   C500      1.0  0.19509  0.83998  0.62050  1.0000
  H   H853      1.0  0.13298  0.76684  0.67148  1.0000
  Fe  Fe74      1.0  0.28450  0.58532  0.72202  1.0000
  S   S147      1.0  0.29862  0.59770  0.68627  1.0000
  H   H854      1.0  0.18561  0.75914  0.61527  1.0000
  Fe  Fe75      1.0  0.25745  0.75816  0.62889  1.0000
  S   S148      1.0  0.28745  0.76369  0.60194  1.0000
  S   S149      1.0  0.23436  0.78063  0.65202  1.0000
  Fe  Fe76      1.0  0.25867  0.70930  0.62226  1.0000
  S   S150      1.0  0.28886  0.70979  0.59481  1.0000
  S   S151      1.0  0.23766  0.68196  0.63919  1.0000
  Fe  Fe77      1.0  0.30316  0.72923  0.61700  1.0000
  S   S152      1.0  0.33998  0.71968  0.62360  1.0000
  Fe  Fe78      1.0  0.27106  0.74403  0.58146  1.0000
  S   S153      1.0  0.26811  0.75759  0.54453  1.0000
  S   S154      1.0  0.27452  0.72550  0.64551  1.0000
  S   S155      1.0  0.23968  0.74184  0.60720  1.0000
  H   H855      1.0  0.33186  0.61208  0.71476  1.0000
  S   S156      1.0  0.36595  0.75003  0.71080  1.0000
  C   C501      1.0  0.34769  0.72949  0.64687  1.0000
  C   C502      1.0  0.33258  0.74507  0.65882  1.0000
  C   C503      1.0  0.33882  0.75195  0.67786  1.0000
  C   C504      1.0  0.35971  0.74262  0.68561  1.0000
  C   C505      1.0  0.37490  0.72719  0.67354  1.0000
  C   C506      1.0  0.36907  0.72097  0.65398  1.0000
  H   H856      1.0  0.31626  0.75205  0.65319  1.0000
  H   H857      1.0  0.32738  0.76445  0.68669  1.0000
  H   H858      1.0  0.39123  0.72022  0.67911  1.0000
  H   H859      1.0  0.38089  0.70908  0.64463  1.0000
  C   C507      1.0  0.25907  0.74127  0.52657  1.0000
  C   C508      1.0  0.20279  0.65751  0.73310  1.0000
  H   H860      1.0  0.15850  0.74923  0.61398  1.0000
  H   H861      1.0  0.21192  0.66528  0.71769  1.0000
  C   C509      1.0  0.25043  0.70562  0.51831  1.0000
  C   C510      1.0  0.25678  0.71835  0.53332  1.0000
  C   C511      1.0  0.01363  0.75567  0.72781  1.0000
  H   H862      1.0  0.24900  0.68781  0.52357  1.0000
  H   H863      1.0  0.26015  0.71036  0.55001  1.0000
  H   H864      1.0  0.14993  0.76936  0.64398  1.0000
  C   C512      1.0  0.28098  0.62032  0.67283  1.0000
  C   C513      1.0  0.28920  0.63121  0.65153  1.0000
  C   C514      1.0  0.27599  0.65026  0.64118  1.0000
  C   C515      1.0  0.25423  0.65802  0.65181  1.0000
  C   C516      1.0  0.24566  0.64669  0.67276  1.0000
  C   C517      1.0  0.25915  0.62801  0.68341  1.0000
  H   H865      1.0  0.30593  0.62509  0.64313  1.0000
  H   H866      1.0  0.28252  0.65879  0.62484  1.0000
  H   H867      1.0  0.22868  0.65245  0.68084  1.0000
  H   H868      1.0  0.25256  0.61936  0.69960  1.0000
  C   C518      1.0  0.26733  0.80856  0.70294  1.0000
  C   C519      1.0  0.28124  0.79890  0.68499  1.0000
  C   C520      1.0  0.27137  0.78967  0.66950  1.0000
  C   C521      1.0  0.24760  0.78988  0.67217  1.0000
  C   C522      1.0  0.23392  0.79840  0.69083  1.0000
  C   C523      1.0  0.24371  0.80798  0.70597  1.0000
  H   H869      1.0  0.29955  0.79930  0.68258  1.0000
  H   H870      1.0  0.28206  0.78308  0.65515  1.0000
  H   H871      1.0  0.21568  0.79782  0.69363  1.0000
  H   H872      1.0  0.23290  0.81488  0.72000  1.0000
  H   H873      1.0  0.12327  0.75869  0.64821  1.0000
  H   H874      1.0  0.18426  0.73894  0.59738  1.0000
  S   S157      1.0  0.17546  0.87917  0.71686  1.0000
  C   C524      1.0  0.50116  0.58914  0.73669  1.0000
  H   H875      1.0  0.22360  0.86165  0.63718  1.0000
  H   H876      1.0  0.19147  0.76724  0.68681  1.0000
  H   H877      1.0  0.17883  0.83668  0.61584  1.0000
  C   C525      1.0  0.25328  0.72061  0.70316  1.0000
  S   S158      1.0  0.41769  0.69773  0.71666  1.0000
  H   H878      1.0  0.17363  0.71049  0.62882  1.0000
  H   H879      1.0  0.20802  0.84280  0.68673  1.0000
  H   H880      1.0  0.18450  0.67874  0.65176  1.0000
  H   H881      1.0  0.34453  0.72759  0.50384  1.0000
  H   H882      1.0  0.49574  0.61059  0.70586  1.0000
  H   H883      1.0  0.19118  0.73806  0.69792  1.0000
  C   C526      1.0  0.15311  0.87203  0.63921  1.0000
  H   H884      1.0  0.34572  0.67620  0.73337  1.0000
  H   H885      1.0  0.20107  0.71800  0.62945  1.0000
  N   N36       1.0  0.19203  0.84642  0.64400  1.0000
  H   H886      1.0  0.16490  0.75595  0.69204  1.0000
  C   C527      1.0  0.20457  0.85746  0.60118  1.0000
  H   H887      1.0  0.15721  0.80452  0.66947  1.0000
  C   C528      1.0  0.03380  0.74666  0.73734  1.0000
  N   N37       1.0  0.33281  0.65921  0.69590  1.0000
  C   C529      1.0  0.32984  0.65874  0.67167  1.0000
  C   C530      1.0  0.35188  0.64047  0.70169  1.0000
  C   C531      1.0  0.33948  0.68208  0.69734  1.0000
  C   C532      1.0  0.31028  0.65595  0.71043  1.0000
  C   C533      1.0  0.35324  0.68364  0.71647  1.0000
  C   C534      1.0  0.34692  0.61601  0.70225  1.0000
  C   C535      1.0  0.46394  0.64582  0.71860  1.0000
  C   C536      1.0  0.23986  0.70163  0.70060  1.0000
  H   H888      1.0  0.34646  0.65984  0.66036  1.0000
  H   H889      1.0  0.32445  0.64247  0.66965  1.0000
  H   H890      1.0  0.46097  0.66599  0.68582  1.0000
  H   H891      1.0  0.36778  0.64276  0.68958  1.0000
  H   H892      1.0  0.35040  0.68801  0.68152  1.0000
  H   H893      1.0  0.32410  0.69524  0.69865  1.0000
  H   H894      1.0  0.29683  0.67030  0.70600  1.0000
  H   H895      1.0  0.30331  0.64093  0.70699  1.0000
  H   H896      1.0  0.43602  0.61900  0.71971  1.0000
  H   H897      1.0  0.22118  0.70584  0.70540  1.0000
  H   H898      1.0  0.20505  0.55001  0.71656  1.0000
  H   H899      1.0  0.04759  0.75676  0.73565  1.0000
  H   H900      1.0  0.27143  0.71401  0.69753  1.0000
  N   N38       1.0  0.25050  0.72783  0.72631  1.0000
  H   H901      1.0  0.13451  0.87701  0.69982  1.0000
  H   H902      1.0  0.22352  0.62496  0.73171  1.0000
  H   H903      1.0  0.32088  0.71293  0.50396  1.0000
  H   H904      1.0  0.45347  0.63829  0.68720  1.0000
  C   C537      1.0  0.01041  0.69681  0.64952  1.0000
  H   H905      1.0  0.02237  0.70148  0.63400  1.0000
  H   H906      1.0  0.24848  0.73551  0.69043  1.0000
  H   H907      1.0  0.17036  0.80590  0.64086  1.0000
  H   H908      1.0  0.14451  0.72937  0.68088  1.0000
  C   C538      1.0  0.14097  0.85991  0.70673  1.0000
  H   H909      1.0  0.19414  0.87444  0.60102  1.0000
  H   H910      1.0  0.31743  0.74365  0.49934  1.0000
  H   H911      1.0  0.15654  0.68672  0.66772  1.0000
  H   H912      1.0  0.18488  0.76261  0.65043  1.0000
  C   C539      1.0  0.31210  0.67764  0.66165  1.0000
  H   H913      1.0  0.35685  0.64100  0.71839  1.0000
  H   H914      1.0  0.24644  0.68516  0.71005  1.0000
  S   S159      1.0  0.25778  0.56181  0.73261  1.0000
  S   S160      1.0  0.11744  0.73417  0.72764  1.0000
  H   H915      1.0  0.01206  0.77275  0.71878  1.0000
  H   H916      1.0  0.17448  0.87229  0.66407  1.0000
  H   H917      1.0  0.01509  0.67849  0.65557  1.0000
  H   H918      1.0  0.01386  0.70703  0.66189  1.0000
  C   C540      1.0  0.18345  0.75202  0.68603  1.0000
  H   H919      1.0  0.28376  0.97281  0.72399  1.0000
  H   H920      1.0  0.29477  0.73803  0.69868  1.0000
  H   H921      1.0  0.22740  0.83213  0.64710  1.0000
  C   C541      1.0  0.46557  0.64783  0.69262  1.0000
  Fe  Fe79      1.0  0.44199  0.70743  0.73729  1.0000
  H   H922      1.0  0.20400  0.85166  0.58476  1.0000
  C   C542      1.0  0.18250  0.82782  0.66101  1.0000
  H   H923      1.0  0.19630  0.81366  0.66470  1.0000
  H   H924      1.0  0.34470  0.61239  0.68540  1.0000
  H   H925      1.0  0.22282  0.85874  0.60168  1.0000
  H   H926      1.0  0.20714  0.74131  0.65759  1.0000
  S   S161      1.0  0.12186  0.79797  0.71155  1.0000
  H   H927      1.0  0.29430  0.67528  0.66921  1.0000
  C   C543      1.0  0.16354  0.81638  0.65459  1.0000
  Fe  Fe80      1.0  0.39266  0.72655  0.72899  1.0000
  C   C544      1.0  0.29134  0.73964  0.71697  1.0000
  H   H928      1.0  0.37126  0.67551  0.71284  1.0000
  C   C545      1.0  0.17534  0.68475  0.66764  1.0000
  H   H929      1.0  0.30048  0.75371  0.71899  1.0000
  H   H930      1.0  0.23495  0.85215  0.67553  1.0000
  H   H931      1.0  0.20945  0.87202  0.67442  1.0000
  C   C546      1.0  0.21669  0.85409  0.67289  1.0000
  S   S162      1.0  0.26143  0.93330  0.72915  1.0000
  H   H932      1.0  0.14113  0.72265  0.65429  1.0000
  C   C547      1.0  0.25460  0.75141  0.50481  1.0000
  H   H933      1.0  0.24247  0.69907  0.68254  1.0000
  H   H934      1.0  0.18622  0.88336  0.63706  1.0000
  C   C548      1.0  0.30998  0.65456  0.73606  1.0000
  C   C549      1.0  0.18826  0.74637  0.66154  1.0000
  S   S163      1.0  0.48042  0.70218  0.72585  1.0000
  H   H935      1.0  0.45961  0.60009  0.70927  1.0000
  C   C550      1.0  0.18349  0.70667  0.67159  1.0000
  N   N39       1.0  0.17554  0.72828  0.65682  1.0000
  C   C551      1.0  0.49273  0.61251  0.72412  1.0000
  H   H936      1.0  0.31532  0.69484  0.66327  1.0000
  H   H937      1.0  0.14854  0.82852  0.64998  1.0000
  S   S164      1.0  0.17762  0.69915  0.73467  1.0000
  H   H938      1.0  0.20679  0.82358  0.61971  1.0000
  H   H939      1.0  0.17568  0.83406  0.67738  1.0000
  C   C552      1.0  0.18238  0.72416  0.63256  1.0000
  H   H940      1.0  0.17758  0.70827  0.68960  1.0000
  H   H941      1.0  0.15205  0.86324  0.62482  1.0000
  C   C553      1.0  0.21560  0.84823  0.64919  1.0000
  H   H942      1.0  0.14786  0.89029  0.63336  1.0000
  H   H943      1.0  0.36183  0.60393  0.70756  1.0000
  H   H944      1.0  0.44666  0.65435  0.72495  1.0000
  H   H945      1.0  0.48327  0.64257  0.68463  1.0000
  H   H946      1.0  0.11366  0.84535  0.69759  1.0000
  C   C554      1.0  0.14982  0.73366  0.66235  1.0000
  C   C555      1.0  0.17729  0.86896  0.64617  1.0000
  H   H947      1.0  0.20255  0.70338  0.66993  1.0000
  H   H948      1.0  0.17968  0.67106  0.68158  1.0000
  C   C556      1.0  0.22606  0.73858  0.73225  1.0000
  H   H949      1.0  0.14046  0.86650  0.65382  1.0000
  C   C557      1.0  0.13895  0.75857  0.65601  1.0000
  C   C558      1.0  0.17720  0.74434  0.61414  1.0000
  C   C559      1.0  0.12914  0.84198  0.70549  1.0000
  H   H950      1.0  0.47644  0.65647  0.72159  1.0000
  H   H951      1.0  0.25954  0.76123  0.71312  1.0000
  H   H952      1.0  0.26984  0.50712  0.72653  1.0000
  C   C560      1.0  0.24632  0.71563  0.49644  1.0000
  H   H953      1.0  0.21360  0.72664  0.73305  1.0000
  H   H954      1.0  0.31326  0.67691  0.64325  1.0000
  C   C561      1.0  0.15726  0.81555  0.72455  1.0000
  C   C562      1.0  0.45185  0.60807  0.72461  1.0000
  H   H955      1.0  0.29896  0.72405  0.72703  1.0000
  C   C563      1.0  0.32905  0.72799  0.49564  1.0000
  N   N40       1.0  0.46814  0.62209  0.73112  1.0000
  C   C564      1.0  0.19967  0.54723  0.73513  1.0000
  H   H956      1.0  0.18534  0.83022  0.73247  1.0000
  H   H957      1.0  0.22452  0.51700  0.73612  1.0000
  Fe  Fe81      1.0  0.25510  0.84987  0.73528  1.0000
  H   H958      1.0  0.19564  0.51279  0.73660  1.0000
  H   H959      1.0  0.49192  0.57579  0.73328  1.0000
  H   H960      1.0  0.16379  0.79836  0.73106  1.0000
  C   C565      1.0  0.49895  0.71744  0.73560  1.0000
  H   H961      1.0  0.43305  0.57910  0.73483  1.0000
  H   H962      1.0  0.27364  0.69775  0.73621  1.0000
  H   H963      1.0  0.33701  0.78761  0.73729  1.0000
  Fe  Fe82      1.0  0.12099  0.76733  0.73823  1.0000
  C   C566      1.0  0.27307  0.97186  0.74026  1.0000
  H   H964      1.0  0.32562  0.64459  0.74178  1.0000
  H   H965      1.0  0.47339  0.74599  0.74203  1.0000
  Fe  Fe83      1.0  0.24576  0.90059  0.73975  1.0000
  H   H966      1.0  0.18077  0.55190  0.73781  1.0000
  C   C567      1.0  0.20947  0.63467  0.74109  1.0000
  H   H967      1.0  0.30765  0.67166  0.74135  1.0000
  H   H968      1.0  0.26444  0.75211  0.74148  1.0000
  H   H969      1.0  0.20410  0.97420  0.74172  1.0000
  C   C568      1.0  0.44282  0.58922  0.74273  1.0000
  H   H970      1.0  0.20800  0.55897  0.74239  1.0000
  Fe  Fe84      1.0  0.24636  0.72953  0.86878  1.0000
  S   S165      1.0  0.23897  0.75700  0.89111  1.0000
  S   S166      1.0  0.23283  0.72376  0.83759  1.0000
  Fe  Fe85      1.0  0.29104  0.70970  0.88683  1.0000
  S   S167      1.0  0.28845  0.73540  0.91055  1.0000
  S   S168      1.0  0.31951  0.68235  0.87741  1.0000
  Fe  Fe86      1.0  0.25144  0.72993  0.91865  1.0000
  S   S169      1.0  0.23212  0.73011  0.95430  1.0000
  Fe  Fe87      1.0  0.27618  0.76074  0.88213  1.0000
  S   S170      1.0  0.28872  0.79444  0.87053  1.0000
  S   S171      1.0  0.25505  0.70188  0.89700  1.0000
  S   S172      1.0  0.28265  0.73570  0.85776  1.0000
  H   H971      1.0  0.32623  0.71700  0.77208  1.0000
  S   S173      1.0  0.12066  0.71172  0.78045  1.0000
  H   H972      1.0  0.14418  0.79281  0.79054  1.0000
  H   H973      1.0  0.23861  0.52460  0.76805  1.0000
  S   S174      1.0  0.09428  0.76399  0.76893  1.0000
  H   H974      1.0  0.16939  0.62876  0.78754  1.0000
  Fe  Fe88      1.0  0.12399  0.74659  0.78691  1.0000
  S   S175      1.0  0.12976  0.75379  0.82090  1.0000
  Fe  Fe89      1.0  0.09283  0.72950  0.75978  1.0000
  H   H975      1.0  0.30271  0.79491  0.79273  1.0000
  H   H976      1.0  0.22229  0.80768  0.93783  1.0000
  C   C569      1.0  0.19071  0.78816  0.79721  1.0000
  H   H977      1.0  0.27988  0.71990  0.96232  1.0000
  Fe  Fe90      1.0  0.22734  0.86602  0.77745  1.0000
  H   H978      1.0  0.25846  0.63902  0.78686  1.0000
  S   S176      1.0  0.21580  0.85668  0.81447  1.0000
  Fe  Fe91      1.0  0.29081  0.58910  0.76987  1.0000
  S   S177      1.0  0.30509  0.60893  0.79174  1.0000
  H   H979      1.0  0.47004  0.72194  0.85443  1.0000
  C   C570      1.0  0.31052  0.94539  0.80902  1.0000
  H   H980      1.0  0.02902  0.73546  0.80414  1.0000
  S   S178      1.0  0.26492  0.56581  0.78477  1.0000
  Fe  Fe92      1.0  0.40440  0.71499  0.77653  1.0000
  S   S179      1.0  0.42997  0.68482  0.76873  1.0000
  S   S180      1.0  0.39700  0.72765  0.81018  1.0000
  H   H981      1.0  0.18035  0.77700  0.79154  1.0000
  H   H982      1.0  0.19214  0.78299  0.81542  1.0000
  H   H983      1.0  0.19294  0.82350  0.79725  1.0000
  C   C571      1.0  0.24590  0.73136  0.97790  1.0000
  H   H984      1.0  0.15418  0.54764  0.79330  1.0000
  H   H985      1.0  0.26099  0.77183  0.79158  1.0000
  C   C572      1.0  0.27333  0.78381  0.78381  1.0000
  C   C573      1.0  0.25338  0.90139  0.81485  1.0000
  H   H986      1.0  0.32980  0.91662  0.76599  1.0000
  C   C574      1.0  0.17291  0.54529  0.78741  1.0000
  C   C575      1.0  0.27326  0.98797  0.75467  1.0000
  C   C576      1.0  0.29504  0.77892  0.79570  1.0000
  H   H987      1.0  0.35733  0.77464  0.78962  1.0000
  C   C577      1.0  0.33220  0.61686  0.78085  1.0000
  C   C578      1.0  0.33832  0.63661  0.78643  1.0000
  C   C579      1.0  0.35908  0.64428  0.77624  1.0000
  S   S181      1.0  0.28809  0.50634  0.76894  1.0000
  H   H988      1.0  0.27851  0.89163  0.83717  1.0000
  H   H989      1.0  0.24272  0.79786  0.98122  1.0000
  H   H990      1.0  0.32679  0.64629  0.79821  1.0000
  H   H991      1.0  0.36353  0.65971  0.78031  1.0000
  C   C580      1.0  0.18014  0.52130  0.78040  1.0000
  C   C581      1.0  0.34460  0.77292  0.80509  1.0000
  H   H992      1.0  0.22718  0.76540  0.75269  1.0000
  C   C582      1.0  0.31943  0.89524  0.81100  1.0000
  C   C583      1.0  0.26139  0.79307  0.97604  1.0000
  N   N41       1.0  0.15656  0.82022  0.80216  1.0000
  H   H993      1.0  0.29588  0.64528  0.74521  1.0000
  C   C584      1.0  0.24616  0.96910  0.78248  1.0000
  H   H994      1.0  0.23585  0.96786  0.79894  1.0000
  N   N42       1.0  0.29630  0.90730  0.80578  1.0000
  H   H995      1.0  0.30387  0.76719  0.97135  1.0000
  H   H996      1.0  0.22808  0.73723  0.76876  1.0000
  S   S182      1.0  0.06027  0.71313  0.76286  1.0000
  H   H997      1.0  0.31660  0.94609  0.82528  1.0000
  H   H998      1.0  0.44704  0.70527  0.81897  1.0000
  Fe  Fe93      1.0  0.24376  0.58504  0.75873  1.0000
  H   H999      1.0  0.43002  0.73975  0.86660  1.0000
  C   C585      1.0  0.17872  0.63678  0.77233  1.0000
  C   C586      1.0  0.15208  0.81004  0.82657  1.0000
  H   H1000     1.0  0.49469  0.69410  0.79181  1.0000
  H   H1001     1.0  0.13965  0.85600  0.76772  1.0000
  H   H1002     1.0  0.28267  0.87522  0.81457  1.0000
  S   S183      1.0  0.41819  0.73845  0.74662  1.0000
  H   H1003     1.0  0.30005  0.67566  0.82876  1.0000
  H   H1004     1.0  0.15046  0.87760  0.77824  1.0000
  H   H1005     1.0  0.16465  0.85180  0.80954  1.0000
  H   H1006     1.0  0.24990  0.82587  0.91077  1.0000
  C   C587      1.0  0.46086  0.73468  0.84226  1.0000
  H   H1007     1.0  0.46994  0.68048  0.79478  1.0000
  H   H1008     1.0  0.33365  0.90407  0.80150  1.0000
  H   H1009     1.0  0.45791  0.78250  0.78803  1.0000
  C   C588      1.0  0.34124  0.69463  0.85879  1.0000
  C   C589      1.0  0.34690  0.71542  0.86200  1.0000
  C   C590      1.0  0.36456  0.72506  0.84740  1.0000
  C   C591      1.0  0.37589  0.71450  0.82893  1.0000
  C   C592      1.0  0.36993  0.69394  0.82538  1.0000
  C   C593      1.0  0.35285  0.68381  0.84054  1.0000
  H   H1010     1.0  0.33797  0.72380  0.87608  1.0000
  H   H1011     1.0  0.36922  0.74088  0.85030  1.0000
  H   H1012     1.0  0.37871  0.68563  0.81121  1.0000
  H   H1013     1.0  0.34846  0.66773  0.83802  1.0000
  C   C594      1.0  0.20360  0.73049  0.83467  1.0000
  C   C595      1.0  0.18786  0.74161  0.85042  1.0000
  C   C596      1.0  0.16487  0.74784  0.84666  1.0000
  C   C597      1.0  0.15769  0.74319  0.82707  1.0000
  C   C598      1.0  0.17331  0.73131  0.81184  1.0000
  C   C599      1.0  0.19619  0.72504  0.81561  1.0000
  H   H1014     1.0  0.19344  0.74568  0.86527  1.0000
  H   H1015     1.0  0.15275  0.75672  0.85868  1.0000
  H   H1016     1.0  0.16783  0.72710  0.79703  1.0000
  H   H1017     1.0  0.20820  0.71605  0.80363  1.0000
  C   C600      1.0  0.26863  0.81183  0.85489  1.0000
  C   C601      1.0  0.24543  0.81467  0.86388  1.0000
  C   C602      1.0  0.22936  0.82861  0.85140  1.0000
  C   C603      1.0  0.23631  0.83919  0.82960  1.0000
  C   C604      1.0  0.25948  0.83601  0.82042  1.0000
  C   C605      1.0  0.27571  0.82271  0.83324  1.0000
  H   H1018     1.0  0.23987  0.80642  0.88061  1.0000
  H   H1019     1.0  0.21148  0.83107  0.85861  1.0000
  H   H1020     1.0  0.26493  0.84394  0.80358  1.0000
  H   H1021     1.0  0.29364  0.82046  0.82624  1.0000
  H   H1022     1.0  0.17010  0.80128  0.85615  1.0000
  H   H1023     1.0  0.17022  0.85549  0.76695  1.0000
  S   S184      1.0  0.39938  0.64157  0.74664  1.0000
  H   H1024     1.0  0.33417  0.78941  0.80787  1.0000
  H   H1025     1.0  0.31374  0.87757  0.84583  1.0000
  H   H1026     1.0  0.33714  0.79545  0.76445  1.0000
  C   C606      1.0  0.26206  0.83285  0.91897  1.0000
  H   H1027     1.0  0.35477  0.76798  0.81937  1.0000
  H   H1028     1.0  0.20827  0.51727  0.81427  1.0000
  H   H1029     1.0  0.24796  0.91941  0.81726  1.0000
  S   S185      1.0  0.15056  0.75324  0.75694  1.0000
  H   H1030     1.0  0.25003  0.89873  0.79802  1.0000
  S   S186      1.0  0.26304  0.87014  0.76046  1.0000
  H   H1031     1.0  0.24246  0.82943  0.95237  1.0000
  Fe  Fe94      1.0  0.40407  0.67737  0.74893  1.0000
  H   H1032     1.0  0.43019  0.71692  0.85119  1.0000
  C   C607      1.0  0.22469  0.51929  0.80316  1.0000
  H   H1033     1.0  0.13419  0.81580  0.83395  1.0000
  H   H1034     1.0  0.23315  0.69556  0.77186  1.0000
  H   H1035     1.0  0.18147  0.54758  0.80172  1.0000
  H   H1036     1.0  0.32313  0.76828  0.94558  1.0000
  C   C608      1.0  0.20661  0.52206  0.74404  1.0000
  H   H1037     1.0  0.23076  0.62916  0.79320  1.0000
  H   H1038     1.0  0.10992  0.83675  0.79428  1.0000
  C   C609      1.0  0.29078  0.93073  0.81283  1.0000
  C   C610      1.0  0.45246  0.77194  0.80423  1.0000
  C   C611      1.0  0.22133  0.52727  0.77821  1.0000
  C   C612      1.0  0.29524  0.90809  0.78091  1.0000
  C   C613      1.0  0.49528  0.73089  0.81379  1.0000
  C   C614      1.0  0.32284  0.89155  0.83616  1.0000
  H   H1039     1.0  0.30370  0.96323  0.80288  1.0000
  H   H1040     1.0  0.34038  0.75229  0.76208  1.0000
  C   C615      1.0  0.32341  0.76312  0.76454  1.0000
  C   C616      1.0  0.01373  0.74870  0.80355  1.0000
  H   H1041     1.0  0.27786  0.91517  0.77671  1.0000
  C   C617      1.0  0.19974  0.99159  0.74657  1.0000
  H   H1042     1.0  0.46105  0.77686  0.81717  1.0000
  H   H1043     1.0  0.34135  0.88633  0.83754  1.0000
  H   H1044     1.0  0.21655  0.54596  0.77629  1.0000
  C   C618      1.0  0.01784  0.71182  0.75131  1.0000
  H   H1045     1.0  0.49701  0.63085  0.76231  1.0000
  C   C619      1.0  0.37400  0.63185  0.76093  1.0000
  C   C620      1.0  0.45754  0.74656  0.80093  1.0000
  C   C621      1.0  0.27854  0.89295  0.81861  1.0000
  H   H1046     1.0  0.30340  0.70293  0.78814  1.0000
  S   S187      1.0  0.37720  0.70537  0.75983  1.0000
  H   H1047     1.0  0.01280  0.75798  0.81815  1.0000
  H   H1048     1.0  0.31309  0.75785  0.75303  1.0000
  H   H1049     1.0  0.17620  0.55913  0.77348  1.0000
  H   H1050     1.0  0.27667  0.94074  0.80409  1.0000
  H   H1051     1.0  0.32275  0.87818  0.80523  1.0000
  C   C622      1.0  0.14111  0.81165  0.78893  1.0000
  C   C623      1.0  0.34729  0.60433  0.76577  1.0000
  H   H1052     1.0  0.32485  0.70927  0.80254  1.0000
  C   C624      1.0  0.32725  0.78768  0.75455  1.0000
  N   N43       1.0  0.20459  0.51573  0.76938  1.0000
  H   H1053     1.0  0.20834  0.78523  0.78801  1.0000
  H   H1054     1.0  0.23540  0.93954  0.77334  1.0000
  H   H1055     1.0  0.31085  0.79887  0.75259  1.0000
  C   C625      1.0  0.29322  0.79412  0.94391  1.0000
  H   H1056     1.0  0.14509  0.81740  0.77053  1.0000
  H   H1057     1.0  0.49849  0.75928  0.83200  1.0000
  C   C626      1.0  0.16753  0.81579  0.84251  1.0000
  H   H1058     1.0  0.44076  0.74126  0.79987  1.0000
  H   H1059     1.0  0.27965  0.82901  0.91003  1.0000
  H   H1060     1.0  0.29249  0.79947  0.98850  1.0000
  H   H1061     1.0  0.29724  0.75666  0.94724  1.0000
  C   C627      1.0  0.43490  0.73424  0.84961  1.0000
  H   H1062     1.0  0.26448  0.80117  0.78606  1.0000
  H   H1063     1.0  0.42439  0.74601  0.83801  1.0000
  C   C628      1.0  0.31149  0.92236  0.76431  1.0000
  H   H1064     1.0  0.13502  0.85122  0.81049  1.0000
  H   H1065     1.0  0.15958  0.83124  0.85019  1.0000
  Fe  Fe95      1.0  0.28106  0.54428  0.75775  1.0000
  H   H1066     1.0  0.30936  0.92055  0.74678  1.0000
  H   H1067     1.0  0.24198  0.89122  0.82743  1.0000
  C   C629      1.0  0.18104  0.81347  0.79205  1.0000
  H   H1068     1.0  0.18292  0.81751  0.77332  1.0000
  H   H1069     1.0  0.23306  0.65692  0.79742  1.0000
  C   C630      1.0  0.15319  0.85914  0.77699  1.0000
  C   C631      1.0  0.15203  0.84569  0.80098  1.0000
  H   H1070     1.0  0.15774  0.66949  0.77350  1.0000
  C   C632      1.0  0.11512  0.81815  0.79558  1.0000
  H   H1071     1.0  0.29863  0.89060  0.77621  1.0000
  H   H1072     1.0  0.30687  0.94070  0.76573  1.0000
  N   N44       1.0  0.46972  0.73034  0.81832  1.0000
  C   C633      1.0  0.19759  0.62427  0.76078  1.0000
  S   S188      1.0  0.21051  0.89787  0.75860  1.0000
  C   C634      1.0  0.26009  0.98639  0.77600  1.0000
  H   H1073     1.0  0.46731  0.74562  0.78385  1.0000
  H   H1074     1.0  0.27169  0.68692  0.83980  1.0000
  H   H1075     1.0  0.10594  0.81189  0.78371  1.0000
  N   N45       1.0  0.31231  0.75913  0.78888  1.0000
  C   C635      1.0  0.29975  0.73870  0.79204  1.0000
  H   H1076     1.0  0.18493  0.81852  0.83412  1.0000
  C   C636      1.0  0.33017  0.75399  0.80475  1.0000
  H   H1077     1.0  0.10911  0.80978  0.81273  1.0000
  C   C637      1.0  0.31472  0.71583  0.78839  1.0000
  H   H1078     1.0  0.46444  0.75117  0.84562  1.0000
  H   H1079     1.0  0.28982  0.73637  0.80928  1.0000
  H   H1080     1.0  0.28687  0.74117  0.78013  1.0000
  H   H1081     1.0  0.28915  0.77624  0.81428  1.0000
  H   H1082     1.0  0.32207  0.74920  0.82245  1.0000
  C   C638      1.0  0.24594  0.95300  0.76807  1.0000
  H   H1083     1.0  0.28409  0.92955  0.83121  1.0000
  H   H1084     1.0  0.43367  0.77706  0.80821  1.0000
  H   H1085     1.0  0.26157  0.78776  0.92033  1.0000
  H   H1086     1.0  0.32531  0.94043  0.79650  1.0000
  H   H1087     1.0  0.01709  0.76014  0.78745  1.0000
  H   H1088     1.0  0.15272  0.79136  0.82832  1.0000
  H   H1089     1.0  0.34294  0.73915  0.80054  1.0000
  N   N46       1.0  0.25260  0.64595  0.83699  1.0000
  C   C639      1.0  0.25546  0.63361  0.86034  1.0000
  C   C640      1.0  0.23374  0.66571  0.83927  1.0000
  C   C641      1.0  0.27433  0.65491  0.82550  1.0000
  C   C642      1.0  0.24690  0.62953  0.82303  1.0000
  C   C643      1.0  0.27652  0.61509  0.86199  1.0000
  C   C644      1.0  0.20914  0.65966  0.84542  1.0000
  C   C645      1.0  0.28358  0.67094  0.83828  1.0000
  C   C646      1.0  0.24221  0.63941  0.79876  1.0000
  H   H1090     1.0  0.25640  0.64569  0.87221  1.0000
  H   H1091     1.0  0.24016  0.62516  0.86773  1.0000
  H   H1092     1.0  0.23413  0.67823  0.82360  1.0000
  H   H1093     1.0  0.23630  0.67548  0.85261  1.0000
  H   H1094     1.0  0.28827  0.64076  0.82214  1.0000
  H   H1095     1.0  0.27186  0.66443  0.80852  1.0000
  H   H1096     1.0  0.26128  0.61548  0.82095  1.0000
  H   H1097     1.0  0.23232  0.62055  0.83175  1.0000
  H   H1098     1.0  0.27626  0.60698  0.87985  1.0000
  H   H1099     1.0  0.27640  0.60142  0.85177  1.0000
  H   H1100     1.0  0.29294  0.62220  0.85721  1.0000
  H   H1101     1.0  0.20714  0.64768  0.86131  1.0000
  H   H1102     1.0  0.19712  0.67544  0.84810  1.0000
  H   H1103     1.0  0.20367  0.65267  0.83156  1.0000
  H   H1104     1.0  0.28729  0.66281  0.85531  1.0000
  C   C647      1.0  0.03593  0.72473  0.74929  1.0000
  H   H1105     1.0  0.44517  0.63152  0.76062  1.0000
  H   H1106     1.0  0.26331  0.71483  0.75804  1.0000
  H   H1107     1.0  0.22620  0.69221  0.74480  1.0000
  H   H1108     1.0  0.30247  0.80658  0.94927  1.0000
  S   S189      1.0  0.22098  0.84314  0.75415  1.0000
  S   S190      1.0  0.20655  0.59579  0.77114  1.0000
  H   H1109     1.0  0.27099  0.83438  0.95150  1.0000
  H   H1110     1.0  0.43059  0.59667  0.75636  1.0000
  C   C648      1.0  0.17210  0.65981  0.76440  1.0000
  H   H1111     1.0  0.25742  0.85160  0.91646  1.0000
  H   H1112     1.0  0.29733  0.79595  0.92514  1.0000
  C   C649      1.0  0.36832  0.61162  0.75614  1.0000
  C   C650      1.0  0.46572  0.70650  0.81673  1.0000
  H   H1113     1.0  0.47282  0.69416  0.83055  1.0000
  H   H1114     1.0  0.34278  0.58899  0.76157  1.0000
  C   C651      1.0  0.25971  0.95412  0.74705  1.0000
  C   C652      1.0  0.30468  0.77018  0.95270  1.0000
  C   C653      1.0  0.26037  0.82427  0.94457  1.0000
  C   C654      1.0  0.25579  0.78538  0.93889  1.0000
  H   H1115     1.0  0.27734  0.78297  0.76540  1.0000
  H   H1116     1.0  0.31725  0.90714  0.84424  1.0000
  H   H1117     1.0  0.20196  0.75189  0.75959  1.0000
  H   H1118     1.0  0.47359  0.63741  0.78358  1.0000
  C   C655      1.0  0.47862  0.63793  0.76504  1.0000
  H   H1119     1.0  0.26054  0.76698  0.94432  1.0000
  N   N47       1.0  0.26769  0.79921  0.95089  1.0000
  C   C656      1.0  0.47568  0.69721  0.79431  1.0000
  H   H1120     1.0  0.20421  0.99012  0.76387  1.0000
  H   H1121     1.0  0.16789  0.51893  0.76915  1.0000
  C   C657      1.0  0.26965  0.72575  0.97724  1.0000
  H   H1122     1.0  0.01940  0.69481  0.76050  1.0000
  H   H1123     1.0  0.37991  0.60186  0.74446  1.0000
  H   H1124     1.0  0.26462  0.77440  0.98093  1.0000
  H   H1125     1.0  0.24924  0.67434  0.75626  1.0000
  H   H1126     1.0  0.46940  0.70841  0.77953  1.0000
  H   H1127     1.0  0.46505  0.60699  0.76652  1.0000
  H   H1128     1.0  0.22265  0.77959  0.93203  1.0000
  C   C658      1.0  0.46332  0.62392  0.75610  1.0000
  H   H1129     1.0  0.23647  0.50301  0.80479  1.0000
  H   H1130     1.0  0.23289  0.53196  0.80937  1.0000
  S   S191      1.0  0.26837  0.61006  0.74581  1.0000
  H   H1131     1.0  0.49980  0.76645  0.75660  1.0000
  Fe  Fe96      1.0  0.14517  0.71956  0.74905  1.0000
  H   H1132     1.0  0.47627  0.65610  0.75774  1.0000
  C   C659      1.0  0.18427  0.67020  0.74481  1.0000
  C   C660      1.0  0.22083  0.74874  0.75467  1.0000
  H   H1133     1.0  0.26942  0.82291  0.98879  1.0000
  C   C661      1.0  0.27363  0.80417  0.99118  1.0000
  C   C662      1.0  0.22931  0.78972  0.94270  1.0000
  C   C663      1.0  0.24039  0.69210  0.75447  1.0000
  H   H1134     1.0  0.45656  0.57736  0.75032  1.0000
  H   H1135     1.0  0.17637  0.50931  0.79613  1.0000
  H   H1136     1.0  0.49996  0.58926  0.75514  1.0000
  S   S192      1.0  0.30914  0.56601  0.74511  1.0000
  H   H1137     1.0  0.22231  0.78381  0.96040  1.0000
  H   H1138     1.0  0.49865  0.76679  0.80148  1.0000
  C   C664      1.0  0.49105  0.73855  0.74283  1.0000
  C   C665      1.0  0.25809  0.70829  0.74367  1.0000
  H   H1139     1.0  0.50234  0.72718  0.79643  1.0000
  H   H1140     1.0  0.74696  0.05678  0.19234  1.0000
  H   H1141     1.0  0.79598  0.21885  0.20624  1.0000
  C   C666      1.0  0.79730  0.20031  0.21217  1.0000
  H   H1142     1.0  0.69030  0.19352  0.19352  1.0000
  Fe  Fe97      1.0  0.76761  0.08640  0.23492  1.0000
  H   H1143     1.0  0.70227  0.40059  0.20461  1.0000
  H   H1144     1.0  0.63616  0.28816  0.17435  1.0000
  C   C667      1.0  0.70430  0.32084  0.18750  1.0000
  H   H1145     1.0  0.72066  0.39303  0.12091  1.0000
  H   H1146     1.0  0.77949  0.19617  0.21444  1.0000
  H   H1147     1.0  0.65782  0.22761  0.16536  1.0000
  S   S193      1.0  0.77740  0.09444  0.19737  1.0000
  C   C668      1.0  0.66302  0.26293  0.18710  1.0000
  Fe  Fe98      1.0  0.81491  0.23284  0.13164  1.0000
  S   S194      1.0  0.78337  0.24428  0.15467  1.0000
  S   S195      1.0  0.85063  0.22490  0.14116  1.0000
  Fe  Fe99      1.0  0.78833  0.23055  0.09289  1.0000
  S   S196      1.0  0.75434  0.24161  0.11294  1.0000
  S   S197      1.0  0.79627  0.22091  0.05735  1.0000
  Fe  Fe100     1.0  0.77273  0.26683  0.12396  1.0000
  S   S198      1.0  0.75579  0.30284  0.12527  1.0000
  Fe  Fe101     1.0  0.76786  0.21805  0.14205  1.0000
  S   S199      1.0  0.74507  0.19861  0.16883  1.0000
  S   S200      1.0  0.80576  0.25783  0.10163  1.0000
  S   S201      1.0  0.80028  0.20469  0.12134  1.0000
  H   H1148     1.0  0.63198  0.37736  0.23940  1.0000
  C   C669      1.0  0.70566  0.33925  0.16659  1.0000
  H   H1149     1.0  0.63515  0.26060  0.16787  1.0000
  H   H1150     1.0  0.61225  0.34809  0.22909  1.0000
  H   H1151     1.0  0.67113  0.27734  0.18993  1.0000
  H   H1152     1.0  0.71607  0.30538  0.18342  1.0000
  N   N48       1.0  0.69478  0.36301  0.17035  1.0000
  Fe  Fe102     1.0  0.76281  0.36462  0.22328  1.0000
  S   S202      1.0  0.78122  0.36668  0.18771  1.0000
  H   H1153     1.0  0.82344  0.03445  0.21655  1.0000
  C   C670      1.0  0.64705  0.27258  0.16914  1.0000
  H   H1154     1.0  0.50694  0.30059  0.23293  1.0000
  H   H1155     1.0  0.72830  0.36320  0.12780  1.0000
  C   C671      1.0  0.76629  0.31825  0.14271  1.0000
  C   C672      1.0  0.76469  0.31152  0.16613  1.0000
  C   C673      1.0  0.76876  0.32644  0.18030  1.0000
  C   C674      1.0  0.77535  0.34766  0.17092  1.0000
  C   C675      1.0  0.77808  0.35374  0.14745  1.0000
  C   C676      1.0  0.77315  0.33929  0.13346  1.0000
  H   H1156     1.0  0.75931  0.29528  0.17337  1.0000
  H   H1157     1.0  0.76728  0.32132  0.19836  1.0000
  H   H1158     1.0  0.78334  0.37001  0.14011  1.0000
  H   H1159     1.0  0.77418  0.34464  0.11541  1.0000
  C   C677      1.0  0.77516  0.22247  0.03950  1.0000
  C   C678      1.0  0.75353  0.23517  0.04362  1.0000
  H   H1160     1.0  0.73748  0.12463  0.21316  1.0000
  C   C679      1.0  0.80886  0.00391  0.21210  1.0000
  H   H1161     1.0  0.74912  0.24366  0.05850  1.0000
  C   C680      1.0  0.80132  0.28276  0.99840  1.0000
  H   H1162     1.0  0.72416  0.33898  0.16022  1.0000
  C   C681      1.0  0.76726  0.12281  0.18792  1.0000
  C   C682      1.0  0.74765  0.13396  0.19956  1.0000
  C   C683      1.0  0.74085  0.15718  0.19334  1.0000
  C   C684      1.0  0.75351  0.16932  0.17528  1.0000
  C   C685      1.0  0.77269  0.15803  0.16310  1.0000
  C   C686      1.0  0.77951  0.13475  0.16935  1.0000
  H   H1163     1.0  0.58104  0.14596  0.23962  1.0000
  H   H1164     1.0  0.72581  0.16573  0.20260  1.0000
  H   H1165     1.0  0.78229  0.16716  0.14889  1.0000
  H   H1166     1.0  0.79451  0.12611  0.16009  1.0000
  C   C687      1.0  0.86650  0.24808  0.20446  1.0000
  C   C688      1.0  0.88361  0.23577  0.19089  1.0000
  C   C689      1.0  0.87844  0.22852  0.17162  1.0000
  C   C690      1.0  0.85610  0.23323  0.16606  1.0000
  C   C691      1.0  0.83879  0.24477  0.18013  1.0000
  C   C692      1.0  0.84402  0.25239  0.19922  1.0000
  H   H1167     1.0  0.90100  0.23243  0.19484  1.0000
  H   H1168     1.0  0.89187  0.21945  0.16086  1.0000
  H   H1169     1.0  0.82151  0.24830  0.17606  1.0000
  H   H1170     1.0  0.83068  0.26165  0.20987  1.0000
  H   H1171     1.0  0.71065  0.27440  0.13689  1.0000
  N   N49       1.0  0.84996  0.31452  0.15316  1.0000
  C   C693      1.0  0.82893  0.30824  0.16887  1.0000
  C   C694      1.0  0.84638  0.31186  0.12962  1.0000
  C   C695      1.0  0.85163  0.33901  0.15459  1.0000
  C   C696      1.0  0.87046  0.29892  0.16095  1.0000
  C   C697      1.0  0.82706  0.31294  0.19353  1.0000
  C   C698      1.0  0.84446  0.28755  0.12580  1.0000
  C   C699      1.0  0.86544  0.35220  0.13441  1.0000
  C   C700      1.0  0.89377  0.30031  0.14596  1.0000
  H   H1172     1.0  0.81325  0.31733  0.16210  1.0000
  H   H1173     1.0  0.82752  0.29001  0.16982  1.0000
  H   H1174     1.0  0.86030  0.31764  0.11662  1.0000
  H   H1175     1.0  0.83051  0.32297  0.12492  1.0000
  H   H1176     1.0  0.83418  0.34915  0.15639  1.0000
  H   H1177     1.0  0.85905  0.34034  0.17004  1.0000
  H   H1178     1.0  0.87318  0.30197  0.17793  1.0000
  H   H1179     1.0  0.86748  0.28089  0.16385  1.0000
  H   H1180     1.0  0.84153  0.30355  0.20213  1.0000
  H   H1181     1.0  0.82551  0.33133  0.19470  1.0000
  H   H1182     1.0  0.71494  0.24506  0.22337  1.0000
  H   H1183     1.0  0.84306  0.28761  0.10769  1.0000
  H   H1184     1.0  0.85986  0.27540  0.12956  1.0000
  H   H1185     1.0  0.82884  0.28123  0.13559  1.0000
  H   H1186     1.0  0.86724  0.36893  0.13895  1.0000
  H   H1187     1.0  0.85620  0.35581  0.11940  1.0000
  H   H1188     1.0  0.88292  0.34348  0.12984  1.0000
  H   H1189     1.0  0.90279  0.31323  0.15072  1.0000
  H   H1190     1.0  0.89265  0.30362  0.12766  1.0000
  H   H1191     1.0  0.90461  0.28351  0.14841  1.0000
  H   H1192     1.0  0.68683  0.31589  0.19205  1.0000
  H   H1193     1.0  0.76919  0.05278  0.16938  1.0000
  C   C701      1.0  0.75960  0.04368  0.18441  1.0000
  H   H1194     1.0  0.69866  0.28268  0.16319  1.0000
  H   H1195     1.0  0.79729  0.20146  0.01700  1.0000
  C   C702      1.0  0.80004  0.14276  0.22250  1.0000
  H   H1196     1.0  0.72203  0.40283  0.17944  1.0000
  C   C703      1.0  0.77549  0.03175  0.20178  1.0000
  H   H1197     1.0  0.66980  0.18773  0.17768  1.0000
  H   H1198     1.0  0.72544  0.26355  0.16080  1.0000
  C   C704      1.0  0.73766  0.23713  0.02826  1.0000
  C   C705      1.0  0.66987  0.36197  0.17948  1.0000
  H   H1199     1.0  0.81117  0.30703  0.20325  1.0000
  H   H1200     1.0  0.69815  0.33327  0.15322  1.0000
  H   H1201     1.0  0.72573  0.36448  0.18426  1.0000
  H   H1202     1.0  0.70090  0.36350  0.20458  1.0000
  H   H1203     1.0  0.71323  0.26463  0.19819  1.0000
  C   C706      1.0  0.70818  0.26808  0.15529  1.0000
  H   H1204     1.0  0.86411  0.16726  0.15974  1.0000
  N   N50       1.0  0.68041  0.24272  0.18176  1.0000
  H   H1205     1.0  0.71000  0.22299  0.19557  1.0000
  H   H1206     1.0  0.66812  0.35053  0.19578  1.0000
  H   H1207     1.0  0.66050  0.39111  0.19846  1.0000
  C   C707      1.0  0.69538  0.24719  0.15936  1.0000
  H   H1208     1.0  0.68900  0.26379  0.22043  1.0000
  H   H1209     1.0  0.69147  0.40749  0.17847  1.0000
  C   C708      1.0  0.70537  0.39690  0.18687  1.0000
  C   C709      1.0  0.66290  0.31570  0.23846  1.0000
  H   H1210     1.0  0.86775  0.19540  0.22343  1.0000
  H   H1211     1.0  0.68807  0.39511  0.14831  1.0000
  C   C710      1.0  0.66720  0.22369  0.18031  1.0000
  H   H1212     1.0  0.63710  0.38122  0.19009  1.0000
  S   S203      1.0  0.87333  0.25929  0.22713  1.0000
  H   H1213     1.0  0.60668  0.19146  0.22277  1.0000
  H   H1214     1.0  0.79406  0.46599  0.22991  1.0000
  C   C711      1.0  0.69465  0.23502  0.20085  1.0000
  H   H1215     1.0  0.82305  0.00912  0.16731  1.0000
  S   S204      1.0  0.73906  0.39473  0.23497  1.0000
  C   C712      1.0  0.78067  0.21153  0.02010  1.0000
  C   C713      1.0  0.69650  0.37748  0.14751  1.0000
  S   S205      1.0  0.73755  0.34024  0.23558  1.0000
  H   H1216     1.0  0.65196  0.25853  0.20343  1.0000
  H   H1217     1.0  0.67154  0.29853  0.23816  1.0000
  H   H1218     1.0  0.70890  0.23250  0.15687  1.0000
  N   N51       1.0  0.83012  0.16795  0.20139  1.0000
  C   C714      1.0  0.83621  0.15246  0.18335  1.0000
  H   H1219     1.0  0.78641  0.29576  0.99511  1.0000
  C   C715      1.0  0.85192  0.17627  0.20426  1.0000
  C   C716      1.0  0.81252  0.18745  0.19372  1.0000
  C   C717      1.0  0.84663  0.16316  0.15979  1.0000
  H   H1220     1.0  0.82256  0.05332  0.15567  1.0000
  H   H1221     1.0  0.51960  0.23817  0.21854  1.0000
  C   C718      1.0  0.74329  0.22649  0.00868  1.0000
  C   C719      1.0  0.68150  0.20010  0.17849  1.0000
  H   H1222     1.0  0.82078  0.14572  0.18047  1.0000
  C   C720      1.0  0.80888  0.02253  0.17230  1.0000
  C   C721      1.0  0.51656  0.23526  0.23682  1.0000
  H   H1223     1.0  0.81787  0.16315  0.23766  1.0000
  H   H1224     1.0  0.85875  0.18666  0.18850  1.0000
  H   H1225     1.0  0.82096  0.20021  0.18111  1.0000
  H   H1226     1.0  0.80045  0.18134  0.18450  1.0000
  H   H1227     1.0  0.79938  0.02756  0.23740  1.0000
  H   H1228     1.0  0.83552  0.17847  0.15301  1.0000
  H   H1229     1.0  0.81042  0.05567  0.18366  1.0000
  H   H1230     1.0  0.84500  0.18231  0.24010  1.0000
  H   H1231     1.0  0.83778  0.03828  0.17829  1.0000
  H   H1232     1.0  0.84830  0.15072  0.14771  1.0000
  H   H1233     1.0  0.68472  0.22538  0.21540  1.0000
  H   H1234     1.0  0.69419  0.20005  0.16296  1.0000
  H   H1235     1.0  0.80348  0.19758  0.22876  1.0000
  H   H1236     1.0  0.71415  0.46512  0.23678  1.0000
  S   S206      1.0  0.65448  0.19212  0.23693  1.0000
  C   C722      1.0  0.82055  0.04347  0.17287  1.0000
  H   H1237     1.0  0.65377  0.22159  0.19527  1.0000
  H   H1238     1.0  0.73277  0.38236  0.14641  1.0000
  C   C723      1.0  0.70704  0.37095  0.18703  1.0000
  H   H1239     1.0  0.70988  0.32597  0.20230  1.0000
  C   C724      1.0  0.81483  0.02047  0.22659  1.0000
  H   H1240     1.0  0.66143  0.35456  0.16774  1.0000
  S   S207      1.0  0.60574  0.24210  0.24166  1.0000
  N   N52       1.0  0.79429  0.01377  0.19364  1.0000
  H   H1241     1.0  0.65676  0.27752  0.15233  1.0000
  H   H1242     1.0  0.54410  0.18887  0.24062  1.0000
  C   C725      1.0  0.65507  0.38449  0.18436  1.0000
  C   C726      1.0  0.70330  0.25348  0.21096  1.0000
  H   H1243     1.0  0.68701  0.37098  0.13598  1.0000
  H   H1244     1.0  0.65461  0.39752  0.16924  1.0000
  C   C727      1.0  0.72107  0.37896  0.13523  1.0000
  H   H1245     1.0  0.76450  0.02437  0.21694  1.0000
  H   H1246     1.0  0.78230  0.04547  0.20768  1.0000
  H   H1247     1.0  0.62212  0.15263  0.24237  1.0000
  H   H1248     1.0  0.84847  0.13729  0.18881  1.0000
  H   H1249     1.0  0.79913  0.02622  0.15758  1.0000
  H   H1250     1.0  0.68568  0.24817  0.14487  1.0000
  H   H1251     1.0  0.72098  0.24705  0.03150  1.0000
  C   C728      1.0  0.64070  0.36019  0.23913  1.0000
  H   H1252     1.0  0.78630  0.15490  0.21513  1.0000
  S   S208      1.0  0.62704  0.30159  0.22342  1.0000
  H   H1253     1.0  0.68760  0.15565  0.22285  1.0000
  C   C729      1.0  0.76480  0.21349  0.00475  1.0000
  H   H1254     1.0  0.74961  0.03185  0.17924  1.0000
  H   H1255     1.0  0.57938  0.20833  0.22703  1.0000
  C   C730      1.0  0.62950  0.34362  0.23336  1.0000
  H   H1256     1.0  0.80429  0.12785  0.21320  1.0000
  H   H1257     1.0  0.78592  0.25351  0.99568  1.0000
  C   C731      1.0  0.82161  0.15366  0.22300  1.0000
  H   H1258     1.0  0.79308  0.13630  0.24008  1.0000
  H   H1259     1.0  0.54463  0.15848  0.24071  1.0000
  C   C732      1.0  0.64053  0.32136  0.23303  1.0000
  C   C733      1.0  0.68198  0.15143  0.24073  1.0000
  C   C734      1.0  0.85037  0.19113  0.22305  1.0000
  H   H1260     1.0  0.83532  0.13959  0.22767  1.0000
  H   H1261     1.0  0.83922  0.20746  0.21962  1.0000
  S   S209      1.0  0.91814  0.20208  0.23759  1.0000
  H   H1262     1.0  0.58100  0.17956  0.22312  1.0000
  H   H1263     1.0  0.79999  0.27790  0.01705  1.0000
  H   H1264     1.0  0.86554  0.16161  0.20759  1.0000
  C   C735      1.0  0.58874  0.19105  0.23120  1.0000
  H   H1265     1.0  0.55057  0.24106  0.24069  1.0000
  H   H1266     1.0  0.61807  0.12430  0.24056  1.0000
  H   H1267     1.0  0.82668  0.01095  0.23836  1.0000
  H   H1268     1.0  0.74357  0.49079  0.23521  1.0000
  H   H1269     1.0  0.77392  0.00059  0.17318  1.0000
  H   H1270     1.0  0.74024  0.16380  0.24240  1.0000
  H   H1271     1.0  0.81608  0.24890  0.99288  1.0000
  H   H1272     1.0  0.81748  0.29018  0.99286  1.0000
  H   H1273     1.0  0.76663  0.44674  0.31138  1.0000
  H   H1274     1.0  0.68950  0.27627  0.46187  1.0000
  Fe  Fe103     1.0  0.73025  0.08686  0.27532  1.0000
  H   H1275     1.0  0.69191  0.18997  0.29614  1.0000
  C   C736      1.0  0.81522  0.28564  0.25566  1.0000
  H   H1276     1.0  0.77996  0.48411  0.29705  1.0000
  Fe  Fe104     1.0  0.89996  0.21915  0.29726  1.0000
  S   S210      1.0  0.88846  0.23344  0.32990  1.0000
  S   S211      1.0  0.92306  0.18676  0.29144  1.0000
  S   S212      1.0  0.69384  0.09844  0.28956  1.0000
  S   S213      1.0  0.75523  0.07388  0.29996  1.0000
  Fe  Fe105     1.0  0.63497  0.21948  0.25635  1.0000
  S   S214      1.0  0.61731  0.21594  0.29208  1.0000
  C   C737      1.0  0.58737  0.14393  0.25611  1.0000
  H   H1277     1.0  0.94750  0.17641  0.34982  1.0000
  S   S215      1.0  0.60324  0.27139  0.28367  1.0000
  N   N53       1.0  0.73259  0.29368  0.46580  1.0000
  Fe  Fe106     1.0  0.63318  0.24664  0.29467  1.0000
  S   S216      1.0  0.65202  0.25499  0.32112  1.0000
  Fe  Fe107     1.0  0.58884  0.24080  0.27763  1.0000
  S   S217      1.0  0.55167  0.23521  0.28973  1.0000
  S   S218      1.0  0.65321  0.24805  0.25999  1.0000
  H   H1278     1.0  0.60569  0.15695  0.29033  1.0000
  Fe  Fe108     1.0  0.73536  0.20075  0.40104  1.0000
  S   S219      1.0  0.72316  0.22967  0.42115  1.0000
  S   S220      1.0  0.71322  0.18380  0.38358  1.0000
  Fe  Fe109     1.0  0.78485  0.19912  0.40785  1.0000
  S   S221      1.0  0.77743  0.22822  0.42816  1.0000
  S   S222      1.0  0.81858  0.17833  0.39762  1.0000
  Fe  Fe110     1.0  0.74707  0.21157  0.44567  1.0000
  S   S223      1.0  0.73445  0.20882  0.48342  1.0000
  Fe  Fe111     1.0  0.75417  0.24430  0.40242  1.0000
  S   S224      1.0  0.75105  0.28189  0.39009  1.0000
  S   S225      1.0  0.75626  0.18099  0.42728  1.0000
  S   S226      1.0  0.76472  0.21672  0.38038  1.0000
  H   H1279     1.0  0.91318  0.18650  0.37452  1.0000
  Fe  Fe112     1.0  0.75332  0.33475  0.26752  1.0000
  S   S227      1.0  0.75793  0.29858  0.28389  1.0000
  S   S228      1.0  0.72907  0.36195  0.28320  1.0000
  C   C738      1.0  0.74256  0.17474  0.25478  1.0000
  H   H1280     1.0  0.60632  0.18472  0.26041  1.0000
  C   C739      1.0  0.77240  0.45100  0.29354  1.0000
  C   C740      1.0  0.77208  0.43541  0.27867  1.0000
  H   H1281     1.0  0.71391  0.31379  0.43990  1.0000
  C   C741      1.0  0.75566  0.29827  0.45303  1.0000
  C   C742      1.0  0.74941  0.20696  0.31329  1.0000
  C   C743      1.0  0.83248  0.26068  0.31457  1.0000
  H   H1282     1.0  0.85479  0.29243  0.26604  1.0000
  C   C744      1.0  0.75008  0.28768  0.36080  1.0000
  C   C745      1.0  0.75401  0.30898  0.34895  1.0000
  C   C746      1.0  0.75533  0.31291  0.32527  1.0000
  C   C747      1.0  0.75298  0.29541  0.31348  1.0000
  C   C748      1.0  0.74806  0.27452  0.32540  1.0000
  C   C749      1.0  0.74631  0.27079  0.34901  1.0000
  H   H1283     1.0  0.75676  0.32220  0.35800  1.0000
  H   H1284     1.0  0.75918  0.32912  0.31612  1.0000
  H   H1285     1.0  0.74585  0.26108  0.31637  1.0000
  H   H1286     1.0  0.74221  0.25477  0.35804  1.0000
  Fe  Fe113     1.0  0.77689  0.09895  0.27914  1.0000
  Fe  Fe114     1.0  0.75493  0.38514  0.26699  1.0000
  H   H1287     1.0  0.79981  0.30119  0.30095  1.0000
  H   H1288     1.0  0.57877  0.20035  0.26473  1.0000
  Fe  Fe115     1.0  0.89884  0.18314  0.26775  1.0000
  H   H1289     1.0  0.73642  0.22216  0.31053  1.0000
  H   H1290     1.0  0.84211  0.24440  0.30957  1.0000
  H   H1291     1.0  0.52188  0.17457  0.25650  1.0000
  H   H1292     1.0  0.79238  0.28701  0.45021  1.0000
  H   H1293     1.0  0.74038  0.25758  0.46342  1.0000
  C   C750      1.0  0.66578  0.16664  0.25219  1.0000
  C   C751      1.0  0.66884  0.23447  0.33803  1.0000
  C   C752      1.0  0.68586  0.24152  0.34779  1.0000
  C   C753      1.0  0.69925  0.22603  0.36190  1.0000
  C   C754      1.0  0.69585  0.20328  0.36635  1.0000
  C   C755      1.0  0.67895  0.19605  0.35653  1.0000
  C   C756      1.0  0.66540  0.21164  0.34237  1.0000
  H   H1294     1.0  0.68885  0.25899  0.34446  1.0000
  H   H1295     1.0  0.71217  0.23171  0.36946  1.0000
  H   H1296     1.0  0.67618  0.17845  0.36007  1.0000
  H   H1297     1.0  0.65219  0.20608  0.33508  1.0000
  C   C757      1.0  0.53032  0.23336  0.27298  1.0000
  C   C758      1.0  0.82223  0.30875  0.32208  1.0000
  C   C759      1.0  0.58834  0.18534  0.25717  1.0000
  H   H1298     1.0  0.69707  0.23264  0.28165  1.0000
  S   S229      1.0  0.79566  0.07393  0.25639  1.0000
  H   H1299     1.0  0.58292  0.14048  0.29952  1.0000
  H   H1300     1.0  0.76134  0.17356  0.25480  1.0000
  C   C760      1.0  0.65834  0.16095  0.27523  1.0000
  C   C761      1.0  0.66676  0.13981  0.28663  1.0000
  C   C762      1.0  0.68312  0.12467  0.27516  1.0000
  H   H1301     1.0  0.69999  0.48143  0.32017  1.0000
  H   H1302     1.0  0.72191  0.17466  0.33376  1.0000
  H   H1303     1.0  0.64583  0.17257  0.28418  1.0000
  H   H1304     1.0  0.66079  0.13523  0.30439  1.0000
  H   H1305     1.0  0.80219  0.13466  0.40512  1.0000
  C   C763      1.0  0.72745  0.27228  0.45866  1.0000
  C   C764      1.0  0.86877  0.21817  0.34833  1.0000
  C   C765      1.0  0.85413  0.22867  0.36529  1.0000
  C   C766      1.0  0.83814  0.21670  0.38005  1.0000
  C   C767      1.0  0.83746  0.19394  0.37843  1.0000
  C   C768      1.0  0.85235  0.18337  0.36163  1.0000
  C   C769      1.0  0.86771  0.19560  0.34631  1.0000
  H   H1306     1.0  0.85497  0.24613  0.36691  1.0000
  H   H1307     1.0  0.82675  0.22489  0.39306  1.0000
  H   H1308     1.0  0.85194  0.16577  0.36035  1.0000
  H   H1309     1.0  0.87900  0.18741  0.33324  1.0000
  H   H1310     1.0  0.97786  0.24618  0.26497  1.0000
  H   H1311     1.0  0.77184  0.13243  0.41062  1.0000
  N   N54       1.0  0.95951  0.20948  0.33993  1.0000
  C   C770      1.0  0.81583  0.13299  0.28607  1.0000
  C   C771      1.0  0.73194  0.29007  0.49117  1.0000
  H   H1312     1.0  0.69713  0.30931  0.46697  1.0000
  H   H1313     1.0  0.87322  0.28018  0.31174  1.0000
  Fe  Fe116     1.0  0.94078  0.20817  0.26194  1.0000
  H   H1314     1.0  0.77831  0.16095  0.38165  1.0000
  S   S230      1.0  0.76046  0.41001  0.28937  1.0000
  S   S231      1.0  0.78755  0.12705  0.29417  1.0000
  C   C772      1.0  0.85460  0.12360  0.26760  1.0000
  H   H1315     1.0  0.58612  0.16948  0.32411  1.0000
  N   N55       1.0  0.66214  0.32570  0.31734  1.0000
  C   C773      1.0  0.64407  0.31965  0.30528  1.0000
  C   C774      1.0  0.68449  0.32354  0.30168  1.0000
  C   C775      1.0  0.65508  0.34999  0.32184  1.0000
  C   C776      1.0  0.66315  0.30976  0.33919  1.0000
  C   C777      1.0  0.61922  0.32263  0.31750  1.0000
  C   C778      1.0  0.69336  0.29967  0.29506  1.0000
  C   C779      1.0  0.67420  0.36319  0.32499  1.0000
  C   C780      1.0  0.68269  0.31048  0.35290  1.0000
  H   H1316     1.0  0.64404  0.32985  0.28818  1.0000
  H   H1317     1.0  0.64767  0.30164  0.30234  1.0000
  H   H1318     1.0  0.69860  0.32866  0.30873  1.0000
  H   H1319     1.0  0.68301  0.33563  0.28589  1.0000
  H   H1320     1.0  0.64678  0.36038  0.30755  1.0000
  H   H1321     1.0  0.64192  0.35088  0.33708  1.0000
  H   H1322     1.0  0.64703  0.31291  0.35098  1.0000
  H   H1323     1.0  0.66351  0.29193  0.33655  1.0000
  H   H1324     1.0  0.61720  0.31082  0.33353  1.0000
  H   H1325     1.0  0.61302  0.34036  0.32060  1.0000
  H   H1326     1.0  0.60775  0.31825  0.30653  1.0000
  H   H1327     1.0  0.71012  0.30020  0.28417  1.0000
  H   H1328     1.0  0.69618  0.28686  0.31004  1.0000
  H   H1329     1.0  0.68202  0.29400  0.28488  1.0000
  H   H1330     1.0  0.68418  0.36843  0.30840  1.0000
  H   H1331     1.0  0.68596  0.35362  0.33664  1.0000
  H   H1332     1.0  0.66632  0.37905  0.33196  1.0000
  H   H1333     1.0  0.67796  0.32388  0.36411  1.0000
  H   H1334     1.0  0.69942  0.31250  0.34250  1.0000
  H   H1335     1.0  0.68600  0.29383  0.36363  1.0000
  H   H1336     1.0  0.72860  0.27394  0.43989  1.0000
  H   H1337     1.0  0.50569  0.22525  0.30219  1.0000
  H   H1338     1.0  0.57760  0.19178  0.30265  1.0000
  H   H1339     1.0  0.75561  0.29907  0.43447  1.0000
  H   H1340     1.0  0.74159  0.15300  0.32169  1.0000
  C   C781      1.0  0.57645  0.17379  0.30939  1.0000
  N   N56       1.0  0.72838  0.18020  0.29698  1.0000
  H   H1341     1.0  0.96521  0.16907  0.31527  1.0000
  H   H1342     1.0  0.71962  0.43893  0.25473  1.0000
  C   C782      1.0  0.70748  0.19791  0.29627  1.0000
  C   C783      1.0  0.70772  0.21709  0.27609  1.0000
  C   C784      1.0  0.84454  0.15780  0.28527  1.0000
  H   H1343     1.0  0.86401  0.26414  0.27775  1.0000
  H   H1344     1.0  0.81208  0.24527  0.34460  1.0000
  C   C785      1.0  0.83214  0.11845  0.27404  1.0000
  H   H1345     1.0  0.82753  0.25317  0.27369  1.0000
  H   H1346     1.0  0.80677  0.30295  0.25836  1.0000
  H   H1347     1.0  0.70123  0.26250  0.48749  1.0000
  H   H1348     1.0  0.76632  0.21310  0.31115  1.0000
  H   H1349     1.0  0.79181  0.16981  0.35342  1.0000
  C   C786      1.0  0.77985  0.47221  0.28545  1.0000
  C   C787      1.0  0.85513  0.28086  0.28227  1.0000
  C   C788      1.0  0.80922  0.25529  0.32796  1.0000
  H   H1350     1.0  0.73239  0.34296  0.45460  1.0000
  H   H1351     1.0  0.84246  0.26502  0.32680  1.0000
  H   H1352     1.0  0.79271  0.11170  0.42381  1.0000
  Fe  Fe117     1.0  0.77134  0.04991  0.27500  1.0000
  H   H1353     1.0  0.79722  0.27076  0.33133  1.0000
  H   H1354     1.0  0.80094  0.24465  0.31918  1.0000
  H   H1355     1.0  0.86514  0.30838  0.29685  1.0000
  C   C789      1.0  0.72545  0.16479  0.31928  1.0000
  H   H1356     1.0  0.96503  0.20942  0.30355  1.0000
  C   C790      1.0  0.78786  0.46190  0.24767  1.0000
  H   H1357     1.0  0.83146  0.28660  0.24405  1.0000
  H   H1358     1.0  0.82277  0.31503  0.28573  1.0000
  H   H1359     1.0  0.77750  0.22700  0.48104  1.0000
  Fe  Fe118     1.0  0.89510  0.23290  0.24816  1.0000
  H   H1360     1.0  0.74961  0.01155  0.25862  1.0000
  H   H1361     1.0  0.54639  0.18282  0.28133  1.0000
  C   C791      1.0  0.96394  0.25165  0.32535  1.0000
  H   H1362     1.0  0.88838  0.28947  0.28502  1.0000
  C   C792      1.0  0.86081  0.14338  0.27296  1.0000
  H   H1363     1.0  0.98851  0.16737  0.33166  1.0000
  H   H1364     1.0  0.74621  0.19882  0.33103  1.0000
  C   C793      1.0  0.92569  0.19889  0.37041  1.0000
  C   C794      1.0  0.70393  0.26473  0.46876  1.0000
  H   H1365     1.0  0.80375  0.27842  0.24676  1.0000
  C   C795      1.0  0.81857  0.30126  0.29972  1.0000
  S   S232      1.0  0.91935  0.24098  0.26966  1.0000
  S   S233      1.0  0.88887  0.14962  0.26352  1.0000
  C   C796      1.0  0.97394  0.20248  0.31857  1.0000
  C   C797      1.0  0.98547  0.18620  0.36870  1.0000
  C   C798      1.0  0.55291  0.16789  0.27225  1.0000
  H   H1366     1.0  0.55831  0.17175  0.31592  1.0000
  C   C799      1.0  0.81864  0.26997  0.27809  1.0000
  C   C800      1.0  0.77637  0.28093  0.45946  1.0000
  H   H1367     1.0  0.54616  0.15301  0.28318  1.0000
  C   C801      1.0  0.87104  0.29026  0.29508  1.0000
  H   H1368     1.0  0.69169  0.45487  0.25820  1.0000
  H   H1369     1.0  0.58045  0.12848  0.26562  1.0000
  H   H1370     1.0  0.82249  0.32740  0.31933  1.0000
  N   N57       1.0  0.79812  0.11904  0.36490  1.0000
  C   C802      1.0  0.80205  0.10071  0.34977  1.0000
  C   C803      1.0  0.82012  0.12919  0.36190  1.0000
  C   C804      1.0  0.77900  0.13686  0.35720  1.0000
  C   C805      1.0  0.79151  0.10812  0.38880  1.0000
  C   C806      1.0  0.78068  0.09025  0.34736  1.0000
  C   C807      1.0  0.84122  0.11292  0.36910  1.0000
  C   C808      1.0  0.77784  0.16086  0.36352  1.0000
  C   C809      1.0  0.78936  0.12284  0.40785  1.0000
  H   H1371     1.0  0.80978  0.10720  0.33240  1.0000
  H   H1372     1.0  0.81464  0.08621  0.35585  1.0000
  H   H1373     1.0  0.81838  0.14375  0.37135  1.0000
  H   H1374     1.0  0.82460  0.13650  0.34387  1.0000
  H   H1375     1.0  0.78028  0.13941  0.33843  1.0000
  H   H1376     1.0  0.76195  0.13123  0.36360  1.0000
  H   H1377     1.0  0.77453  0.10216  0.39052  1.0000
  H   H1378     1.0  0.80325  0.09223  0.39321  1.0000
  H   H1379     1.0  0.78601  0.07722  0.33577  1.0000
  H   H1380     1.0  0.77296  0.08152  0.36365  1.0000
  H   H1381     1.0  0.76750  0.10295  0.33965  1.0000
  H   H1382     1.0  0.83823  0.10524  0.38705  1.0000
  H   H1383     1.0  0.84682  0.09952  0.35800  1.0000
  H   H1384     1.0  0.85581  0.12274  0.36743  1.0000
  H   H1385     1.0  0.76139  0.17103  0.35958  1.0000
  H   H1386     1.0  0.73067  0.47454  0.31690  1.0000
  C   C810      1.0  0.58674  0.15777  0.29172  1.0000
  H   H1387     1.0  0.70932  0.13723  0.31055  1.0000
  S   S234      1.0  0.75091  0.11316  0.25609  1.0000
  H   H1388     1.0  0.74059  0.14887  0.28308  1.0000
  H   H1389     1.0  0.71341  0.16216  0.27592  1.0000
  H   H1390     1.0  0.97502  0.17236  0.37000  1.0000
  H   H1391     1.0  0.96484  0.21891  0.37177  1.0000
  H   H1392     1.0  0.80958  0.16375  0.30141  1.0000
  N   N58       1.0  0.83118  0.27861  0.29411  1.0000
  C   C811      1.0  0.99470  0.23698  0.26703  1.0000
  H   H1393     1.0  0.84927  0.17292  0.28972  1.0000
  H   H1394     1.0  0.75504  0.20008  0.27922  1.0000
  H   H1395     1.0  0.67858  0.47783  0.29510  1.0000
  C   C812      1.0  0.73058  0.16574  0.27830  1.0000
  H   H1396     1.0  0.72481  0.22223  0.26985  1.0000
  C   C813      1.0  0.82209  0.15255  0.29189  1.0000
  H   H1397     1.0  0.93663  0.23414  0.32090  1.0000
  C   C814      1.0  0.78762  0.47774  0.26247  1.0000
  S   S235      1.0  0.87411  0.21353  0.27645  1.0000
  C   C815      1.0  0.70611  0.14979  0.32265  1.0000
  H   H1398     1.0  0.70542  0.13990  0.33984  1.0000
  C   C816      1.0  0.94075  0.19473  0.34780  1.0000
  H   H1399     1.0  0.75977  0.31506  0.45484  1.0000
  S   S236      1.0  0.78494  0.01300  0.28614  1.0000
  H   H1400     1.0  0.68899  0.15992  0.32167  1.0000
  C   C817      1.0  0.71636  0.33661  0.46319  1.0000
  C   C818      1.0  0.75008  0.19045  0.29601  1.0000
  H   H1401     1.0  0.92905  0.19685  0.33478  1.0000
  H   H1402     1.0  0.70361  0.20594  0.31198  1.0000
  H   H1403     1.0  0.83827  0.30093  0.32873  1.0000
  H   H1404     1.0  0.82751  0.10322  0.26969  1.0000
  H   H1405     1.0  0.80106  0.26713  0.28617  1.0000
  H   H1406     1.0  0.71578  0.45705  0.28830  1.0000
  H   H1407     1.0  0.77973  0.42901  0.24408  1.0000
  H   H1408     1.0  0.80740  0.30594  0.33537  1.0000
  N   N59       1.0  0.57881  0.16403  0.26868  1.0000
  H   H1409     1.0  0.70212  0.34867  0.45642  1.0000
  H   H1410     1.0  0.70324  0.24787  0.46391  1.0000
  H   H1411     1.0  0.77600  0.26422  0.45435  1.0000
  C   C819      1.0  0.71442  0.31267  0.45843  1.0000
  C   C820      1.0  0.69082  0.13061  0.25225  1.0000
  H   H1412     1.0  0.95340  0.26796  0.31986  1.0000
  H   H1413     1.0  0.76483  0.17675  0.29834  1.0000
  H   H1414     1.0  0.93590  0.19623  0.38463  1.0000
  H   H1415     1.0  0.62135  0.13137  0.26721  1.0000
  S   S237      1.0  0.74441  0.06094  0.25187  1.0000
  H   H1416     1.0  0.91531  0.21590  0.36947  1.0000
  H   H1417     1.0  0.77776  0.27882  0.47772  1.0000
  C   C821      1.0  0.54072  0.17258  0.25102  1.0000
  C   C822      1.0  0.71021  0.45645  0.25425  1.0000
  H   H1418     1.0  0.73720  0.46753  0.26757  1.0000
  C   C823      1.0  0.50881  0.22813  0.28391  1.0000
  C   C824      1.0  0.53416  0.23687  0.24933  1.0000
  C   C825      1.0  0.99983  0.21433  0.26322  1.0000
  S   S238      1.0  0.78079  0.35681  0.25418  1.0000
  C   C826      1.0  0.77985  0.44091  0.25567  1.0000
  S   S239      1.0  0.97965  0.20011  0.25460  1.0000
  H   H1419     1.0  0.86719  0.11232  0.25821  1.0000
  C   C827      1.0  0.71837  0.46816  0.27177  1.0000
  H   H1420     1.0  0.70043  0.21234  0.26197  1.0000
  C   C828      1.0  0.98033  0.17684  0.31720  1.0000
  C   C829      1.0  0.71627  0.48853  0.31480  1.0000
  H   H1421     1.0  0.98754  0.18726  0.38642  1.0000
  C   C830      1.0  0.97432  0.20947  0.35794  1.0000
  C   C831      1.0  0.94792  0.23346  0.33409  1.0000
  H   H1422     1.0  0.93651  0.23960  0.34889  1.0000
  H   H1423     1.0  0.71415  0.33756  0.48156  1.0000
  H   H1424     1.0  0.99283  0.17450  0.30176  1.0000
  H   H1425     1.0  0.97322  0.25480  0.33880  1.0000
  H   H1426     1.0  0.67317  0.48902  0.26749  1.0000
  Fe  Fe119     1.0  0.62247  0.27051  0.24879  1.0000
  S   S240      1.0  0.67726  0.37670  0.24903  1.0000
  H   H1427     1.0  0.97633  0.24734  0.31052  1.0000
  H   H1428     1.0  0.73543  0.19220  0.24837  1.0000
  C   C832      1.0  0.66336  0.35486  0.24367  1.0000
  C   C833      1.0  0.61372  0.13799  0.25147  1.0000
  H   H1429     1.0  0.99038  0.20978  0.31532  1.0000
  H   H1430     1.0  0.98885  0.21920  0.35098  1.0000
  H   H1431     1.0  0.69192  0.32821  0.24689  1.0000
  Fe  Fe120     1.0  0.71530  0.36924  0.25019  1.0000
  C   C834      1.0  0.68190  0.49212  0.28144  1.0000
  N   N60       1.0  0.70723  0.49212  0.27375  1.0000
  H   H1432     1.0  0.75096  0.31993  0.48963  1.0000
  H   H1433     1.0  0.50416  0.28402  0.25981  1.0000
  H   H1434     1.0  0.70313  0.11883  0.24322  1.0000
  C   C835      1.0  0.67447  0.33255  0.24334  1.0000
  C   C836      1.0  0.76396  0.46165  0.66931  1.0000
  H   H1435     1.0  0.74591  0.46925  0.66766  1.0000
  H   H1436     1.0  0.71616  0.21926  0.52782  1.0000
  Fe  Fe121     1.0  0.77030  0.25646  0.63894  1.0000
  S   S241      1.0  0.74817  0.27622  0.61375  1.0000
  S   S242      1.0  0.78944  0.26740  0.66385  1.0000
  Fe  Fe122     1.0  0.75883  0.21087  0.63126  1.0000
  S   S243      1.0  0.73470  0.22666  0.60625  1.0000
  S   S244      1.0  0.77201  0.17377  0.63958  1.0000
  Fe  Fe123     1.0  0.76180  0.24879  0.59166  1.0000
  S   S245      1.0  0.77486  0.25403  0.55394  1.0000
  Fe  Fe124     1.0  0.72292  0.25255  0.63013  1.0000
  S   S246      1.0  0.68704  0.26902  0.64005  1.0000
  S   S247      1.0  0.78673  0.23144  0.61538  1.0000
  S   S248      1.0  0.74419  0.23438  0.65657  1.0000
  C   C837      1.0  0.56355  0.22651  0.72272  1.0000
  H   H1437     1.0  0.54354  0.26709  0.73948  1.0000
  C   C838      1.0  0.72421  0.30939  0.70663  1.0000
  S   S249      1.0  0.77297  0.36710  0.69083  1.0000
  C   C839      1.0  0.56970  0.20038  0.72573  1.0000
  C   C840      1.0  0.79306  0.44955  0.69484  1.0000
  H   H1438     1.0  0.76646  0.19594  0.72622  1.0000
  C   C841      1.0  0.72748  0.25694  0.71350  1.0000
  C   C842      1.0  0.96535  0.27041  0.71342  1.0000
  H   H1439     1.0  0.75634  0.43671  0.72488  1.0000
  H   H1440     1.0  0.73143  0.30004  0.72188  1.0000
  H   H1441     1.0  0.72756  0.34555  0.70234  1.0000
  H   H1442     1.0  0.98862  0.23942  0.72485  1.0000
  H   H1443     1.0  0.74087  0.48402  0.70298  1.0000
  H   H1444     1.0  0.99761  0.29683  0.71178  1.0000
  H   H1445     1.0  0.50427  0.22864  0.68664  1.0000
  H   H1446     1.0  0.82932  0.18240  0.72366  1.0000
  C   C843      1.0  0.78412  0.29521  0.67103  1.0000
  C   C844      1.0  0.78968  0.29879  0.69174  1.0000
  C   C845      1.0  0.78602  0.32070  0.69801  1.0000
  C   C846      1.0  0.77719  0.33933  0.68342  1.0000
  C   C847      1.0  0.77181  0.33578  0.66259  1.0000
  C   C848      1.0  0.77500  0.31374  0.65650  1.0000
  H   H1447     1.0  0.79699  0.28460  0.70294  1.0000
  H   H1448     1.0  0.79080  0.32324  0.71379  1.0000
  H   H1449     1.0  0.76508  0.35010  0.65115  1.0000
  H   H1450     1.0  0.77088  0.31117  0.64039  1.0000
  C   C849      1.0  0.67108  0.25264  0.66160  1.0000
  C   C850      1.0  0.67849  0.22955  0.66771  1.0000
  C   C851      1.0  0.66531  0.21675  0.68491  1.0000
  C   C852      1.0  0.64514  0.22720  0.69649  1.0000
  C   C853      1.0  0.63798  0.25036  0.69067  1.0000
  C   C854      1.0  0.65072  0.26296  0.67294  1.0000
  H   H1451     1.0  0.69411  0.22146  0.65889  1.0000
  H   H1452     1.0  0.67083  0.19880  0.68934  1.0000
  H   H1453     1.0  0.62241  0.25848  0.69953  1.0000
  H   H1454     1.0  0.64493  0.28079  0.66818  1.0000
  C   C855      1.0  0.76322  0.24180  0.53436  1.0000
  C   C856      1.0  0.74157  0.23465  0.53953  1.0000
  H   H1455     1.0  0.81896  0.24365  0.72063  1.0000
  C   C857      1.0  0.73288  0.22484  0.52363  1.0000
  C   C858      1.0  0.77599  0.23921  0.51308  1.0000
  H   H1456     1.0  0.73146  0.23676  0.55575  1.0000
  H   H1457     1.0  0.79145  0.44028  0.73180  1.0000
  H   H1458     1.0  0.79279  0.24461  0.50899  1.0000
  C   C859      1.0  0.73935  0.13601  0.70534  1.0000
  C   C860      1.0  0.72730  0.15587  0.69497  1.0000
  C   C861      1.0  0.73743  0.16794  0.67506  1.0000
  C   C862      1.0  0.75928  0.15965  0.66501  1.0000
  C   C863      1.0  0.77126  0.13973  0.67529  1.0000
  C   C864      1.0  0.76152  0.12819  0.69570  1.0000
  H   H1459     1.0  0.71009  0.16191  0.70226  1.0000
  H   H1460     1.0  0.72804  0.18323  0.66714  1.0000
  H   H1461     1.0  0.78818  0.13326  0.66757  1.0000
  H   H1462     1.0  0.77081  0.11279  0.70355  1.0000
  H   H1463     1.0  0.65892  0.29003  0.70410  1.0000
  C   C865      1.0  0.95153  0.30656  0.72756  1.0000
  H   H1464     1.0  0.67610  0.26333  0.71312  1.0000
  H   H1465     1.0  0.55449  0.19153  0.73155  1.0000
  C   C866      1.0  0.54624  0.26216  0.70351  1.0000
  H   H1466     1.0  0.73976  0.27249  0.49693  1.0000
  H   H1467     1.0  0.51624  0.27008  0.72916  1.0000
  H   H1468     1.0  0.58115  0.19527  0.73901  1.0000
  H   H1469     1.0  0.95410  0.31144  0.69016  1.0000
  H   H1470     1.0  0.76642  0.44619  0.63871  1.0000
  H   H1471     1.0  0.73931  0.30989  0.69332  1.0000
  H   H1472     1.0  0.83387  0.21588  0.66936  1.0000
  C   C867      1.0  0.66934  0.28067  0.71713  1.0000
  H   H1473     1.0  0.55785  0.23316  0.64704  1.0000
  H   H1474     1.0  0.57718  0.22726  0.68119  1.0000
  H   H1475     1.0  0.94732  0.27281  0.70966  1.0000
  H   H1476     1.0  0.84061  0.22179  0.71125  1.0000
  N   N61       1.0  0.54762  0.23668  0.70554  1.0000
  H   H1477     1.0  0.82091  0.12876  0.57358  1.0000
  H   H1478     1.0  0.53439  0.29166  0.72100  1.0000
  H   H1479     1.0  0.77393  0.13954  0.53200  1.0000
  S   S250      1.0  0.62867  0.21111  0.71782  1.0000
  H   H1480     1.0  0.80521  0.21854  0.66364  1.0000
  H   H1481     1.0  0.55453  0.21077  0.68330  1.0000
  C   C868      1.0  0.95578  0.32079  0.70405  1.0000
  H   H1482     1.0  0.68323  0.32452  0.68500  1.0000
  H   H1483     1.0  0.72519  0.44243  0.68755  1.0000
  H   H1484     1.0  0.72567  0.30484  0.65372  1.0000
  H   H1485     1.0  0.72147  0.33222  0.66378  1.0000
  H   H1486     1.0  0.76504  0.16848  0.71942  1.0000
  H   H1487     1.0  0.71536  0.33452  0.73017  1.0000
  C   C869      1.0  0.80503  0.21759  0.70800  1.0000
  C   C870      1.0  0.81916  0.20627  0.67083  1.0000
  H   H1488     1.0  0.84739  0.14646  0.71031  1.0000
  C   C871      1.0  0.75480  0.43851  0.70663  1.0000
  C   C872      1.0  0.78991  0.18678  0.69614  1.0000
  H   H1489     1.0  0.73165  0.31410  0.51484  1.0000
  C   C873      1.0  0.83035  0.18129  0.70541  1.0000
  H   H1490     1.0  0.77449  0.47466  0.65974  1.0000
  H   H1491     1.0  0.69573  0.28590  0.73575  1.0000
  C   C874      1.0  0.82723  0.18838  0.65469  1.0000
  C   C875      1.0  0.83149  0.15572  0.70397  1.0000
  H   H1492     1.0  0.75991  0.47559  0.72277  1.0000
  H   H1493     1.0  0.79009  0.22910  0.70173  1.0000
  H   H1494     1.0  0.79358  0.17111  0.68809  1.0000
  H   H1495     1.0  0.53686  0.27104  0.68952  1.0000
  H   H1496     1.0  0.68568  0.29902  0.67376  1.0000
  H   H1497     1.0  0.97284  0.23675  0.70293  1.0000
  H   H1498     1.0  0.84742  0.18628  0.69787  1.0000
  C   C876      1.0  0.75938  0.47851  0.70423  1.0000
  H   H1499     1.0  0.80389  0.45963  0.68152  1.0000
  H   H1500     1.0  0.56377  0.26724  0.69912  1.0000
  C   C877      1.0  0.55809  0.22836  0.68338  1.0000
  C   C878      1.0  0.77700  0.18067  0.72003  1.0000
  C   C879      1.0  0.97188  0.24448  0.71860  1.0000
  H   H1501     1.0  0.74039  0.26327  0.72129  1.0000
  H   H1502     1.0  0.81453  0.17676  0.65511  1.0000
  H   H1503     1.0  0.84400  0.17858  0.65813  1.0000
  H   H1504     1.0  0.82985  0.19723  0.63708  1.0000
  H   H1505     1.0  0.81707  0.14829  0.71501  1.0000
  H   H1506     1.0  0.65741  0.27880  0.73313  1.0000
  H   H1507     1.0  0.83195  0.15202  0.68658  1.0000
  H   H1508     1.0  0.79958  0.21199  0.72624  1.0000
  H   H1509     1.0  0.70300  0.32619  0.64564  1.0000
  N   N62       1.0  0.77358  0.16875  0.56375  1.0000
  C   C880      1.0  0.74807  0.16849  0.57041  1.0000
  C   C881      1.0  0.77794  0.17382  0.53831  1.0000
  C   C882      1.0  0.77985  0.18787  0.57385  1.0000
  C   C883      1.0  0.78608  0.14617  0.57295  1.0000
  C   C884      1.0  0.73960  0.16430  0.59603  1.0000
  C   C885      1.0  0.76936  0.15762  0.52520  1.0000
  C   C886      1.0  0.80474  0.19295  0.56772  1.0000
  C   C887      1.0  0.81045  0.13894  0.56088  1.0000
  H   H1510     1.0  0.73827  0.18475  0.56334  1.0000
  H   H1511     1.0  0.74221  0.15486  0.56326  1.0000
  H   H1512     1.0  0.79632  0.17410  0.53182  1.0000
  H   H1513     1.0  0.76973  0.19121  0.53265  1.0000
  H   H1514     1.0  0.76856  0.20396  0.56912  1.0000
  H   H1515     1.0  0.77693  0.18463  0.59256  1.0000
  H   H1516     1.0  0.78734  0.14567  0.59124  1.0000
  H   H1517     1.0  0.77603  0.13232  0.57206  1.0000
  H   H1518     1.0  0.72109  0.16244  0.59858  1.0000
  H   H1519     1.0  0.74864  0.14853  0.60461  1.0000
  H   H1520     1.0  0.74099  0.17879  0.60461  1.0000
  H   H1521     1.0  0.95243  0.31793  0.74007  1.0000
  H   H1522     1.0  0.97590  0.27605  0.69719  1.0000
  H   H1523     1.0  0.77742  0.19825  0.68612  1.0000
  H   H1524     1.0  0.80617  0.20846  0.57487  1.0000
  H   H1525     1.0  0.80997  0.19685  0.54928  1.0000
  H   H1526     1.0  0.81683  0.17916  0.57559  1.0000
  H   H1527     1.0  0.78809  0.43352  0.65586  1.0000
  H   H1528     1.0  0.82000  0.15296  0.55261  1.0000
  H   H1529     1.0  0.80984  0.12735  0.54849  1.0000
  C   C888      1.0  0.68828  0.29406  0.72023  1.0000
  H   H1530     1.0  0.75895  0.42735  0.66376  1.0000
  C   C889      1.0  0.72887  0.44159  0.70506  1.0000
  H   H1531     1.0  0.71948  0.45655  0.71270  1.0000
  N   N63       1.0  0.81136  0.19742  0.69516  1.0000
  S   S251      1.0  0.72595  0.12068  0.72966  1.0000
  N   N64       1.0  0.70672  0.29694  0.70031  1.0000
  H   H1532     1.0  0.53212  0.24632  0.66174  1.0000
  H   H1533     1.0  0.75052  0.16160  0.52513  1.0000
  C   C890      1.0  0.71859  0.27428  0.69405  1.0000
  H   H1534     1.0  0.73373  0.27660  0.68096  1.0000
  H   H1535     1.0  0.70722  0.26589  0.68605  1.0000
  H   H1536     1.0  0.58013  0.23352  0.71821  1.0000
  C   C891      1.0  0.55089  0.24269  0.66150  1.0000
  H   H1537     1.0  0.78876  0.17268  0.73236  1.0000
  C   C892      1.0  0.69594  0.30985  0.68024  1.0000
  C   C893      1.0  0.71276  0.31867  0.65986  1.0000
  H   H1538     1.0  0.69833  0.34086  0.70762  1.0000
  H   H1539     1.0  0.67938  0.31086  0.72441  1.0000
  H   H1540     1.0  0.99212  0.30410  0.73912  1.0000
  C   C894      1.0  0.71563  0.33387  0.71189  1.0000
  H   H1541     1.0  0.55635  0.23103  0.73976  1.0000
  C   C895      1.0  0.74395  0.30609  0.50160  1.0000
  N   N65       1.0  0.76782  0.45711  0.69372  1.0000
  C   C896      1.0  0.82422  0.23219  0.70749  1.0000
  H   H1542     1.0  0.71389  0.29116  0.49967  1.0000
  H   H1543     1.0  0.82699  0.24330  0.69107  1.0000
  H   H1544     1.0  0.79803  0.43173  0.69117  1.0000
  C   C897      1.0  0.99145  0.28997  0.72951  1.0000
  H   H1545     1.0  0.71336  0.25172  0.72660  1.0000
  C   C898      1.0  0.80121  0.45025  0.71764  1.0000
  C   C899      1.0  0.76975  0.44083  0.65646  1.0000
  H   H1546     1.0  0.76232  0.42166  0.70142  1.0000
  H   H1547     1.0  0.52591  0.21006  0.71450  1.0000
  H   H1548     1.0  0.55841  0.25882  0.65789  1.0000
  H   H1549     1.0  0.51878  0.23149  0.73167  1.0000
  C   C900      1.0  0.52464  0.22875  0.71384  1.0000
  H   H1550     1.0  0.68270  0.15668  0.73824  1.0000
  H   H1551     1.0  0.94254  0.33603  0.70324  1.0000
  H   H1552     1.0  0.95839  0.23694  0.73100  1.0000
  N   N66       1.0  0.96735  0.28448  0.73142  1.0000
  C   C901      1.0  0.53441  0.27299  0.72462  1.0000
  H   H1553     1.0  0.72162  0.42660  0.71501  1.0000
  H   H1554     1.0  0.73618  0.24132  0.70653  1.0000
  Fe  Fe125     1.0  0.76576  0.36946  0.72829  1.0000
  H   H1555     1.0  0.86681  0.33072  0.74207  1.0000
  H   H1556     1.0  0.68683  0.19551  0.73171  1.0000
  H   H1557     1.0  0.67514  0.12281  0.74066  1.0000
  H   H1558     1.0  0.93335  0.30336  0.72999  1.0000
  H   H1559     1.0  0.57939  0.19420  0.71016  1.0000
  H   H1560     1.0  0.64662  0.15700  0.74012  1.0000
  H   H1561     1.0  0.97266  0.32703  0.70107  1.0000
  H   H1562     1.0  0.80015  0.46788  0.72132  1.0000
  H   H1563     1.0  0.77724  0.16022  0.50721  1.0000
  H   H1564     1.0  0.50511  0.25689  0.69301  1.0000
  C   C902      1.0  0.50478  0.23889  0.70022  1.0000
  H   H1565     1.0  0.81949  0.44261  0.71700  1.0000
  H   H1566     1.0  0.75812  0.29611  0.51042  1.0000
  C   C903      1.0  0.74569  0.22214  0.50240  1.0000
  C   C904      1.0  0.76731  0.22937  0.49716  1.0000
  S   S252      1.0  0.72867  0.37807  0.74191  1.0000
  H   H1567     1.0  0.78949  0.49495  0.68636  1.0000
  H   H1568     1.0  0.65145  0.19838  0.89695  1.0000
  H   H1569     1.0  0.63866  0.13685  0.96820  1.0000
  C   C905      1.0  0.84091  0.18538  0.76633  1.0000
  Fe  Fe126     1.0  0.89225  0.22390  0.82081  1.0000
  S   S253      1.0  0.86752  0.24602  0.79970  1.0000
  S   S254      1.0  0.88282  0.21342  0.85808  1.0000
  C   C906      1.0  0.64141  0.14816  0.95187  1.0000
  C   C907      1.0  0.85913  0.16767  0.76653  1.0000
  Fe  Fe127     1.0  0.92862  0.21615  0.78083  1.0000
  H   H1570     1.0  0.81409  0.25730  0.81700  1.0000
  S   S255      1.0  0.90028  0.19637  0.79860  1.0000
  S   S256      1.0  0.92210  0.24202  0.80476  1.0000
  Fe  Fe128     1.0  0.76029  0.23836  0.90854  1.0000
  S   S257      1.0  0.76691  0.20943  0.93611  1.0000
  S   S258      1.0  0.78449  0.26267  0.89115  1.0000
  Fe  Fe129     1.0  0.71091  0.23130  0.90940  1.0000
  S   S259      1.0  0.71293  0.20187  0.93729  1.0000
  S   S260      1.0  0.67856  0.24786  0.89535  1.0000
  Fe  Fe130     1.0  0.73235  0.22267  0.95342  1.0000
  Fe  Fe131     1.0  0.74722  0.19119  0.91766  1.0000
  S   S261      1.0  0.76047  0.15513  0.91208  1.0000
  S   S262      1.0  0.72726  0.25307  0.92708  1.0000
  S   S263      1.0  0.74370  0.21909  0.88844  1.0000
  Fe  Fe132     1.0  0.79214  0.10294  0.77576  1.0000
  S   S264      1.0  0.76009  0.12794  0.77489  1.0000
  S   S265      1.0  0.82808  0.11202  0.77056  1.0000
  Fe  Fe133     1.0  0.76637  0.06185  0.78696  1.0000
  S   S266      1.0  0.73202  0.08354  0.78712  1.0000
  Fe  Fe134     1.0  0.74619  0.10610  0.80590  1.0000
  S   S267      1.0  0.72244  0.12432  0.83208  1.0000
  S   S268      1.0  0.77923  0.08299  0.80864  1.0000
  Fe  Fe135     1.0  0.62159  0.22615  0.79731  1.0000
  S   S269      1.0  0.59710  0.25795  0.80228  1.0000
  S   S270      1.0  0.64315  0.20380  0.82178  1.0000
  H   H1571     1.0  0.78307  0.22480  0.82073  1.0000
  H   H1572     1.0  0.70030  0.15388  0.79355  1.0000
  Fe  Fe136     1.0  0.61534  0.27223  0.76895  1.0000
  C   C908      1.0  0.65842  0.33232  0.76367  1.0000
  Fe  Fe137     1.0  0.57544  0.24465  0.78131  1.0000
  S   S271      1.0  0.53668  0.24953  0.78860  1.0000
  S   S272      1.0  0.64142  0.24134  0.76544  1.0000
  S   S273      1.0  0.59832  0.21145  0.77944  1.0000
  S   S274      1.0  0.74472  0.37417  0.79161  1.0000
  S   S275      1.0  0.77826  0.39429  0.74616  1.0000
  S   S276      1.0  0.72072  0.31856  0.78522  1.0000
  Fe  Fe138     1.0  0.61624  0.22951  0.74790  1.0000
  H   H1573     1.0  0.80353  0.48459  0.86947  1.0000
  H   H1574     1.0  0.95637  0.27372  0.79067  1.0000
  C   C909      1.0  0.98546  0.22396  0.79348  1.0000
  C   C910      1.0  0.67308  0.16696  0.90874  1.0000
  H   H1575     1.0  0.66792  0.11481  0.89547  1.0000
  H   H1576     1.0  0.83588  0.25525  0.92225  1.0000
  H   H1577     1.0  0.69846  0.12212  0.77432  1.0000
  C   C911      1.0  0.52855  0.20995  0.77516  1.0000
  C   C912      1.0  0.65075  0.31102  0.76837  1.0000
  H   H1578     1.0  0.98545  0.16784  0.83022  1.0000
  H   H1579     1.0  0.82373  0.29191  0.95408  1.0000
  C   C913      1.0  0.69414  0.31595  0.77778  1.0000
  C   C914      1.0  0.68657  0.29465  0.78223  1.0000
  C   C915      1.0  0.66481  0.29224  0.77782  1.0000
  H   H1580     1.0  0.78251  0.28270  0.93609  1.0000
  S   S277      1.0  0.62401  0.30798  0.76155  1.0000
  C   C916      1.0  0.51960  0.23176  0.78029  1.0000
  H   H1581     1.0  0.64754  0.34689  0.75637  1.0000
  H   H1582     1.0  0.84673  0.28152  0.91993  1.0000
  H   H1583     1.0  0.81892  0.28302  0.74808  1.0000
  H   H1584     1.0  0.83927  0.26485  0.96029  1.0000
  S   S278      1.0  0.84596  0.21368  0.76252  1.0000
  C   C917      1.0  0.77352  0.47265  0.77034  1.0000
  H   H1585     1.0  0.75875  0.28592  0.81559  1.0000
  C   C918      1.0  0.67005  0.23666  0.87338  1.0000
  C   C919      1.0  0.68347  0.21846  0.86378  1.0000
  C   C920      1.0  0.67537  0.20896  0.84735  1.0000
  C   C921      1.0  0.65408  0.21779  0.84022  1.0000
  C   C922      1.0  0.64113  0.23657  0.84915  1.0000
  C   C923      1.0  0.64903  0.24586  0.86584  1.0000
  H   H1586     1.0  0.69977  0.21140  0.86938  1.0000
  H   H1587     1.0  0.68549  0.19465  0.84017  1.0000
  H   H1588     1.0  0.62462  0.24339  0.84384  1.0000
  H   H1589     1.0  0.63856  0.25990  0.87326  1.0000
  C   C924      1.0  0.75069  0.14703  0.88912  1.0000
  C   C925      1.0  0.76013  0.12630  0.88153  1.0000
  C   C926      1.0  0.75258  0.11974  0.86301  1.0000
  C   C927      1.0  0.73493  0.13355  0.85268  1.0000
  C   C928      1.0  0.72548  0.15422  0.86035  1.0000
  C   C929      1.0  0.73355  0.16112  0.87832  1.0000
  H   H1590     1.0  0.77318  0.11522  0.89010  1.0000
  H   H1591     1.0  0.75967  0.10357  0.85739  1.0000
  H   H1592     1.0  0.71175  0.16478  0.85247  1.0000
  H   H1593     1.0  0.72606  0.17701  0.88423  1.0000
  H   H1594     1.0  0.83201  0.26056  0.76766  1.0000
  S   S279      1.0  0.77202  0.02381  0.79872  1.0000
  H   H1595     1.0  0.80924  0.24242  0.79582  1.0000
  H   H1596     1.0  0.79143  0.46903  0.77266  1.0000
  C   C930      1.0  0.77899  0.27257  0.77551  1.0000
  H   H1597     1.0  0.69741  0.27996  0.78935  1.0000
  H   H1598     1.0  0.86911  0.13155  0.76759  1.0000
  C   C931      1.0  0.84348  0.32533  0.80600  1.0000
  H   H1599     1.0  0.68041  0.09702  0.75890  1.0000
  H   H1600     1.0  0.83712  0.32401  0.82388  1.0000
  H   H1601     1.0  0.87309  0.30017  0.81043  1.0000
  H   H1602     1.0  0.54621  0.20331  0.77697  1.0000
  H   H1603     1.0  0.64693  0.14509  0.86581  1.0000
  H   H1604     1.0  0.74565  0.29091  0.95876  1.0000
  C   C932      1.0  0.83246  0.14034  0.76949  1.0000
  C   C933      1.0  0.73828  0.45907  0.76647  1.0000
  C   C934      1.0  0.76138  0.45465  0.76961  1.0000
  C   C935      1.0  0.78316  0.24199  0.82509  1.0000
  S   S280      1.0  0.72300  0.22991  0.98963  1.0000
  Fe  Fe139     1.0  0.74837  0.10389  0.75600  1.0000
  C   C936      1.0  0.85605  0.22765  0.86808  1.0000
  C   C937      1.0  0.84879  0.24986  0.85861  1.0000
  C   C938      1.0  0.82700  0.26076  0.86621  1.0000
  C   C939      1.0  0.81205  0.24912  0.88253  1.0000
  C   C940      1.0  0.81935  0.22694  0.89206  1.0000
  C   C941      1.0  0.84159  0.21649  0.88533  1.0000
  H   H1605     1.0  0.86019  0.25883  0.84581  1.0000
  H   H1606     1.0  0.82178  0.27818  0.85930  1.0000
  H   H1607     1.0  0.80804  0.21793  0.90485  1.0000
  H   H1608     1.0  0.84747  0.19959  0.89318  1.0000
  S   S281      1.0  0.90639  0.23668  0.75595  1.0000
  C   C942      1.0  0.65792  0.13474  0.93489  1.0000
  H   H1609     1.0  0.64197  0.17509  0.78274  1.0000
  Fe  Fe140     1.0  0.74143  0.40118  0.76164  1.0000
  H   H1610     1.0  0.65891  0.27586  0.78181  1.0000
  C   C943      1.0  0.77517  0.29231  0.80887  1.0000
  H   H1611     1.0  0.71132  0.00239  0.80742  1.0000
  H   H1612     1.0  0.62310  0.17403  0.75358  1.0000
  H   H1613     1.0  0.74965  0.26055  0.76676  1.0000
  C   C944      1.0  0.67945  0.12628  0.77588  1.0000
  H   H1614     1.0  0.62426  0.15402  0.94658  1.0000
  H   H1615     1.0  0.87655  0.17131  0.76495  1.0000
  C   C945      1.0  0.72738  0.48166  0.76441  1.0000
  H   H1616     1.0  0.74360  0.27031  0.79340  1.0000
  Fe  Fe141     1.0  0.87730  0.21981  0.77622  1.0000
  H   H1617     1.0  0.67756  0.15709  0.83090  1.0000
  H   H1618     1.0  0.64910  0.16251  0.95560  1.0000
  H   H1619     1.0  0.78554  0.47432  0.84219  1.0000
  H   H1620     1.0  0.80420  0.19422  0.76850  1.0000
  H   H1621     1.0  0.79930  0.24456  0.93641  1.0000
  C   C946      1.0  0.51457  0.19674  0.76762  1.0000
  H   H1622     1.0  0.78869  0.23954  0.84214  1.0000
  C   C947      1.0  0.78275  0.28194  0.95457  1.0000
  C   C948      1.0  0.83129  0.27296  0.92606  1.0000
  C   C949      1.0  0.86025  0.32916  0.75990  1.0000
  H   H1623     1.0  0.65177  0.17277  0.87032  1.0000
  C   C950      1.0  0.86378  0.31186  0.79843  1.0000
  C   C951      1.0  0.80135  0.26133  0.98749  1.0000
  H   H1624     1.0  0.83714  0.22895  0.96011  1.0000
  H   H1625     1.0  0.65162  0.11813  0.93568  1.0000
  H   H1626     1.0  0.67507  0.13079  0.82258  1.0000
  C   C952      1.0  0.83116  0.34014  0.79047  1.0000
  N   N67       1.0  0.82286  0.15703  0.84978  1.0000
  C   C953      1.0  0.83591  0.15883  0.86870  1.0000
  C   C954      1.0  0.83673  0.16555  0.82786  1.0000
  C   C955      1.0  0.82042  0.13223  0.85061  1.0000
  C   C956      1.0  0.79974  0.17126  0.85351  1.0000
  C   C957      1.0  0.82510  0.14996  0.89281  1.0000
  C   C958      1.0  0.84091  0.19054  0.82493  1.0000
  C   C959      1.0  0.81968  0.12364  0.82805  1.0000
  C   C960      1.0  0.78420  0.17299  0.83513  1.0000
  H   H1627     1.0  0.85373  0.14973  0.86586  1.0000
  H   H1628     1.0  0.83774  0.17673  0.86926  1.0000
  H   H1629     1.0  0.82854  0.16394  0.81312  1.0000
  H   H1630     1.0  0.85384  0.15492  0.82567  1.0000
  H   H1631     1.0  0.83501  0.12094  0.85778  1.0000
  H   H1632     1.0  0.80486  0.12789  0.86220  1.0000
  H   H1633     1.0  0.78973  0.16451  0.86951  1.0000
  H   H1634     1.0  0.80164  0.18881  0.85575  1.0000
  H   H1635     1.0  0.83759  0.14950  0.90474  1.0000
  H   H1636     1.0  0.80967  0.16160  0.89863  1.0000
  H   H1637     1.0  0.82064  0.13256  0.89438  1.0000
  H   H1638     1.0  0.85054  0.19473  0.80798  1.0000
  H   H1639     1.0  0.82479  0.20257  0.82577  1.0000
  H   H1640     1.0  0.85184  0.19358  0.83698  1.0000
  H   H1641     1.0  0.80694  0.13406  0.81791  1.0000
  H   H1642     1.0  0.81506  0.10614  0.83157  1.0000
  H   H1643     1.0  0.83682  0.12260  0.81761  1.0000
  H   H1644     1.0  0.79218  0.18028  0.81828  1.0000
  H   H1645     1.0  0.76811  0.18442  0.83966  1.0000
  H   H1646     1.0  0.77906  0.15632  0.83428  1.0000
  N   N68       1.0  0.68962  0.31306  0.85273  1.0000
  C   C961      1.0  0.68111  0.29560  0.84199  1.0000
  C   C962      1.0  0.71521  0.30648  0.85217  1.0000
  C   C963      1.0  0.68437  0.33598  0.83880  1.0000
  C   C964      1.0  0.67714  0.31282  0.87647  1.0000
  C   C965      1.0  0.65609  0.30101  0.83684  1.0000
  C   C966      1.0  0.72303  0.28310  0.86527  1.0000
  C   C967      1.0  0.69926  0.35433  0.84004  1.0000
  C   C968      1.0  0.68469  0.32762  0.89174  1.0000
  H   H1647     1.0  0.69219  0.29264  0.82586  1.0000
  H   H1648     1.0  0.68234  0.27887  0.85282  1.0000
  H   H1649     1.0  0.72322  0.31895  0.85880  1.0000
  H   H1650     1.0  0.72360  0.30661  0.83434  1.0000
  H   H1651     1.0  0.68637  0.33425  0.82051  1.0000
  H   H1652     1.0  0.66612  0.34331  0.84317  1.0000
  H   H1653     1.0  0.65852  0.31860  0.87616  1.0000
  H   H1654     1.0  0.67744  0.29529  0.88569  1.0000
  H   H1655     1.0  0.64359  0.30275  0.85231  1.0000
  H   H1656     1.0  0.65340  0.31629  0.82412  1.0000
  H   H1657     1.0  0.65206  0.28663  0.82940  1.0000
  H   H1658     1.0  0.71549  0.28173  0.88331  1.0000
  H   H1659     1.0  0.71906  0.26891  0.85759  1.0000
  H   H1660     1.0  0.74196  0.28080  0.86480  1.0000
  H   H1661     1.0  0.71705  0.34996  0.83170  1.0000
  H   H1662     1.0  0.69957  0.35744  0.85747  1.0000
  H   H1663     1.0  0.69220  0.37061  0.83052  1.0000
  H   H1664     1.0  0.67538  0.34516  0.88950  1.0000
  H   H1665     1.0  0.70334  0.32814  0.88932  1.0000
  H   H1666     1.0  0.68069  0.32006  0.90968  1.0000
  C   C969      1.0  0.67709  0.12909  0.89709  1.0000
  C   C970      1.0  0.69959  0.11829  0.90637  1.0000
  H   H1667     1.0  0.68221  0.13705  0.87944  1.0000
  H   H1668     1.0  0.68639  0.16420  0.92027  1.0000
  H   H1669     1.0  0.68233  0.17059  0.89132  1.0000
  H   H1670     1.0  0.70878  0.13109  0.91098  1.0000
  H   H1671     1.0  0.69645  0.10514  0.92118  1.0000
  H   H1672     1.0  0.71114  0.10950  0.89320  1.0000
  H   H1673     1.0  0.65171  0.15414  0.82128  1.0000
  H   H1674     1.0  0.63859  0.14633  0.79105  1.0000
  C   C971      1.0  0.82456  0.27385  0.95166  1.0000
  C   C972      1.0  0.67922  0.18931  0.74916  1.0000
  H   H1675     1.0  0.74470  0.02536  0.76219  1.0000
  S   S282      1.0  0.80531  0.35595  0.80025  1.0000
  H   H1676     1.0  0.81758  0.28187  0.91616  1.0000
  N   N69       1.0  0.79108  0.27666  0.79430  1.0000
  H   H1677     1.0  0.94840  0.30073  0.77526  1.0000
  C   C973      1.0  0.75854  0.27757  0.96614  1.0000
  H   H1678     1.0  0.81583  0.21276  0.97638  1.0000
  S   S283      1.0  0.72287  0.43691  0.76426  1.0000
  H   H1679     1.0  0.77175  0.30922  0.83861  1.0000
  H   H1680     1.0  0.67281  0.11717  0.79244  1.0000
  N   N70       1.0  0.80247  0.26492  0.96214  1.0000
  H   H1681     1.0  0.68648  0.19783  0.76078  1.0000
  Fe  Fe142     1.0  0.89815  0.26122  0.78112  1.0000
  H   H1682     1.0  0.80026  0.30609  0.82429  1.0000
  S   S284      1.0  0.96481  0.20080  0.76820  1.0000
  H   H1683     1.0  0.76989  0.43734  0.77151  1.0000
  C   C974      1.0  0.68135  0.15872  0.79447  1.0000
  H   H1684     1.0  0.97845  0.28855  0.77481  1.0000
  C   C975      1.0  0.68010  0.33482  0.76845  1.0000
  H   H1685     1.0  0.66718  0.20085  0.91860  1.0000
  H   H1686     1.0  0.67828  0.17747  0.79381  1.0000
  H   H1687     1.0  0.62327  0.16661  0.87136  1.0000
  H   H1688     1.0  0.96901  0.22665  0.80375  1.0000
  C   C976      1.0  0.81837  0.18055  0.76842  1.0000
  H   H1689     1.0  0.94092  0.27001  0.75554  1.0000
  H   H1690     1.0  0.80786  0.47438  0.81838  1.0000
  C   C977      1.0  0.82055  0.22312  0.95985  1.0000
  C   C978      1.0  0.64700  0.15799  0.77718  1.0000
  H   H1691     1.0  0.52159  0.17999  0.76346  1.0000
  H   H1692     1.0  0.62676  0.16382  0.90988  1.0000
  H   H1693     1.0  0.63027  0.13548  0.90465  1.0000
  N   N71       1.0  0.66159  0.14599  0.91067  1.0000
  H   H1694     1.0  0.67437  0.13084  0.94212  1.0000
  C   C979      1.0  0.65717  0.18927  0.91294  1.0000
  Fe  Fe143     1.0  0.78064  0.36572  0.77491  1.0000
  C   C980      1.0  0.64059  0.15934  0.87576  1.0000
  Fe  Fe144     1.0  0.73609  0.35035  0.77038  1.0000
  H   H1695     1.0  0.65274  0.11321  0.76242  1.0000
  C   C981      1.0  0.75058  0.00781  0.76812  1.0000
  H   H1696     1.0  0.70949  0.48523  0.76203  1.0000
  C   C982      1.0  0.79142  0.48376  0.82556  1.0000
  C   C983      1.0  0.63901  0.15095  0.90136  1.0000
  C   C984      1.0  0.67056  0.14938  0.81844  1.0000
  C   C985      1.0  0.96083  0.28496  0.77467  1.0000
  C   C986      1.0  0.98813  0.21165  0.77528  1.0000
  H   H1697     1.0  0.76526  0.25042  0.82673  1.0000
  H   H1698     1.0  0.76999  0.30889  0.79862  1.0000
  N   N72       1.0  0.67268  0.15158  0.77488  1.0000
  C   C987      1.0  0.63508  0.15806  0.75620  1.0000
  H   H1699     1.0  0.82370  0.21200  0.94637  1.0000
  C   C988      1.0  0.80103  0.24259  0.95470  1.0000
  H   H1700     1.0  0.75435  0.26115  0.96317  1.0000
  H   H1701     1.0  0.78855  0.28189  0.84133  1.0000
  C   C989      1.0  0.85491  0.14521  0.76793  1.0000
  C   C990      1.0  0.78481  0.29747  0.82935  1.0000
  H   H1702     1.0  0.82244  0.28986  0.79640  1.0000
  C   C991      1.0  0.81415  0.15802  0.77014  1.0000
  C   C992      1.0  0.80039  0.25459  0.80754  1.0000
  H   H1703     1.0  0.77889  0.48375  0.81384  1.0000
  H   H1704     1.0  0.80530  0.30708  0.77724  1.0000
  H   H1705     1.0  0.78502  0.23603  0.96318  1.0000
  C   C993      1.0  0.95908  0.27275  0.75457  1.0000
  H   H1706     1.0  0.75605  0.27839  0.98457  1.0000
  H   H1707     1.0  0.78476  0.29943  0.95690  1.0000
  H   H1708     1.0  0.66053  0.19481  0.75031  1.0000
  C   C994      1.0  0.87231  0.31401  0.77541  1.0000
  H   H1709     1.0  0.64202  0.18751  0.92581  1.0000
  H   H1710     1.0  0.79680  0.15435  0.77167  1.0000
  H   H1711     1.0  0.71635  0.00433  0.83522  1.0000
  C   C995      1.0  0.81117  0.28906  0.78366  1.0000
  H   H1712     1.0  0.76908  0.20475  0.99003  1.0000
  C   C996      1.0  0.76467  0.00258  0.78517  1.0000
  S   S285      1.0  0.78176  0.08031  0.75401  1.0000
  C   C997      1.0  0.83938  0.34188  0.76738  1.0000
  S   S286      1.0  0.89793  0.29767  0.76588  1.0000
  H   H1713     1.0  0.62454  0.14401  0.75895  1.0000
  H   H1714     1.0  0.76115  0.24308  0.78995  1.0000
  S   S287      1.0  0.59179  0.26178  0.74829  1.0000
  H   H1715     1.0  0.68580  0.35135  0.76512  1.0000
  C   C998      1.0  0.67126  0.11465  0.75829  1.0000
  C   C999      1.0  0.68520  0.16325  0.75358  1.0000
  H   H1716     1.0  0.96831  0.25542  0.75807  1.0000
  C   C1000     1.0  0.75718  0.26099  0.78232  1.0000
  H   H1717     1.0  0.77420  0.28896  0.76473  1.0000
  S   S288      1.0  0.77229  0.34034  0.75540  1.0000
  C   C1001     1.0  0.82700  0.27908  0.76382  1.0000
  H   H1718     1.0  0.82986  0.35330  0.75536  1.0000
  H   H1719     1.0  0.70411  0.15941  0.75374  1.0000
  H   H1720     1.0  0.79057  0.26147  0.76421  1.0000
  H   H1721     1.0  0.84303  0.28695  0.76027  1.0000
  C   C1002     1.0  0.76268  0.49524  0.76821  1.0000
  H   H1722     1.0  0.00207  0.24154  0.81321  1.0000
  S   S289      1.0  0.92752  0.67714  0.21146  1.0000
  S   S290      1.0  0.74452  0.83387  0.21548  1.0000
  H   H1723     1.0  0.68758  0.78040  0.01116  1.0000
  H   H1724     1.0  0.74195  0.68758  0.23362  1.0000
  H   H1725     1.0  0.68204  0.75154  0.19524  1.0000
  H   H1726     1.0  0.73483  0.51920  0.22314  1.0000
  C   C1003     1.0  0.86494  0.59745  0.16929  1.0000
  C   C1004     1.0  0.79854  0.97265  0.18402  1.0000
  H   H1727     1.0  0.68485  0.65104  0.22608  1.0000
  H   H1728     1.0  0.89165  0.61680  0.15162  1.0000
  H   H1729     1.0  0.85680  0.63245  0.19635  1.0000
  Fe  Fe145     1.0  0.90642  0.71098  0.20350  1.0000
  S   S291      1.0  0.89710  0.72358  0.16858  1.0000
  C   C1005     1.0  0.86760  0.66237  0.11852  1.0000
  Fe  Fe146     1.0  0.77635  0.78297  0.10562  1.0000
  S   S292      1.0  0.75951  0.75743  0.13100  1.0000
  S   S293      1.0  0.78364  0.81543  0.11555  1.0000
  Fe  Fe147     1.0  0.78270  0.75278  0.06793  1.0000
  S   S294      1.0  0.76633  0.72474  0.09092  1.0000
  S   S295      1.0  0.79696  0.75438  0.03059  1.0000
  Fe  Fe148     1.0  0.74061  0.75325  0.10321  1.0000
  S   S296      1.0  0.70229  0.75518  0.11026  1.0000
  Fe  Fe149     1.0  0.78699  0.73177  0.11664  1.0000
  S   S297      1.0  0.80286  0.70627  0.14350  1.0000
  S   S298      1.0  0.75539  0.78086  0.07856  1.0000
  S   S299      1.0  0.80536  0.75760  0.09283  1.0000
  N   N73       1.0  0.86156  0.64146  0.15963  1.0000
  N   N74       1.0  0.73972  0.73302  0.20218  1.0000
  C   C1006     1.0  0.69755  0.75182  0.20312  1.0000
  S   S300      1.0  0.67033  0.68537  0.19438  1.0000
  H   H1730     1.0  0.86914  0.61650  0.13655  1.0000
  C   C1007     1.0  0.69338  0.73605  0.13382  1.0000
  C   C1008     1.0  0.67310  0.74192  0.14815  1.0000
  C   C1009     1.0  0.66594  0.72662  0.16708  1.0000
  C   C1010     1.0  0.67874  0.70520  0.17124  1.0000
  C   C1011     1.0  0.69877  0.69923  0.15667  1.0000
  C   C1012     1.0  0.70634  0.71478  0.13826  1.0000
  H   H1731     1.0  0.66302  0.75839  0.14470  1.0000
  H   H1732     1.0  0.65035  0.73124  0.17818  1.0000
  H   H1733     1.0  0.70869  0.68269  0.15979  1.0000
  H   H1734     1.0  0.72193  0.71015  0.12717  1.0000
  H   H1735     1.0  0.72594  0.73782  0.23704  1.0000
  H   H1736     1.0  0.85631  0.66153  0.18704  1.0000
  C   C1013     1.0  0.79178  0.73705  0.01141  1.0000
  C   C1014     1.0  0.77879  0.71912  0.01817  1.0000
  H   H1737     1.0  0.73559  0.64881  0.22074  1.0000
  H   H1738     1.0  0.77242  0.71480  0.03586  1.0000
  H   H1739     1.0  0.89197  0.65567  0.14204  1.0000
  C   C1015     1.0  0.87003  0.72001  0.16258  1.0000
  C   C1016     1.0  0.86416  0.72816  0.14094  1.0000
  C   C1017     1.0  0.84317  0.72477  0.13524  1.0000
  C   C1018     1.0  0.82792  0.71313  0.15112  1.0000
  C   C1019     1.0  0.83351  0.70540  0.17296  1.0000
  C   C1020     1.0  0.85448  0.70892  0.17871  1.0000
  H   H1740     1.0  0.87610  0.73671  0.12835  1.0000
  H   H1741     1.0  0.83927  0.73037  0.11823  1.0000
  H   H1742     1.0  0.82185  0.69621  0.18526  1.0000
  H   H1743     1.0  0.85889  0.70234  0.19533  1.0000
  C   C1021     1.0  0.75411  0.83039  0.18703  1.0000
  C   C1022     1.0  0.77123  0.84222  0.17427  1.0000
  C   C1023     1.0  0.77952  0.83816  0.15200  1.0000
  C   C1024     1.0  0.77112  0.82188  0.14258  1.0000
  C   C1025     1.0  0.75336  0.81072  0.15508  1.0000
  C   C1026     1.0  0.74477  0.81509  0.17719  1.0000
  H   H1744     1.0  0.77804  0.85454  0.18148  1.0000
  H   H1745     1.0  0.79281  0.84732  0.14217  1.0000
  H   H1746     1.0  0.74589  0.79912  0.14754  1.0000
  H   H1747     1.0  0.73085  0.80663  0.18667  1.0000
  H   H1748     1.0  0.81780  0.64749  0.19149  1.0000
  H   H1749     1.0  0.70101  0.76967  0.19983  1.0000
  H   H1750     1.0  0.84911  0.59295  0.16466  1.0000
  H   H1751     1.0  0.71103  0.71908  0.19384  1.0000
  C   C1027     1.0  0.77206  0.75715  0.20253  1.0000
  H   H1752     1.0  0.87879  0.58286  0.16761  1.0000
  H   H1753     1.0  0.71364  0.69965  0.22648  1.0000
  H   H1754     1.0  0.69310  0.74652  0.22150  1.0000
  H   H1755     1.0  0.98057  0.73408  0.22772  1.0000
  H   H1756     1.0  0.73876  0.60684  0.22034  1.0000
  H   H1757     1.0  0.71997  0.75413  0.05978  1.0000
  C   C1028     1.0  0.68314  0.63274  0.22866  1.0000
  H   H1758     1.0  0.70479  0.64321  0.15828  1.0000
  H   H1759     1.0  0.90011  0.62611  0.18398  1.0000
  H   H1760     1.0  0.76914  0.99026  0.20240  1.0000
  H   H1761     1.0  0.78501  0.74932  0.18967  1.0000
  H   H1762     1.0  0.69592  0.76518  0.04540  1.0000
  C   C1029     1.0  0.72985  0.76835  0.02490  1.0000
  H   H1763     1.0  0.78803  0.96065  0.17978  1.0000
  H   H1764     1.0  0.76372  0.69311  0.00719  1.0000
  C   C1030     1.0  0.72292  0.61554  0.22944  1.0000
  H   H1765     1.0  0.72900  0.62635  0.18672  1.0000
  H   H1766     1.0  0.77466  0.77524  0.20085  1.0000
  H   H1767     1.0  0.81052  0.74861  0.23701  1.0000
  H   H1768     1.0  0.87258  0.64659  0.11068  1.0000
  N   N75       1.0  0.70326  0.61949  0.21565  1.0000
  H   H1769     1.0  0.65442  0.61311  0.23076  1.0000
  S   S301      1.0  0.98383  0.68499  0.23285  1.0000
  H   H1770     1.0  0.86239  0.59916  0.18747  1.0000
  H   H1771     1.0  0.71292  0.73819  0.04018  1.0000
  C   C1031     1.0  0.83629  0.64527  0.15740  1.0000
  H   H1772     1.0  0.82463  0.61872  0.18508  1.0000
  H   H1773     1.0  0.69062  0.58798  0.23018  1.0000
  H   H1774     1.0  0.88816  0.81236  0.22011  1.0000
  H   H1775     1.0  0.77250  0.71112  0.19978  1.0000
  H   H1776     1.0  0.70363  0.74462  0.00263  1.0000
  S   S302      1.0  0.92684  0.72979  0.22084  1.0000
  H   H1777     1.0  0.83311  0.63786  0.14263  1.0000
  H   H1778     1.0  0.82536  0.99445  0.20502  1.0000
  C   C1032     1.0  0.75806  0.71735  0.18975  1.0000
  C   C1033     1.0  0.65873  0.63049  0.22467  1.0000
  C   C1034     1.0  0.72977  0.63711  0.23587  1.0000
  H   H1779     1.0  0.77540  0.74918  0.21968  1.0000
  H   H1780     1.0  0.71110  0.65087  0.19480  1.0000
  C   C1035     1.0  0.87840  0.80437  0.23502  1.0000
  C   C1036     1.0  0.69708  0.63283  0.17362  1.0000
  H   H1781     1.0  0.86814  0.67621  0.14890  1.0000
  C   C1037     1.0  0.89015  0.64271  0.18723  1.0000
  S   S303      1.0  0.64248  0.73397  0.23326  1.0000
  S   S304      1.0  0.87922  0.70572  0.23309  1.0000
  C   C1038     1.0  0.71752  0.73552  0.19247  1.0000
  H   H1782     1.0  0.87764  0.67535  0.10816  1.0000
  H   H1783     1.0  0.70992  0.56562  0.19861  1.0000
  H   H1784     1.0  0.80234  0.63785  0.17296  1.0000
  H   H1785     1.0  0.73971  0.68696  0.19589  1.0000
  C   C1039     1.0  0.87259  0.61850  0.15360  1.0000
  N   N76       1.0  0.85046  0.79892  0.17227  1.0000
  C   C1040     1.0  0.87215  0.78300  0.16650  1.0000
  C   C1041     1.0  0.83521  0.79866  0.15467  1.0000
  C   C1042     1.0  0.83905  0.78942  0.19516  1.0000
  C   C1043     1.0  0.85677  0.82215  0.17267  1.0000
  C   C1044     1.0  0.88970  0.77876  0.18341  1.0000
  C   C1045     1.0  0.84556  0.80570  0.12996  1.0000
  C   C1046     1.0  0.81602  0.80257  0.20433  1.0000
  C   C1047     1.0  0.83792  0.84273  0.16901  1.0000
  H   H1786     1.0  0.86793  0.76619  0.16449  1.0000
  H   H1787     1.0  0.88171  0.78936  0.14997  1.0000
  H   H1788     1.0  0.81868  0.80965  0.15761  1.0000
  H   H1789     1.0  0.83034  0.78136  0.15563  1.0000
  H   H1790     1.0  0.83619  0.77159  0.19504  1.0000
  H   H1791     1.0  0.85024  0.78868  0.20836  1.0000
  H   H1792     1.0  0.86299  0.82281  0.18892  1.0000
  H   H1793     1.0  0.87139  0.82554  0.15921  1.0000
  H   H1794     1.0  0.90584  0.76920  0.17583  1.0000
  H   H1795     1.0  0.89418  0.79476  0.18714  1.0000
  H   H1796     1.0  0.88372  0.76797  0.19922  1.0000
  H   H1797     1.0  0.83179  0.80884  0.11901  1.0000
  H   H1798     1.0  0.85344  0.82148  0.12778  1.0000
  H   H1799     1.0  0.85831  0.79185  0.12352  1.0000
  H   H1800     1.0  0.81834  0.81928  0.20843  1.0000
  H   H1801     1.0  0.80902  0.79300  0.22051  1.0000
  H   H1802     1.0  0.80289  0.80456  0.19287  1.0000
  H   H1803     1.0  0.83972  0.85552  0.17975  1.0000
  H   H1804     1.0  0.82017  0.83898  0.17351  1.0000
  H   H1805     1.0  0.84034  0.85138  0.15132  1.0000
  H   H1806     1.0  0.89880  0.65683  0.17727  1.0000
  C   C1048     1.0  0.77386  0.70688  0.00190  1.0000
  C   C1049     1.0  0.71705  0.58010  0.20284  1.0000
  C   C1050     1.0  0.69729  0.59669  0.21333  1.0000
  H   H1807     1.0  0.80610  0.96401  0.19930  1.0000
  H   H1808     1.0  0.74589  0.76457  0.18080  1.0000
  C   C1051     1.0  0.75071  0.69648  0.18253  1.0000
  H   H1809     1.0  0.76576  0.72673  0.17368  1.0000
  H   H1810     1.0  0.81347  0.66059  0.22961  1.0000
  H   H1811     1.0  0.72028  0.74153  0.17392  1.0000
  S   S305      1.0  0.79172  0.87600  0.21567  1.0000
  C   C1052     1.0  0.71093  0.63279  0.19307  1.0000
  C   C1053     1.0  0.70202  0.78819  0.00043  1.0000
  C   C1054     1.0  0.86502  0.64461  0.18305  1.0000
  H   H1812     1.0  0.89042  0.64406  0.20526  1.0000
  H   H1813     1.0  0.68306  0.59853  0.20307  1.0000
  H   H1814     1.0  0.73592  0.76769  0.20960  1.0000
  H   H1815     1.0  0.76625  0.68458  0.17744  1.0000
  C   C1055     1.0  0.82586  0.64703  0.23623  1.0000
  H   H1816     1.0  0.84929  0.66895  0.11728  1.0000
  C   C1056     1.0  0.74730  0.75627  0.19847  1.0000
  H   H1817     1.0  0.69770  0.61564  0.16903  1.0000
  H   H1818     1.0  0.75351  0.72293  0.23379  1.0000
  H   H1819     1.0  0.72912  0.57284  0.21513  1.0000
  S   S306      1.0  0.79450  0.61858  0.23489  1.0000
  C   C1057     1.0  0.81966  0.63658  0.17801  1.0000
  C   C1058     1.0  0.99549  0.72682  0.23583  1.0000
  H   H1820     1.0  0.83011  0.66373  0.15391  1.0000
  C   C1059     1.0  0.87296  0.65928  0.14309  1.0000
  Fe  Fe150     1.0  0.65074  0.69804  0.22600  1.0000
  H   H1821     1.0  0.67916  0.64077  0.17716  1.0000
  H   H1822     1.0  0.74179  0.70174  0.16740  1.0000
  Fe  Fe151     1.0  0.94566  0.69525  0.23161  1.0000
  H   H1823     1.0  0.72653  0.58812  0.18711  1.0000
  H   H1824     1.0  0.70019  0.50245  0.23915  1.0000
  H   H1825     1.0  0.74732  0.75872  0.02565  1.0000
  H   H1826     1.0  0.80015  0.99118  0.22446  1.0000
  H   H1827     1.0  0.75683  0.80174  0.00645  1.0000
  S   S307      1.0  0.76510  0.93687  0.23318  1.0000
  H   H1828     1.0  0.73039  0.78483  0.03076  1.0000
  C   C1060     1.0  0.71348  0.75572  0.04328  1.0000
  H   H1829     1.0  0.81226  0.97520  0.16958  1.0000
  H   H1830     1.0  0.65572  0.63561  0.20697  1.0000
  C   C1061     1.0  0.78279  0.99497  0.18838  1.0000
  C   C1062     1.0  0.73684  0.72492  0.22725  1.0000
  S   S308      1.0  0.84877  0.84383  0.23212  1.0000
  C   C1063     1.0  0.73509  0.50765  0.23939  1.0000
  Fe  Fe152     1.0  0.76513  0.85364  0.23145  1.0000
  H   H1831     1.0  0.85088  0.66910  0.23690  1.0000
  H   H1832     1.0  0.90124  0.77277  0.23624  1.0000
  H   H1833     1.0  0.64627  0.64198  0.23484  1.0000
  C   C1064     1.0  0.72787  0.70195  0.23521  1.0000
  H   H1834     1.0  0.74214  0.98147  0.23830  1.0000
  H   H1835     1.0  0.70261  0.80344  0.00847  1.0000
  H   H1836     1.0  0.73332  0.73539  0.00311  1.0000
  C   C1065     1.0  0.82073  0.62467  0.24069  1.0000
  N   N77       1.0  0.72396  0.77187  0.00105  1.0000
  C   C1066     1.0  0.84699  0.65189  0.24041  1.0000
  Fe  Fe153     1.0  0.77605  0.89895  0.24172  1.0000
  C   C1067     1.0  0.72095  0.74909  0.99532  1.0000
  H   H1837     1.0  0.95354  0.79207  0.24167  1.0000
  C   C1068     1.0  0.00090  0.70326  0.24025  1.0000
  S   S309      1.0  0.61670  0.68807  0.24254  1.0000
  Fe  Fe154     1.0  0.90160  0.67317  0.24248  1.0000
  H   H1838     1.0  0.65340  0.57242  0.27334  1.0000
  H   H1839     1.0  0.79947  0.93701  0.26265  1.0000
  H   H1840     1.0  0.80688  0.75339  0.32455  1.0000
  H   H1841     1.0  0.71128  0.78483  0.26035  1.0000
  H   H1842     1.0  0.75074  0.76793  0.25157  1.0000
  C   C1069     1.0  0.52800  0.74474  0.25754  1.0000
  Fe  Fe155     1.0  0.77090  0.85929  0.27919  1.0000
  S   S310      1.0  0.75315  0.85076  0.31448  1.0000
  S   S311      1.0  0.79847  0.88174  0.26774  1.0000
  S   S312      1.0  0.92127  0.68836  0.26346  1.0000
  Fe  Fe156     1.0  0.78363  0.53582  0.26780  1.0000
  H   H1843     1.0  0.65518  0.80696  0.29456  1.0000
  Fe  Fe157     1.0  0.77508  0.56565  0.30537  1.0000
  S   S313      1.0  0.75422  0.59403  0.28578  1.0000
  S   S314      1.0  0.78105  0.57041  0.33999  1.0000
  Fe  Fe158     1.0  0.73852  0.56640  0.27595  1.0000
  H   H1844     1.0  0.80697  0.96729  0.28303  1.0000
  H   H1845     1.0  0.95062  0.80119  0.26859  1.0000
  H   H1846     1.0  0.58056  0.70289  0.34883  1.0000
  S   S315      1.0  0.75683  0.53821  0.29815  1.0000
  S   S316      1.0  0.80400  0.56057  0.27718  1.0000
  Fe  Fe159     1.0  0.78394  0.73819  0.38199  1.0000
  S   S317      1.0  0.75358  0.73679  0.40916  1.0000
  S   S318      1.0  0.80550  0.76640  0.37061  1.0000
  Fe  Fe160     1.0  0.78253  0.69062  0.37144  1.0000
  S   S319      1.0  0.75252  0.68481  0.39810  1.0000
  S   S320      1.0  0.79996  0.66942  0.34457  1.0000
  Fe  Fe161     1.0  0.73847  0.72056  0.38477  1.0000
  S   S321      1.0  0.70222  0.73066  0.37654  1.0000
  Fe  Fe162     1.0  0.77044  0.70141  0.42005  1.0000
  S   S322      1.0  0.77850  0.68673  0.45549  1.0000
  S   S323      1.0  0.76749  0.72530  0.35694  1.0000
  S   S324      1.0  0.80179  0.70395  0.39411  1.0000
  Fe  Fe163     1.0  0.65753  0.72058  0.26543  1.0000
  S   S325      1.0  0.62384  0.71311  0.28556  1.0000
  S   S326      1.0  0.68652  0.73571  0.27473  1.0000
  H   H1847     1.0  0.67453  0.51756  0.30524  1.0000
  C   C1070     1.0  0.71450  0.82327  0.27564  1.0000
  Fe  Fe164     1.0  0.63324  0.67882  0.27411  1.0000
  S   S327      1.0  0.62625  0.64682  0.29697  1.0000
  C   C1071     1.0  0.91088  0.77681  0.30924  1.0000
  S   S328      1.0  0.70177  0.56503  0.27266  1.0000
  H   H1848     1.0  0.82655  0.75158  0.47417  1.0000
  C   C1072     1.0  0.98702  0.77889  0.28743  1.0000
  H   H1849     1.0  0.53194  0.67350  0.35079  1.0000
  H   H1850     1.0  0.94980  0.69950  0.29628  1.0000
  H   H1851     1.0  0.75773  0.96904  0.33311  1.0000
  C   C1073     1.0  0.69742  0.72910  0.34875  1.0000
  C   C1074     1.0  0.67545  0.73633  0.34253  1.0000
  C   C1075     1.0  0.67160  0.73696  0.32006  1.0000
  C   C1076     1.0  0.68984  0.73081  0.30360  1.0000
  C   C1077     1.0  0.71169  0.72313  0.30988  1.0000
  C   C1078     1.0  0.71535  0.72186  0.33244  1.0000
  H   H1852     1.0  0.66145  0.74181  0.35505  1.0000
  H   H1853     1.0  0.65473  0.74309  0.31532  1.0000
  H   H1854     1.0  0.72583  0.71819  0.29727  1.0000
  H   H1855     1.0  0.73210  0.71548  0.33713  1.0000
  H   H1856     1.0  0.71956  0.76512  0.28332  1.0000
  H   H1857     1.0  0.57717  0.64735  0.29778  1.0000
  H   H1858     1.0  0.50329  0.69033  0.32381  1.0000
  C   C1079     1.0  0.68116  0.58741  0.28113  1.0000
  C   C1080     1.0  0.68726  0.60614  0.28864  1.0000
  C   C1081     1.0  0.67046  0.62463  0.29339  1.0000
  C   C1082     1.0  0.64753  0.62403  0.29123  1.0000
  C   C1083     1.0  0.64142  0.60499  0.28440  1.0000
  H   H1859     1.0  0.92585  0.79673  0.25721  1.0000
  H   H1860     1.0  0.70488  0.60666  0.29040  1.0000
  H   H1861     1.0  0.67519  0.63926  0.29891  1.0000
  H   H1862     1.0  0.73310  0.98771  0.32571  1.0000
  S   S329      1.0  0.76428  0.56270  0.24509  1.0000
  C   C1084     1.0  0.78300  0.59900  0.34138  1.0000
  C   C1085     1.0  0.78119  0.60661  0.36242  1.0000
  C   C1086     1.0  0.78471  0.62891  0.36363  1.0000
  C   C1087     1.0  0.79046  0.64347  0.34377  1.0000
  C   C1088     1.0  0.79175  0.63601  0.32277  1.0000
  C   C1089     1.0  0.78799  0.61388  0.32157  1.0000
  H   H1863     1.0  0.77738  0.59515  0.37780  1.0000
  H   H1864     1.0  0.78391  0.63451  0.37990  1.0000
  H   H1865     1.0  0.79641  0.64709  0.30737  1.0000
  H   H1866     1.0  0.78996  0.60808  0.30528  1.0000
  H   H1867     1.0  0.57034  0.70648  0.29167  1.0000
  C   C1090     1.0  0.82390  0.80114  0.44362  1.0000
  H   H1868     1.0  0.73240  0.82717  0.27063  1.0000
  H   H1869     1.0  0.80405  0.78978  0.48561  1.0000
  H   H1870     1.0  0.68300  0.62757  0.24709  1.0000
  C   C1091     1.0  0.66880  0.51420  0.28967  1.0000
  H   H1871     1.0  0.75937  0.77644  0.27554  1.0000
  S   S330      1.0  0.79760  0.50399  0.25172  1.0000
  H   H1872     1.0  0.70371  0.85946  0.27587  1.0000
  H   H1873     1.0  0.79650  0.67878  0.27062  1.0000
  H   H1874     1.0  0.62370  0.60446  0.28281  1.0000
  H   H1875     1.0  0.83414  0.79913  0.45780  1.0000
  H   H1876     1.0  0.80677  0.81052  0.44835  1.0000
  C   C1092     1.0  0.76794  0.82745  0.32998  1.0000
  C   C1093     1.0  0.75624  0.81579  0.34912  1.0000
  C   C1094     1.0  0.76760  0.79667  0.36132  1.0000
  C   C1095     1.0  0.79093  0.78974  0.35492  1.0000
  C   C1096     1.0  0.80275  0.80165  0.33600  1.0000
  C   C1097     1.0  0.79117  0.82025  0.32327  1.0000
  H   H1877     1.0  0.73826  0.82128  0.35432  1.0000
  H   H1878     1.0  0.75834  0.78745  0.37581  1.0000
  H   H1879     1.0  0.82081  0.79629  0.33099  1.0000
  H   H1880     1.0  0.80030  0.82924  0.30853  1.0000
  C   C1098     1.0  0.94645  0.76452  0.26881  1.0000
  C   C1099     1.0  0.84627  0.80649  0.26491  1.0000
  C   C1100     1.0  0.85431  0.78449  0.27470  1.0000
  H   H1881     1.0  0.83114  0.81596  0.27311  1.0000
  H   H1882     1.0  0.84536  0.77709  0.29046  1.0000
  H   H1883     1.0  0.78551  0.74657  0.31060  1.0000
  H   H1884     1.0  0.92593  0.73456  0.30020  1.0000
  C   C1101     1.0  0.56086  0.72907  0.31621  1.0000
  C   C1102     1.0  0.65822  0.58685  0.27912  1.0000
  C   C1103     1.0  0.83693  0.60723  0.24898  1.0000
  C   C1104     1.0  0.80799  0.75661  0.47269  1.0000
  H   H1885     1.0  0.97580  0.71106  0.29318  1.0000
  H   H1886     1.0  0.57557  0.65760  0.33377  1.0000
  C   C1105     1.0  0.71023  0.50714  0.25129  1.0000
  H   H1887     1.0  0.74705  0.80291  0.29955  1.0000
  H   H1888     1.0  0.55161  0.73029  0.33338  1.0000
  H   H1889     1.0  0.94190  0.79157  0.30428  1.0000
  C   C1106     1.0  0.50967  0.71144  0.25767  1.0000
  H   H1890     1.0  0.98778  0.78428  0.26896  1.0000
  N   N78       1.0  0.74241  0.93031  0.31751  1.0000
  C   C1107     1.0  0.76707  0.92497  0.32194  1.0000
  C   C1108     1.0  0.73709  0.95579  0.31225  1.0000
  C   C1109     1.0  0.74028  0.91927  0.29730  1.0000
  C   C1110     1.0  0.72761  0.92071  0.33830  1.0000
  C   C1111     1.0  0.77686  0.89955  0.32591  1.0000
  H   H1891     1.0  0.70692  0.84437  0.30337  1.0000
  C   C1112     1.0  0.72055  0.92985  0.28354  1.0000
  C   C1113     1.0  0.70141  0.92608  0.33866  1.0000
  H   H1892     1.0  0.77855  0.93312  0.30763  1.0000
  H   H1893     1.0  0.76949  0.93199  0.33718  1.0000
  H   H1894     1.0  0.71954  0.96131  0.30784  1.0000
  H   H1895     1.0  0.74843  0.96197  0.29685  1.0000
  H   H1896     1.0  0.75619  0.91955  0.28482  1.0000
  H   H1897     1.0  0.73848  0.90096  0.30240  1.0000
  H   H1898     1.0  0.73124  0.90182  0.34082  1.0000
  H   H1899     1.0  0.73203  0.92538  0.35400  1.0000
  H   H1900     1.0  0.76855  0.89065  0.34184  1.0000
  H   H1901     1.0  0.77557  0.89064  0.31166  1.0000
  H   H1902     1.0  0.79540  0.89796  0.32739  1.0000
  H   H1903     1.0  0.52668  0.76226  0.26024  1.0000
  H   H1904     1.0  0.68228  0.84269  0.28989  1.0000
  H   H1905     1.0  0.53271  0.68176  0.24904  1.0000
  H   H1906     1.0  0.96014  0.75551  0.25745  1.0000
  H   H1907     1.0  0.70358  0.93155  0.29399  1.0000
  H   H1908     1.0  0.95731  0.71825  0.27119  1.0000
  H   H1909     1.0  0.69306  0.92512  0.35651  1.0000
  N   N79       1.0  0.85534  0.58316  0.33345  1.0000
  C   C1114     1.0  0.84390  0.57041  0.35476  1.0000
  C   C1115     1.0  0.84703  0.57588  0.31380  1.0000
  C   C1116     1.0  0.84789  0.60823  0.33420  1.0000
  C   C1117     1.0  0.88094  0.57738  0.33307  1.0000
  C   C1118     1.0  0.84671  0.57797  0.37728  1.0000
  C   C1119     1.0  0.85334  0.55049  0.31120  1.0000
  C   C1120     1.0  0.84962  0.62421  0.31158  1.0000
  C   C1121     1.0  0.89629  0.58624  0.31145  1.0000
  H   H1910     1.0  0.82509  0.57182  0.35440  1.0000
  H   H1911     1.0  0.85033  0.55192  0.35615  1.0000
  H   H1912     1.0  0.85336  0.58539  0.29744  1.0000
  H   H1913     1.0  0.82801  0.57997  0.31506  1.0000
  H   H1914     1.0  0.82964  0.61129  0.34177  1.0000
  H   H1915     1.0  0.85763  0.61473  0.34548  1.0000
  H   H1916     1.0  0.59878  0.67661  0.35312  1.0000
  H   H1917     1.0  0.94574  0.73028  0.32006  1.0000
  N   N80       1.0  0.95098  0.75821  0.29303  1.0000
  H   H1918     1.0  0.86491  0.57620  0.37988  1.0000
  H   H1919     1.0  0.94094  0.76872  0.32618  1.0000
  H   H1920     1.0  0.84376  0.53967  0.32487  1.0000
  H   H1921     1.0  0.84833  0.54766  0.29507  1.0000
  H   H1922     1.0  0.87202  0.54478  0.31030  1.0000
  H   H1923     1.0  0.83730  0.62148  0.30066  1.0000
  H   H1924     1.0  0.86708  0.62304  0.30214  1.0000
  H   H1925     1.0  0.84482  0.64194  0.31526  1.0000
  H   H1926     1.0  0.86572  0.70196  0.28248  1.0000
  H   H1927     1.0  0.88888  0.58726  0.29566  1.0000
  C   C1122     1.0  0.94422  0.73489  0.30171  1.0000
  N   N81       1.0  0.80451  0.76466  0.44831  1.0000
  C   C1123     1.0  0.80585  0.74395  0.43670  1.0000
  C   C1124     1.0  0.78091  0.77791  0.44703  1.0000
  C   C1125     1.0  0.77324  0.70289  0.47816  1.0000
  C   C1126     1.0  0.82326  0.77798  0.43616  1.0000
  C   C1127     1.0  0.82696  0.72569  0.43966  1.0000
  C   C1128     1.0  0.77555  0.78818  0.42311  1.0000
  S   S331      1.0  0.74756  0.87810  0.25497  1.0000
  H   H1928     1.0  0.86602  0.67235  0.29175  1.0000
  H   H1929     1.0  0.79043  0.73527  0.44267  1.0000
  H   H1930     1.0  0.80590  0.74872  0.41817  1.0000
  C   C1129     1.0  0.75639  0.97833  0.24798  1.0000
  H   H1931     1.0  0.76753  0.76697  0.45485  1.0000
  Fe  Fe165     1.0  0.60943  0.72306  0.25255  1.0000
  H   H1932     1.0  0.67522  0.81034  0.26969  1.0000
  H   H1933     1.0  0.84038  0.76807  0.43821  1.0000
  H   H1934     1.0  0.82328  0.78057  0.41747  1.0000
  H   H1935     1.0  0.82746  0.71802  0.45753  1.0000
  H   H1936     1.0  0.82584  0.71152  0.43037  1.0000
  H   H1937     1.0  0.84328  0.73226  0.43248  1.0000
  H   H1938     1.0  0.75784  0.79750  0.42435  1.0000
  C   C1130     1.0  0.74722  0.78117  0.26295  1.0000
  H   H1939     1.0  0.77606  0.77496  0.41227  1.0000
  C   C1131     1.0  0.95779  0.71511  0.28967  1.0000
  H   H1940     1.0  0.56957  0.67836  0.36585  1.0000
  H   H1941     1.0  0.71891  0.60408  0.24546  1.0000
  H   H1942     1.0  0.66953  0.78238  0.28202  1.0000
  H   H1943     1.0  0.57525  0.67384  0.27905  1.0000
  H   H1944     1.0  0.53936  0.65637  0.31809  1.0000
  H   H1945     1.0  0.97865  0.79289  0.29700  1.0000
  S   S332      1.0  0.88370  0.74463  0.27648  1.0000
  S   S333      1.0  0.88907  0.63958  0.25591  1.0000
  H   H1946     1.0  0.69550  0.94348  0.33094  1.0000
  H   H1947     1.0  0.55740  0.65310  0.27771  1.0000
  C   C1132     1.0  0.69054  0.79677  0.30140  1.0000
  H   H1948     1.0  0.71576  0.64619  0.24684  1.0000
  H   H1949     1.0  0.74023  0.76089  0.31196  1.0000
  H   H1950     1.0  0.65027  0.51256  0.29389  1.0000
  H   H1951     1.0  0.68464  0.80801  0.31472  1.0000
  H   H1952     1.0  0.73731  0.50024  0.28476  1.0000
  H   H1953     1.0  0.71968  0.91884  0.27072  1.0000
  H   H1954     1.0  0.55464  0.74524  0.30592  1.0000
  H   H1955     1.0  0.78724  0.80050  0.41468  1.0000
  H   H1956     1.0  0.54088  0.71527  0.29643  1.0000
  S   S334      1.0  0.66794  0.68530  0.25682  1.0000
  C   C1133     1.0  0.81197  0.74864  0.25508  1.0000
  H   H1957     1.0  0.93031  0.75849  0.26667  1.0000
  H   H1958     1.0  0.85634  0.69181  0.31177  1.0000
  Fe  Fe166     1.0  0.78215  0.58766  0.25705  1.0000
  H   H1959     1.0  0.69497  0.91359  0.33044  1.0000
  H   H1960     1.0  0.69067  0.77941  0.31105  1.0000
  H   H1961     1.0  0.90557  0.78119  0.29219  1.0000
  C   C1134     1.0  0.85792  0.61208  0.25323  1.0000
  C   C1135     1.0  0.70100  0.84338  0.28715  1.0000
  C   C1136     1.0  0.78849  0.95318  0.26187  1.0000
  C   C1137     1.0  0.73952  0.96956  0.33093  1.0000
  H   H1962     1.0  0.90273  0.79082  0.31900  1.0000
  H   H1963     1.0  0.91243  0.57425  0.30927  1.0000
  C   C1138     1.0  0.93716  0.77424  0.30851  1.0000
  H   H1964     1.0  0.98671  0.74457  0.28429  1.0000
  H   H1965     1.0  0.90080  0.60316  0.31268  1.0000
  H   H1966     1.0  0.83830  0.59559  0.37875  1.0000
  C   C1139     1.0  0.72990  0.79829  0.30729  1.0000
  H   H1967     1.0  0.57955  0.72848  0.31627  1.0000
  H   H1968     1.0  0.51068  0.71831  0.32418  1.0000
  H   H1969     1.0  0.53816  0.70082  0.35199  1.0000
  H   H1970     1.0  0.82067  0.76343  0.25589  1.0000
  C   C1140     1.0  0.79276  0.97037  0.27332  1.0000
  H   H1971     1.0  0.79356  0.70529  0.25151  1.0000
  C   C1141     1.0  0.54975  0.73239  0.25207  1.0000
  C   C1142     1.0  0.67175  0.79923  0.28590  1.0000
  H   H1972     1.0  0.72377  0.94660  0.27392  1.0000
  H   H1973     1.0  0.87048  0.59843  0.25937  1.0000
  C   C1143     1.0  0.58102  0.68433  0.35045  1.0000
  H   H1974     1.0  0.88619  0.55875  0.33698  1.0000
  H   H1975     1.0  0.88650  0.58422  0.34702  1.0000
  H   H1976     1.0  0.83195  0.81234  0.42912  1.0000
  H   H1977     1.0  0.90373  0.76131  0.31799  1.0000
  C   C1144     1.0  0.73372  0.77496  0.32202  1.0000
  C   C1145     1.0  0.97614  0.75690  0.29484  1.0000
  H   H1978     1.0  0.74695  0.72752  0.46441  1.0000
  H   H1979     1.0  0.72314  0.81081  0.31922  1.0000
  C   C1146     1.0  0.56525  0.66099  0.28944  1.0000
  H   H1980     1.0  0.83802  0.56689  0.39145  1.0000
  C   C1147     1.0  0.72208  0.78226  0.27423  1.0000
  N   N82       1.0  0.81729  0.71342  0.28629  1.0000
  C   C1148     1.0  0.83163  0.69025  0.28880  1.0000
  C   C1149     1.0  0.79276  0.70948  0.28731  1.0000
  C   C1150     1.0  0.81950  0.72510  0.30599  1.0000
  C   C1151     1.0  0.82646  0.72636  0.26411  1.0000
  C   C1152     1.0  0.85630  0.68936  0.29396  1.0000
  Fe  Fe167     1.0  0.90113  0.72149  0.25128  1.0000
  C   C1153     1.0  0.80402  0.74786  0.30869  1.0000
  H   H1981     1.0  0.58999  0.67873  0.31574  1.0000
  H   H1982     1.0  0.82322  0.67846  0.30241  1.0000
  H   H1983     1.0  0.83318  0.68210  0.27330  1.0000
  H   H1984     1.0  0.78059  0.72536  0.28668  1.0000
  H   H1985     1.0  0.78694  0.69968  0.30394  1.0000
  H   H1986     1.0  0.81602  0.71361  0.32218  1.0000
  H   H1987     1.0  0.83734  0.72884  0.30509  1.0000
  H   H1988     1.0  0.84358  0.73084  0.26513  1.0000
  H   H1989     1.0  0.82979  0.71540  0.25044  1.0000
  H   H1990     1.0  0.79440  0.75170  0.26393  1.0000
  C   C1154     1.0  0.75675  0.72218  0.47839  1.0000
  H   H1991     1.0  0.71654  0.50071  0.32672  1.0000
  C   C1155     1.0  0.87386  0.77210  0.26412  1.0000
  H   H1992     1.0  0.74686  0.77525  0.33300  1.0000
  H   H1993     1.0  0.77761  0.79231  0.45694  1.0000
  H   H1994     1.0  0.97941  0.75052  0.31255  1.0000
  C   C1156     1.0  0.51030  0.70098  0.33367  1.0000
  H   H1995     1.0  0.80862  0.76157  0.29507  1.0000
  H   H1996     1.0  0.53190  0.67963  0.29737  1.0000
  C   C1157     1.0  0.78814  0.69669  0.26870  1.0000
  H   H1997     1.0  0.71795  0.77116  0.33351  1.0000
  N   N83       1.0  0.55297  0.68711  0.32078  1.0000
  C   C1158     1.0  0.54614  0.67110  0.30693  1.0000
  C   C1159     1.0  0.53404  0.69019  0.34024  1.0000
  C   C1160     1.0  0.57524  0.67633  0.32930  1.0000
  C   C1161     1.0  0.55594  0.70911  0.30553  1.0000
  N   N84       1.0  0.71422  0.80015  0.28962  1.0000
  C   C1162     1.0  0.71856  0.50112  0.29036  1.0000
  H   H1998     1.0  0.79989  0.74101  0.47912  1.0000
  C   C1163     1.0  0.50800  0.73429  0.26039  1.0000
  S   S335      1.0  0.78626  0.83296  0.25686  1.0000
  H   H1999     1.0  0.71288  0.51952  0.29089  1.0000
  H   H2000     1.0  0.76941  0.69608  0.27033  1.0000
  C   C1164     1.0  0.94402  0.79006  0.25907  1.0000
  C   C1165     1.0  0.53130  0.69938  0.25138  1.0000
  H   H2001     1.0  0.70805  0.82392  0.25922  1.0000
  H   H2002     1.0  0.83357  0.58988  0.25161  1.0000
  C   C1166     1.0  0.77037  0.95721  0.24901  1.0000
  C   C1167     1.0  0.86291  0.63440  0.24925  1.0000
  H   H2003     1.0  0.67034  0.52913  0.27648  1.0000
  H   H2004     1.0  0.72025  0.70124  0.25327  1.0000
  H   H2005     1.0  0.72925  0.96407  0.34726  1.0000
  H   H2006     1.0  0.75065  0.79742  0.25247  1.0000
  H   H2007     1.0  0.70315  0.52502  0.25322  1.0000
  H   H2008     1.0  0.74573  0.51457  0.24937  1.0000
  H   H2009     1.0  0.56776  0.70024  0.24396  1.0000
  S   S336      1.0  0.57470  0.74492  0.25184  1.0000
  H   H2010     1.0  0.74438  0.63208  0.24576  1.0000
  C   C1168     1.0  0.55123  0.70980  0.24856  1.0000
  C   C1169     1.0  0.85832  0.81645  0.24501  1.0000
  C   C1170     1.0  0.88584  0.78203  0.24420  1.0000
  C   C1171     1.0  0.77901  0.99167  0.27190  1.0000
  C   C1172     1.0  0.79822  0.77295  0.49018  1.0000
  C   C1173     1.0  0.76067  0.99548  0.25936  1.0000
  Fe  Fe168     1.0  0.81180  0.85693  0.24291  1.0000
  Fe  Fe169     1.0  0.90149  0.71724  0.71265  1.0000
  S   S337      1.0  0.91083  0.75217  0.70124  1.0000
  S   S338      1.0  0.89228  0.69456  0.69028  1.0000
  H   H2011     1.0  0.65429  0.63913  0.73927  1.0000
  H   H2012     1.0  0.80882  0.77722  0.70836  1.0000
  H   H2013     1.0  0.91949  0.70338  0.63576  1.0000
  C   C1174     1.0  0.77146  0.49937  0.69381  1.0000
  H   H2014     1.0  0.72297  0.66938  0.50633  1.0000
  H   H2015     1.0  0.73481  0.65123  0.72540  1.0000
  H   H2016     1.0  0.62364  0.76689  0.65102  1.0000
  N   N85       1.0  0.96668  0.70741  0.66255  1.0000
  H   H2017     1.0  0.73415  0.68860  0.51986  1.0000
  Fe  Fe170     1.0  0.62959  0.73726  0.72749  1.0000
  S   S339      1.0  0.64264  0.72953  0.69223  1.0000
  S   S340      1.0  0.85415  0.78871  0.72269  1.0000
  H   H2018     1.0  0.86313  0.65105  0.73126  1.0000
  Fe  Fe171     1.0  0.75551  0.74586  0.62089  1.0000
  S   S341      1.0  0.74466  0.72159  0.60164  1.0000
  S   S342      1.0  0.73379  0.76801  0.64525  1.0000
  Fe  Fe172     1.0  0.80598  0.73289  0.60460  1.0000
  S   S343      1.0  0.79989  0.70717  0.58358  1.0000
  S   S344      1.0  0.83864  0.74467  0.60968  1.0000
  Fe  Fe173     1.0  0.77073  0.73317  0.57277  1.0000
  S   S345      1.0  0.75923  0.74364  0.53805  1.0000
  Fe  Fe174     1.0  0.77420  0.69731  0.61367  1.0000
  S   S346      1.0  0.76648  0.66184  0.62646  1.0000
  S   S347      1.0  0.77903  0.75982  0.59108  1.0000
  S   S348      1.0  0.78293  0.72059  0.63540  1.0000
  C   C1175     1.0  0.76490  0.72742  0.51542  1.0000
  C   C1176     1.0  0.78155  0.70822  0.51514  1.0000
  C   C1177     1.0  0.75686  0.67623  0.72678  1.0000
  H   H2019     1.0  0.70413  0.69025  0.55915  1.0000
  H   H2020     1.0  0.50451  0.62447  0.72600  1.0000
  H   H2021     1.0  0.79133  0.70291  0.52914  1.0000
  H   H2022     1.0  0.51949  0.78258  0.68163  1.0000
  C   C1178     1.0  0.66721  0.74139  0.67898  1.0000
  C   C1179     1.0  0.67587  0.75742  0.68847  1.0000
  C   C1180     1.0  0.69605  0.76600  0.67775  1.0000
  C   C1181     1.0  0.70769  0.75840  0.65770  1.0000
  C   C1182     1.0  0.69877  0.74261  0.64819  1.0000
  C   C1183     1.0  0.67857  0.73419  0.65875  1.0000
  H   H2023     1.0  0.66708  0.76318  0.70403  1.0000
  H   H2024     1.0  0.70280  0.77831  0.68514  1.0000
  H   H2025     1.0  0.70736  0.73694  0.63262  1.0000
  H   H2026     1.0  0.67186  0.72190  0.65131  1.0000
  C   C1184     1.0  0.60670  0.76075  0.65313  1.0000
  C   C1185     1.0  0.79263  0.63243  0.69358  1.0000
  C   C1186     1.0  0.77554  0.62307  0.68629  1.0000
  C   C1187     1.0  0.76780  0.63201  0.66552  1.0000
  C   C1188     1.0  0.77693  0.65049  0.65208  1.0000
  C   C1189     1.0  0.79411  0.65978  0.65929  1.0000
  C   C1190     1.0  0.80202  0.65069  0.67996  1.0000
  H   H2027     1.0  0.76826  0.60897  0.69661  1.0000
  H   H2028     1.0  0.75456  0.62472  0.65999  1.0000
  H   H2029     1.0  0.80166  0.67366  0.64876  1.0000
  H   H2030     1.0  0.81541  0.65787  0.68536  1.0000
  C   C1191     1.0  0.81402  0.76432  0.69679  1.0000
  C   C1192     1.0  0.87602  0.70897  0.66899  1.0000
  C   C1193     1.0  0.86123  0.69759  0.66040  1.0000
  C   C1194     1.0  0.84901  0.70862  0.64270  1.0000
  C   C1195     1.0  0.85220  0.73078  0.63298  1.0000
  C   C1196     1.0  0.86697  0.74210  0.64158  1.0000
  C   C1197     1.0  0.87846  0.73142  0.65980  1.0000
  H   H2031     1.0  0.85928  0.68019  0.66735  1.0000
  H   H2032     1.0  0.83774  0.69970  0.63608  1.0000
  H   H2033     1.0  0.86958  0.75920  0.63407  1.0000
  H   H2034     1.0  0.88980  0.74038  0.66614  1.0000
  H   H2035     1.0  0.71762  0.71290  0.56289  1.0000
  S   S349      1.0  0.75637  0.57692  0.73521  1.0000
  N   N86       1.0  0.80655  0.79710  0.66377  1.0000
  C   C1198     1.0  0.81143  0.80018  0.63825  1.0000
  C   C1199     1.0  0.82347  0.80895  0.67198  1.0000
  C   C1200     1.0  0.78249  0.80867  0.67010  1.0000
  C   C1201     1.0  0.80866  0.77195  0.67228  1.0000
  C   C1202     1.0  0.79422  0.79198  0.62598  1.0000
  C   C1203     1.0  0.84901  0.80055  0.66461  1.0000
  C   C1204     1.0  0.77442  0.81006  0.69536  1.0000
  H   H2036     1.0  0.81228  0.81838  0.63136  1.0000
  H   H2037     1.0  0.82844  0.79077  0.63240  1.0000
  H   H2038     1.0  0.82116  0.80775  0.69061  1.0000
  H   H2039     1.0  0.82055  0.82755  0.66603  1.0000
  H   H2040     1.0  0.78034  0.82640  0.66115  1.0000
  H   H2041     1.0  0.76964  0.79990  0.66464  1.0000
  H   H2042     1.0  0.79282  0.76506  0.67066  1.0000
  H   H2043     1.0  0.82273  0.76261  0.66143  1.0000
  H   H2044     1.0  0.80130  0.79256  0.60780  1.0000
  H   H2045     1.0  0.79153  0.77420  0.63252  1.0000
  H   H2046     1.0  0.77750  0.80318  0.62682  1.0000
  H   H2047     1.0  0.85314  0.78189  0.66855  1.0000
  H   H2048     1.0  0.85427  0.80597  0.64637  1.0000
  H   H2049     1.0  0.85970  0.80828  0.67393  1.0000
  H   H2050     1.0  0.98511  0.71497  0.62873  1.0000
  H   H2051     1.0  0.77291  0.79306  0.70500  1.0000
  H   H2052     1.0  0.75687  0.81977  0.69723  1.0000
  H   H2053     1.0  0.83257  0.75790  0.69683  1.0000
  C   C1205     1.0  0.71001  0.67529  0.68985  1.0000
  C   C1206     1.0  0.70231  0.65148  0.69474  1.0000
  H   H2054     1.0  0.69524  0.68755  0.68418  1.0000
  H   H2055     1.0  0.72344  0.67469  0.67479  1.0000
  H   H2056     1.0  0.71033  0.69239  0.58700  1.0000
  H   H2057     1.0  0.69929  0.64654  0.67866  1.0000
  H   H2058     1.0  0.57276  0.70911  0.70443  1.0000
  H   H2059     1.0  0.57196  0.73469  0.66028  1.0000
  C   C1207     1.0  0.55769  0.76770  0.70283  1.0000
  H   H2060     1.0  0.71547  0.63822  0.70173  1.0000
  C   C1208     1.0  0.71682  0.69451  0.56864  1.0000
  H   H2061     1.0  0.93048  0.72071  0.66526  1.0000
  H   H2062     1.0  0.69980  0.65719  0.58785  1.0000
  H   H2063     1.0  0.75263  0.66458  0.50900  1.0000
  H   H2064     1.0  0.72930  0.71466  0.71443  1.0000
  H   H2065     1.0  0.98577  0.72290  0.68264  1.0000
  H   H2066     1.0  0.82566  0.70934  0.73298  1.0000
  S   S350      1.0  0.92770  0.70732  0.73673  1.0000
  H   H2067     1.0  0.52838  0.69200  0.73030  1.0000
  S   S351      1.0  0.87314  0.72792  0.73910  1.0000
  H   H2068     1.0  0.74222  0.64603  0.59510  1.0000
  H   H2069     1.0  0.70351  0.63134  0.57515  1.0000
  H   H2070     1.0  0.70733  0.63034  0.60394  1.0000
  C   C1209     1.0  0.97918  0.68187  0.69882  1.0000
  H   H2071     1.0  0.78098  0.63496  0.58349  1.0000
  H   H2072     1.0  0.78521  0.66426  0.57408  1.0000
  C   C1210     1.0  0.71011  0.64035  0.58687  1.0000
  H   H2073     1.0  0.95607  0.73070  0.68704  1.0000
  H   H2074     1.0  0.59181  0.78763  0.67233  1.0000
  H   H2075     1.0  0.97826  0.76164  0.66750  1.0000
  H   H2076     1.0  0.75114  0.69193  0.55060  1.0000
  H   H2077     1.0  0.52013  0.78673  0.65175  1.0000
  H   H2078     1.0  0.99760  0.68045  0.69210  1.0000
  H   H2079     1.0  0.73238  0.63739  0.53692  1.0000
  H   H2080     1.0  0.76204  0.51004  0.68056  1.0000
  N   N87       1.0  0.71878  0.68310  0.70904  1.0000
  H   H2081     1.0  0.71101  0.65915  0.54544  1.0000
  H   H2082     1.0  0.94795  0.69053  0.62742  1.0000
  C   C1211     1.0  0.73599  0.64155  0.58019  1.0000
  S   S352      1.0  0.96979  0.75574  0.71929  1.0000
  H   H2083     1.0  0.93234  0.68122  0.65480  1.0000
  H   H2084     1.0  0.56823  0.75767  0.71555  1.0000
  H   H2085     1.0  0.74408  0.62374  0.57867  1.0000
  H   H2086     1.0  0.57210  0.79877  0.70487  1.0000
  H   H2087     1.0  0.74694  0.72731  0.67828  1.0000
  H   H2088     1.0  0.74937  0.68159  0.57924  1.0000
  C   C1212     1.0  0.74111  0.68131  0.56409  1.0000
  H   H2089     1.0  0.61031  0.74198  0.65473  1.0000
  N   N88       1.0  0.74316  0.65729  0.55905  1.0000
  C   C1213     1.0  0.72975  0.65530  0.54047  1.0000
  H   H2090     1.0  0.80502  0.74955  0.70426  1.0000
  H   H2091     1.0  0.73437  0.70942  0.66441  1.0000
  H   H2092     1.0  0.81033  0.81447  0.73178  1.0000
  C   C1214     1.0  0.74162  0.71020  0.68002  1.0000
  H   H2093     1.0  0.75724  0.69757  0.68082  1.0000
  Fe  Fe175     1.0  0.93488  0.74345  0.72763  1.0000
  C   C1215     1.0  0.69982  0.68291  0.72879  1.0000
  C   C1216     1.0  0.73981  0.66705  0.71487  1.0000
  C   C1217     1.0  0.78484  0.64770  0.56851  1.0000
  H   H2094     1.0  0.71044  0.80316  0.72753  1.0000
  C   C1218     1.0  0.58309  0.72101  0.69273  1.0000
  N   N89       1.0  0.56785  0.76298  0.67933  1.0000
  H   H2095     1.0  0.76429  0.66225  0.73891  1.0000
  C   C1219     1.0  0.76811  0.64961  0.55103  1.0000
  H   H2096     1.0  0.69556  0.66546  0.73441  1.0000
  H   H2097     1.0  0.60165  0.76241  0.68894  1.0000
  H   H2098     1.0  0.54974  0.73386  0.68337  1.0000
  C   C1220     1.0  0.98562  0.70168  0.64381  1.0000
  H   H2099     1.0  0.55637  0.79541  0.66020  1.0000
  C   C1221     1.0  0.78562  0.69596  0.49660  1.0000
  C   C1222     1.0  0.93599  0.69610  0.64210  1.0000
  H   H2100     1.0  0.68583  0.65137  0.70621  1.0000
  H   H2101     1.0  0.77026  0.63270  0.54508  1.0000
  H   H2102     1.0  0.80251  0.64208  0.56053  1.0000
  H   H2103     1.0  0.94560  0.68860  0.68939  1.0000
  C   C1223     1.0  0.97057  0.72698  0.67356  1.0000
  H   H2104     1.0  0.70754  0.71827  0.69739  1.0000
  C   C1224     1.0  0.73545  0.67046  0.51781  1.0000
  H   H2105     1.0  0.77475  0.66141  0.53623  1.0000
  H   H2106     1.0  0.98294  0.68623  0.63722  1.0000
  H   H2107     1.0  0.68380  0.69343  0.72369  1.0000
  H   H2108     1.0  0.54057  0.76190  0.70772  1.0000
  S   S353      1.0  0.80185  0.62212  0.71997  1.0000
  H   H2109     1.0  0.59244  0.72872  0.70317  1.0000
  C   C1225     1.0  0.56742  0.73826  0.67807  1.0000
  C   C1226     1.0  0.94463  0.71452  0.65236  1.0000
  H   H2110     1.0  0.59597  0.71055  0.68188  1.0000
  C   C1227     1.0  0.59198  0.76891  0.67444  1.0000
  Fe  Fe176     1.0  0.88397  0.76224  0.72948  1.0000
  C   C1228     1.0  0.82107  0.67293  0.73793  1.0000
  H   H2111     1.0  0.74997  0.66161  0.69915  1.0000
  H   H2112     1.0  0.73973  0.74923  0.49706  1.0000
  H   H2113     1.0  0.97619  0.66540  0.70925  1.0000
  H   H2114     1.0  0.96543  0.67123  0.67207  1.0000
  C   C1229     1.0  0.55413  0.77719  0.66190  1.0000
  H   H2115     1.0  0.78520  0.81934  0.70292  1.0000
  H   H2116     1.0  0.77176  0.68108  0.71444  1.0000
  H   H2117     1.0  0.56053  0.77218  0.64485  1.0000
  H   H2118     1.0  0.54385  0.80416  0.69590  1.0000
  C   C1230     1.0  0.96343  0.68691  0.68017  1.0000
  C   C1231     1.0  0.52810  0.77593  0.66591  1.0000
  C   C1232     1.0  0.55521  0.79267  0.70689  1.0000
  C   C1233     1.0  0.72360  0.70710  0.70117  1.0000
  H   H2119     1.0  0.59888  0.76759  0.63758  1.0000
  H   H2120     1.0  0.97502  0.69487  0.71049  1.0000
  C   C1234     1.0  0.99534  0.74297  0.73030  1.0000
  C   C1235     1.0  0.97355  0.74936  0.65770  1.0000
  H   H2121     1.0  0.54729  0.79393  0.72465  1.0000
  C   C1236     1.0  0.75263  0.73438  0.49695  1.0000
  H   H2122     1.0  0.80394  0.76542  0.50671  1.0000
  H   H2123     1.0  0.82278  0.65990  0.72637  1.0000
  H   H2124     1.0  0.74950  0.69035  0.73645  1.0000
  C   C1237     1.0  0.82501  0.69565  0.72294  1.0000
  S   S354      1.0  0.60792  0.76956  0.73640  1.0000
  H   H2125     1.0  0.51958  0.58434  0.73038  1.0000
  H   H2126     1.0  0.94622  0.72898  0.63852  1.0000
  H   H2127     1.0  0.79846  0.68108  0.49646  1.0000
  H   H2128     1.0  0.81065  0.70126  0.71278  1.0000
  H   H2129     1.0  0.95734  0.75742  0.65130  1.0000
  H   H2130     1.0  0.84083  0.69366  0.71058  1.0000
  H   H2131     1.0  0.86512  0.67929  0.73495  1.0000
  H   H2132     1.0  0.77205  0.50974  0.70732  1.0000
  C   C1238     1.0  0.99757  0.72092  0.74199  1.0000
  H   H2133     1.0  0.98754  0.74708  0.64349  1.0000
  H   H2134     1.0  0.77159  0.76052  0.73340  1.0000
  H   H2135     1.0  0.52424  0.75849  0.66613  1.0000
  H   H2136     1.0  0.67477  0.78576  0.74158  1.0000
  C   C1239     1.0  0.52209  0.70826  0.73603  1.0000
  H   H2137     1.0  0.77917  0.77494  0.49316  1.0000
  C   C1240     1.0  0.94773  0.78450  0.77910  1.0000
  H   H2138     1.0  0.97625  0.75982  0.76844  1.0000
  S   S355      1.0  0.89002  0.70264  0.79661  1.0000
  Fe  Fe177     1.0  0.77733  0.86708  0.79011  1.0000
  S   S356      1.0  0.75773  0.89695  0.80573  1.0000
  S   S357      1.0  0.81171  0.84967  0.79860  1.0000
  Fe  Fe178     1.0  0.73868  0.86051  0.76617  1.0000
  S   S358      1.0  0.71512  0.88989  0.77951  1.0000
  C   C1241     1.0  0.71453  0.99215  0.82384  1.0000
  Fe  Fe179     1.0  0.74591  0.90867  0.77188  1.0000
  C   C1242     1.0  0.71383  0.94126  0.82215  1.0000
  Fe  Fe180     1.0  0.72841  0.87667  0.81241  1.0000
  S   S359      1.0  0.70614  0.87833  0.84590  1.0000
  H   H2139     1.0  0.74256  0.94371  0.83997  1.0000
  S   S360      1.0  0.74910  0.84569  0.79993  1.0000
  H   H2140     1.0  0.84303  0.69617  0.76588  1.0000
  Fe  Fe181     1.0  0.77153  0.71730  0.92298  1.0000
  S   S361      1.0  0.73720  0.72406  0.91021  1.0000
  Fe  Fe182     1.0  0.79395  0.74602  0.88211  1.0000
  S   S362      1.0  0.76129  0.75611  0.86714  1.0000
  S   S363      1.0  0.82361  0.76301  0.86307  1.0000
  Fe  Fe183     1.0  0.74445  0.75999  0.90226  1.0000
  S   S364      1.0  0.71924  0.78851  0.91507  1.0000
  Fe  Fe184     1.0  0.75715  0.71917  0.87595  1.0000
  S   S365      1.0  0.74563  0.70733  0.84617  1.0000
  S   S366      1.0  0.77754  0.75360  0.91652  1.0000
  S   S367      1.0  0.79096  0.70876  0.88933  1.0000
  Fe  Fe185     1.0  0.75889  0.59534  0.79371  1.0000
  S   S368      1.0  0.73544  0.57076  0.78985  1.0000
  S   S369      1.0  0.76373  0.60463  0.82731  1.0000
  H   H2141     1.0  0.72022  0.72916  0.96851  1.0000
  C   C1243     1.0  0.81047  0.82888  0.76198  1.0000
  H   H2142     1.0  0.93364  0.74668  0.80930  1.0000
  Fe  Fe186     1.0  0.58567  0.74619  0.75953  1.0000
  Fe  Fe187     1.0  0.76518  0.55481  0.76710  1.0000
  H   H2143     1.0  0.74959  0.50278  0.83564  1.0000
  S   S370      1.0  0.74914  0.62041  0.76427  1.0000
  S   S371      1.0  0.78935  0.57755  0.77353  1.0000
  Fe  Fe188     1.0  0.62905  0.76537  0.76486  1.0000
  S   S372      1.0  0.64039  0.79206  0.78113  1.0000
  Fe  Fe189     1.0  0.62726  0.71494  0.77578  1.0000
  S   S373      1.0  0.64169  0.68621  0.80015  1.0000
  H   H2144     1.0  0.77702  0.88603  0.86349  1.0000
  S   S374      1.0  0.60496  0.74483  0.78884  1.0000
  C   C1244     1.0  0.95115  0.73706  0.80760  1.0000
  C   C1245     1.0  0.83708  0.67364  0.79691  1.0000
  H   H2145     1.0  0.93235  0.75956  0.84345  1.0000
  H   H2146     1.0  0.97652  0.77938  0.82151  1.0000
  C   C1246     1.0  0.68002  0.79730  0.75111  1.0000
  C   C1247     1.0  0.50604  0.75011  0.75101  1.0000
  H   H2147     1.0  0.73263  0.99437  0.74604  1.0000
  C   C1248     1.0  0.65544  0.66341  0.78610  1.0000
  C   C1249     1.0  0.67403  0.64915  0.79451  1.0000
  C   C1250     1.0  0.68589  0.63162  0.78266  1.0000
  C   C1251     1.0  0.67326  0.81810  0.78316  1.0000
  H   H2148     1.0  0.89651  0.65148  0.74820  1.0000
  H   H2149     1.0  0.67951  0.65185  0.80996  1.0000
  H   H2150     1.0  0.70038  0.62079  0.78909  1.0000
  C   C1252     1.0  0.75195  0.67885  0.84080  1.0000
  C   C1253     1.0  0.76095  0.66148  0.85653  1.0000
  C   C1254     1.0  0.76465  0.63883  0.85211  1.0000
  C   C1255     1.0  0.75948  0.63339  0.83192  1.0000
  C   C1256     1.0  0.75085  0.65087  0.81602  1.0000
  C   C1257     1.0  0.74715  0.67349  0.82043  1.0000
  H   H2151     1.0  0.76472  0.66542  0.87227  1.0000
  H   H2152     1.0  0.77134  0.62544  0.86450  1.0000
  H   H2153     1.0  0.74665  0.64693  0.80052  1.0000
  H   H2154     1.0  0.74032  0.68681  0.80809  1.0000
  C   C1258     1.0  0.69377  0.79629  0.97720  1.0000
  H   H2155     1.0  0.80132  0.73471  0.95457  1.0000
  H   H2156     1.0  0.63021  0.75931  0.83022  1.0000
  H   H2157     1.0  0.80239  0.54889  0.86242  1.0000
  H   H2158     1.0  0.77802  0.79144  0.75695  1.0000
  H   H2159     1.0  0.93681  0.71424  0.79102  1.0000
  C   C1259     1.0  0.66635  0.80303  0.77098  1.0000
  C   C1260     1.0  0.70459  0.69084  0.75034  1.0000
  C   C1261     1.0  0.76108  0.76514  0.74926  1.0000
  H   H2160     1.0  0.80313  0.73292  0.78961  1.0000
  H   H2161     1.0  0.81440  0.69067  0.77380  1.0000
  S   S375      1.0  0.90851  0.75714  0.75492  1.0000
  C   C1262     1.0  0.70903  0.85297  0.86471  1.0000
  C   C1263     1.0  0.71657  0.83207  0.85682  1.0000
  C   C1264     1.0  0.71940  0.81205  0.87219  1.0000
  C   C1265     1.0  0.71471  0.81298  0.89544  1.0000
  C   C1266     1.0  0.70663  0.83380  0.90330  1.0000
  C   C1267     1.0  0.70379  0.85376  0.88796  1.0000
  H   H2162     1.0  0.71968  0.83132  0.83891  1.0000
  H   H2163     1.0  0.72503  0.79591  0.86610  1.0000
  H   H2164     1.0  0.70278  0.83454  0.92128  1.0000
  H   H2165     1.0  0.69772  0.86986  0.89413  1.0000
  H   H2166     1.0  0.94737  0.78847  0.76055  1.0000
  H   H2167     1.0  0.79373  0.76402  0.76065  1.0000
  H   H2168     1.0  0.66276  0.82257  0.79854  1.0000
  C   C1268     1.0  0.77222  0.97970  0.79268  1.0000
  C   C1269     1.0  0.76543  0.96215  0.78358  1.0000
  H   H2169     1.0  0.78321  0.97554  0.80579  1.0000
  H   H2170     1.0  0.77129  0.94463  0.78960  1.0000
  C   C1270     1.0  0.87181  0.71957  0.81510  1.0000
  C   C1271     1.0  0.85940  0.70917  0.83456  1.0000
  C   C1272     1.0  0.84447  0.72241  0.84929  1.0000
  C   C1273     1.0  0.84236  0.74611  0.84495  1.0000
  C   C1274     1.0  0.85523  0.75651  0.82581  1.0000
  C   C1275     1.0  0.86959  0.74328  0.81070  1.0000
  H   H2171     1.0  0.86122  0.69085  0.83821  1.0000
  H   H2172     1.0  0.83506  0.71424  0.86428  1.0000
  H   H2173     1.0  0.85375  0.77484  0.82240  1.0000
  H   H2174     1.0  0.87903  0.75151  0.79581  1.0000
  H   H2175     1.0  0.70771  0.79916  0.96314  1.0000
  H   H2176     1.0  0.73094  0.51701  0.76367  1.0000
  C   C1276     1.0  0.84530  0.81906  0.77923  1.0000
  C   C1277     1.0  0.82325  0.83123  0.77872  1.0000
  H   H2177     1.0  0.70433  0.97516  0.78917  1.0000
  H   H2178     1.0  0.70899  0.70832  0.74743  1.0000
  H   H2179     1.0  0.98310  0.78017  0.78263  1.0000
  H   H2180     1.0  0.85514  0.82063  0.79232  1.0000
  N   N90       1.0  0.96954  0.75221  0.80505  1.0000
  H   H2181     1.0  0.81598  0.78553  0.80648  1.0000
  H   H2182     1.0  0.52281  0.75068  0.81269  1.0000
  C   C1278     1.0  0.80736  0.77375  0.79941  1.0000
  H   H2183     1.0  0.71351  0.75890  0.95993  1.0000
  S   S376      1.0  0.77338  0.69847  0.95847  1.0000
  H   H2184     1.0  0.79118  0.86613  0.84597  1.0000
  C   C1279     1.0  0.74375  0.99022  0.75903  1.0000
  H   H2185     1.0  0.65595  0.96051  0.83256  1.0000
  N   N91       1.0  0.76737  0.77143  0.78883  1.0000
  C   C1280     1.0  0.74333  0.78420  0.79131  1.0000
  C   C1281     1.0  0.77621  0.77339  0.76392  1.0000
  C   C1282     1.0  0.78178  0.78327  0.80030  1.0000
  C   C1283     1.0  0.76680  0.74714  0.79994  1.0000
  C   C1284     1.0  0.73118  0.78511  0.81571  1.0000
  H   H2186     1.0  0.71625  0.94104  0.85911  1.0000
  H   H2187     1.0  0.85443  0.66426  0.79812  1.0000
  H   H2188     1.0  0.99574  0.72801  0.78930  1.0000
  H   H2189     1.0  0.74328  0.80204  0.78286  1.0000
  H   H2190     1.0  0.73176  0.77674  0.78273  1.0000
  H   H2191     1.0  0.50421  0.71741  0.82551  1.0000
  C   C1285     1.0  0.64844  0.65985  0.76611  1.0000
  H   H2192     1.0  0.78067  0.80162  0.79324  1.0000
  H   H2193     1.0  0.77532  0.78258  0.81858  1.0000
  H   H2194     1.0  0.76775  0.74572  0.81836  1.0000
  H   H2195     1.0  0.75018  0.74138  0.79906  1.0000
  H   H2196     1.0  0.73165  0.76812  0.82600  1.0000
  H   H2197     1.0  0.73851  0.79663  0.82422  1.0000
  H   H2198     1.0  0.71286  0.79228  0.81519  1.0000
  C   C1286     1.0  0.68308  0.95158  0.78437  1.0000
  C   C1287     1.0  0.67139  0.93801  0.85914  1.0000
  H   H2199     1.0  0.78286  0.72584  0.77363  1.0000
  H   H2200     1.0  0.67850  0.99088  0.83454  1.0000
  H   H2201     1.0  0.94684  0.80068  0.78600  1.0000
  H   H2202     1.0  0.79773  0.65520  0.78621  1.0000
  H   H2203     1.0  0.84134  0.63512  0.78125  1.0000
  C   C1288     1.0  0.75367  0.52048  0.83312  1.0000
  H   H2204     1.0  0.69656  0.97357  0.85243  1.0000
  N   N92       1.0  0.69264  0.95877  0.82279  1.0000
  H   H2205     1.0  0.70981  0.92488  0.81854  1.0000
  H   H2206     1.0  0.68870  0.69108  0.76274  1.0000
  H   H2207     1.0  0.80274  0.67516  0.74549  1.0000
  H   H2208     1.0  0.69833  0.83976  0.78465  1.0000
  H   H2209     1.0  0.72684  0.94658  0.80780  1.0000
  C   C1289     1.0  0.79474  0.73045  0.97218  1.0000
  H   H2210     1.0  0.74727  0.77899  0.74446  1.0000
  H   H2211     1.0  0.68255  0.68857  0.86656  1.0000
  S   S377      1.0  0.76836  0.88046  0.75528  1.0000
  C   C1290     1.0  0.50373  0.75338  0.81530  1.0000
  C   C1291     1.0  0.67178  0.94803  0.83404  1.0000
  C   C1292     1.0  0.78133  0.71287  0.97877  1.0000
  H   H2212     1.0  0.87756  0.63845  0.77048  1.0000
  C   C1293     1.0  0.65985  0.64192  0.75465  1.0000
  C   C1294     1.0  0.78554  0.72890  0.79053  1.0000
  H   H2213     1.0  0.68484  0.92315  0.86144  1.0000
  C   C1295     1.0  0.67879  0.62801  0.76272  1.0000
  C   C1296     1.0  0.87991  0.65458  0.75930  1.0000
  H   H2214     1.0  0.66315  0.67984  0.85040  1.0000
  H   H2215     1.0  0.81633  0.77258  0.78207  1.0000
  H   H2216     1.0  0.79534  0.63977  0.76371  1.0000
  H   H2217     1.0  0.94278  0.78411  0.84854  1.0000
  H   H2218     1.0  0.73112  0.98101  0.82154  1.0000
  H   H2219     1.0  0.83586  0.62927  0.75508  1.0000
  C   C1297     1.0  0.72450  0.74608  0.97008  1.0000
  C   C1298     1.0  0.75092  0.96733  0.76690  1.0000
  N   N93       1.0  0.83647  0.66498  0.75604  1.0000
  H   H2220     1.0  0.82425  0.66292  0.80633  1.0000
  S   S378      1.0  0.74029  0.94578  0.75647  1.0000
  S   S379      1.0  0.73175  0.83530  0.74484  1.0000
  C   C1299     1.0  0.70673  0.82271  0.75512  1.0000
  H   H2221     1.0  0.74272  0.74615  0.96253  1.0000
  H   H2222     1.0  0.83556  0.68853  0.80604  1.0000
  H   H2223     1.0  0.95159  0.72501  0.82362  1.0000
  C   C1300     1.0  0.68881  0.96831  0.79878  1.0000
  C   C1301     1.0  0.79493  0.50825  0.82725  1.0000
  H   H2224     1.0  0.68325  0.78426  0.97309  1.0000
  H   H2225     1.0  0.67258  0.95071  0.87009  1.0000
  H   H2226     1.0  0.69530  0.93571  0.78509  1.0000
  C   C1302     1.0  0.79649  0.50091  0.87585  1.0000
  H   H2227     1.0  0.66978  0.93356  0.82548  1.0000
  C   C1303     1.0  0.83248  0.68225  0.77235  1.0000
  H   H2228     1.0  0.68448  0.95946  0.76637  1.0000
  C   C1304     1.0  0.53705  0.71975  0.74437  1.0000
  H   H2229     1.0  0.72992  0.53054  0.86307  1.0000
  C   C1305     1.0  0.72638  0.93605  0.84334  1.0000
  C   C1306     1.0  0.83104  0.64187  0.76730  1.0000
  S   S380      1.0  0.77884  0.51711  0.76950  1.0000
  N   N94       1.0  0.67267  0.72729  0.83306  1.0000
  C   C1307     1.0  0.67209  0.74058  0.80971  1.0000
  C   C1308     1.0  0.64811  0.72592  0.84347  1.0000
  C   C1309     1.0  0.68531  0.70381  0.83045  1.0000
  C   C1310     1.0  0.68506  0.73962  0.84616  1.0000
  C   C1311     1.0  0.69531  0.74072  0.79421  1.0000
  C   C1312     1.0  0.68051  0.68454  0.84990  1.0000
  C   C1313     1.0  0.68536  0.73087  0.87152  1.0000
  H   H2230     1.0  0.66030  0.73409  0.80049  1.0000
  H   H2231     1.0  0.66516  0.75872  0.81071  1.0000
  H   H2232     1.0  0.64683  0.71532  0.86023  1.0000
  H   H2233     1.0  0.68128  0.69789  0.81517  1.0000
  H   H2234     1.0  0.70413  0.70408  0.82759  1.0000
  H   H2235     1.0  0.70340  0.73902  0.83879  1.0000
  H   H2236     1.0  0.67874  0.75817  0.84442  1.0000
  H   H2237     1.0  0.70787  0.74777  0.80174  1.0000
  H   H2238     1.0  0.70261  0.72361  0.78984  1.0000
  H   H2239     1.0  0.69255  0.75184  0.77808  1.0000
  H   H2240     1.0  0.61592  0.74557  0.85554  1.0000
  C   C1314     1.0  0.69338  0.82789  0.77529  1.0000
  C   C1315     1.0  0.80014  0.74229  0.98843  1.0000
  H   H2241     1.0  0.70000  0.71725  0.87412  1.0000
  H   H2242     1.0  0.66928  0.72486  0.88021  1.0000
  H   H2243     1.0  0.68735  0.74511  0.88035  1.0000
  N   N95       1.0  0.79532  0.82860  0.87971  1.0000
  C   C1316     1.0  0.80116  0.81690  0.90251  1.0000
  C   C1317     1.0  0.81751  0.82852  0.86369  1.0000
  C   C1318     1.0  0.77952  0.81496  0.87212  1.0000
  C   C1319     1.0  0.78345  0.85226  0.88243  1.0000
  C   C1320     1.0  0.78057  0.81362  0.92125  1.0000
  C   C1321     1.0  0.83507  0.84243  0.86901  1.0000
  C   C1322     1.0  0.77891  0.81700  0.84655  1.0000
  C   C1323     1.0  0.77786  0.86810  0.86075  1.0000
  H   H2244     1.0  0.81114  0.79974  0.90091  1.0000
  H   H2245     1.0  0.81232  0.82645  0.90938  1.0000
  H   H2246     1.0  0.81466  0.83506  0.84605  1.0000
  H   H2247     1.0  0.82616  0.81078  0.86292  1.0000
  H   H2248     1.0  0.78410  0.79646  0.87773  1.0000
  H   H2249     1.0  0.76159  0.81938  0.88014  1.0000
  H   H2250     1.0  0.76663  0.85154  0.89336  1.0000
  H   H2251     1.0  0.79301  0.86116  0.89188  1.0000
  H   H2252     1.0  0.76779  0.80453  0.91633  1.0000
  H   H2253     1.0  0.78699  0.80309  0.93639  1.0000
  H   H2254     1.0  0.77195  0.83001  0.92656  1.0000
  H   H2255     1.0  0.82786  0.86051  0.86950  1.0000
  H   H2256     1.0  0.84212  0.83504  0.88487  1.0000
  H   H2257     1.0  0.84981  0.84209  0.85522  1.0000
  H   H2258     1.0  0.77621  0.83471  0.83831  1.0000
  H   H2259     1.0  0.76442  0.80882  0.84388  1.0000
  H   H2260     1.0  0.79485  0.80795  0.83803  1.0000
  H   H2261     1.0  0.76103  0.86579  0.85641  1.0000
  H   H2262     1.0  0.63951  0.71717  0.83296  1.0000
  H   H2263     1.0  0.64034  0.75866  0.85714  1.0000
  C   C1324     1.0  0.63310  0.74886  0.84664  1.0000
  H   H2264     1.0  0.99219  0.72338  0.81926  1.0000
  H   H2265     1.0  0.66527  0.94768  0.78937  1.0000
  H   H2266     1.0  0.78446  0.71261  0.80202  1.0000
  C   C1325     1.0  0.97006  0.76867  0.78345  1.0000
  H   H2267     1.0  0.81175  0.50714  0.83323  1.0000
  H   H2268     1.0  0.75955  0.76840  0.98661  1.0000
  H   H2269     1.0  0.69297  0.66917  0.84673  1.0000
  C   C1326     1.0  0.73217  0.53457  0.84439  1.0000
  H   H2270     1.0  0.96721  0.70914  0.78814  1.0000
  H   H2271     1.0  0.71674  0.53059  0.83847  1.0000
  H   H2272     1.0  0.80432  0.62485  0.78938  1.0000
  H   H2273     1.0  0.73172  0.91745  0.84684  1.0000
  Fe  Fe190     1.0  0.72844  0.59461  0.75837  1.0000
  H   H2274     1.0  0.80988  0.75724  0.81044  1.0000
  H   H2275     1.0  0.74142  0.78337  0.96754  1.0000
  C   C1327     1.0  0.96671  0.76464  0.82535  1.0000
  H   H2276     1.0  0.76603  0.55618  0.84845  1.0000
  C   C1328     1.0  0.77969  0.54594  0.83809  1.0000
  H   H2277     1.0  0.75312  0.75009  0.75790  1.0000
  H   H2278     1.0  0.98367  0.71093  0.74400  1.0000
  H   H2279     1.0  0.73238  0.55309  0.83940  1.0000
  H   H2280     1.0  0.67475  0.98293  0.79847  1.0000
  C   C1329     1.0  0.94203  0.77366  0.83518  1.0000
  H   H2281     1.0  0.65478  0.93147  0.86522  1.0000
  C   C1330     1.0  0.52900  0.74064  0.75208  1.0000
  C   C1331     1.0  0.85481  0.80529  0.76245  1.0000
  C   C1332     1.0  0.80235  0.55113  0.84389  1.0000
  C   C1333     1.0  0.95237  0.72282  0.78830  1.0000
  S   S381      1.0  0.54685  0.75540  0.76334  1.0000
  H   H2282     1.0  0.93230  0.78463  0.82248  1.0000
  H   H2283     1.0  0.55469  0.71229  0.74519  1.0000
  H   H2284     1.0  0.77852  0.55346  0.82017  1.0000
  S   S382      1.0  0.69413  0.60705  0.74703  1.0000
  C   C1334     1.0  0.99233  0.73697  0.80438  1.0000
  C   C1335     1.0  0.80563  0.64064  0.77720  1.0000
  H   H2285     1.0  0.80370  0.56937  0.83794  1.0000
  H   H2286     1.0  0.88183  0.66799  0.76917  1.0000
  H   H2287     1.0  0.75503  0.52607  0.81453  1.0000
  C   C1336     1.0  0.73951  0.49970  0.76529  1.0000
  H   H2288     1.0  0.93195  0.77692  0.78577  1.0000
  H   H2289     1.0  0.76562  0.52506  0.87701  1.0000
  H   H2290     1.0  0.87200  0.79634  0.76256  1.0000
  H   H2291     1.0  0.63404  0.67070  0.75963  1.0000
  Fe  Fe191     1.0  0.89970  0.72162  0.76225  1.0000
  S   S383      1.0  0.65271  0.73523  0.75369  1.0000
  H   H2292     1.0  0.95266  0.73342  0.77154  1.0000
  H   H2293     1.0  0.71779  0.67863  0.75856  1.0000
  N   N96       1.0  0.77598  0.52135  0.84162  1.0000
  S   S384      1.0  0.60592  0.71414  0.74862  1.0000
  C   C1337     1.0  0.69464  0.97863  0.83438  1.0000
  C   C1338     1.0  0.77405  0.51172  0.86640  1.0000
  C   C1339     1.0  0.74385  0.78101  0.98560  1.0000
  H   H2294     1.0  0.80994  0.51213  0.87221  1.0000
  H   H2295     1.0  0.76345  0.80934  0.97678  1.0000
  H   H2296     1.0  0.81775  0.54147  0.83533  1.0000
  H   H2297     1.0  0.76263  0.49825  0.87037  1.0000
  H   H2298     1.0  0.81044  0.75593  0.98309  1.0000
  H   H2299     1.0  0.68309  0.81315  0.97757  1.0000
  H   H2300     1.0  0.79738  0.51735  0.80967  1.0000
  H   H2301     1.0  0.79323  0.83754  0.76187  1.0000
  H   H2302     1.0  0.79275  0.49699  0.89454  1.0000
  H   H2303     1.0  0.97406  0.75340  0.83974  1.0000
  Fe  Fe192     1.0  0.77780  0.60101  0.74361  1.0000
  C   C1340     1.0  0.84235  0.80403  0.74504  1.0000
  C   C1341     1.0  0.82010  0.81558  0.74503  1.0000
  C   C1342     1.0  0.86086  0.66273  0.74427  1.0000
  H   H2304     1.0  0.73487  0.81728  0.98988  1.0000
  C   C1343     1.0  0.74976  0.80368  0.99023  1.0000
  C   C1344     1.0  0.70019  0.80717  0.74319  1.0000
