data_image0
_chemical_formula_structural       FeS2FeSFeSFeS3H3SCSFeS2HSFeSFeS3FeSFeS2FeSFeS3C2HC6H4C2H3C6H4CHCHC6H4C6H4CNC3H6CHCHCHCHCH3CNH4C4H7CNCH2CHCH3NC7H8C2H3C2H4CH13CH3C3HNH4FeH7CHCH2C2H3CHNC8H24CH6NSH3CHC2HCH2CHC3H3SFeS3FeHFeS2FeS2FeS2FeSFeS4FeS2FeSHFe2S3C2H6C6H4C2H3C6H4C6H4CH2C6H4NH2C4NC6SCH14CH5NH2C2H3CHCH2CH10CHCH4CHC2H2CNC8H20CH3CHCHNHSH3C2H2CHC2H2FeC2H10CHCHSH3C3HCH2C2H3SFeS3FeSFeS2CHFeS2FeSFeS2FeS2FeS2Fe2S4HC7H4C6H4CH3C2HC6H2CH2CFeH2C7H9CH3CHCH3CNH2CHSHC3H2CH8CNH4C2NHC2HC2HCH3CH2CH3CH4CH3NC8H21SH3CH6NC7H7CH4CHCH5CFeCHC2SCH2CH10CH14CHCHCH10SCFeH2FeS2FeSHSCHSFeS2FeSFeS3CHSHFeSFeS2FeSFeS3C5H2CHC2HC3NC6H6C6HNH2C6H4C6H4CH2SNC3HC3H6SH2CH4CH2CHCNC8H10CH3CH8CH3CHCH5SH6CHCH4C2H4CH5C2HFeHNHCHSCH2CHCH11CH3CH6SH2CHCH3CHC2HCHC2HCH4SFeS2FeSFeS3H2SFeS2FeSFeSFeS3FeSFeS2FeSFeHS2CSHCH2C6H4C3H2C6H5C6H5C8H11CHCHCH4C2HCH2CH4NCHCHCH8C4HC3HC2NHCH7C2HCH5CH3NH7C2H2CHNHCHSCH6CH3CFeNH10CHCH4CH2C6HCNH3C2H2C2HCH3C2HC2H3CHCH5C2H3NH5FeS2FeSFeHFeS3FeSFeS2FeSFeS5FeS2FeHFeS3H7C10H4C6H4CH3C7H4SH3C6H8NH2CSH3CH3SH3NHCHC3HCNHNCH2C2HCH3C3H6CHCH4C2H5C5HCH2CH2FeH3CH2NC8H10CHCH17C2HCH3C2H4C2H4CH5FeH6CHCHSFeS2FeS2Fe2S4FeS2FeHFeSHSHFeS2FeSFeS4HNH3C6H4CSC6H6CHC6H4CH3C2H3C6H10CH3CHC4H2CHC2H6CSHNH6CH8CHCSHNC7H9CH5C3HC2NC4HCHCH4CHNH2C2H4CHCH2NC2HC2HN2H2CH14CHCHCH4CH9CHCH2SH2C3H2SHCH2CH3C2H2CH4C2HCH10CH5C2HFeCHC2H2CH4CNHC2H5CHCH2SHFeS2HSFeSFeS3FeS2FeCSHFeSFeSHFeS2FeS2HFeS3HC4H3CH2CHC6H6C7H4C6H3CHCHCHC6H4NC4HCHCHCH5SCH4C2H3CNC5HCH4CH3FeH13CH2CH3CH2C2H3CHCH5SH5CH6CHCNC3H6CH6CH3FeH2C2HNC2H2CHC2NH3NCHSHCH6SC2HSHC2HCH2C2HCH2CH3CH2CHCH3CHSFeS2FeS2FeSFeS2FeS2FeS2FeSFeS4FeS2FeSFeSHSH2FeC2H2C2HNH2C6H4C6H4C6H4C6H4C3H4CH2C3H6NHC2NH2CHC3H3CSH3C4H7CH7C2H2CH2CH2C2SC2HNH7CH3CHCH6CH3NCHCHCHCH3CHCHCHCH4CH7C2H6C2H2CH14CH3FeS2FeS2HFeS3HSFeSFeSFeS2FeSFeS3FeS2FeSFeHFeS4HC6H4C6H6NH2C6H4C6H10CNC4HC3H10CH10C2H4C2NHCH4CH3C4HCH3NC8H13CH4CHCH3C3H3CH2CHNH3C2H2CHCHNC2HC2H11C3H5NH4FeC2H4CH5CHC4H6C3H14CH3CHCSCSFeS2FeSFeS2FeS2FeS2FeSFeS2HFeS2FeSFeSFeS3C2H3C3H3C7H3C6H4SH4C6H4SC6H5CH7C2H5C2NH9C2HCH2C2HCHSH2CH2CH5C4HCH5CNC5HC2H13CH8C2HCH4CH6CH2C3HNH4NC3H5CH2C3H2CH2CH5C4H2C2H6NCHCFeH2CH4C2NCFeS2FeSFeSFeS3HSHFeS3FeCFeSCS2FeS2FeSFeS2CH2C6H9C6H8C6H4CHC8H4CH2CHC2NHCNC6H7CH3SH4C4HCH3C4H2CH2CHCH4C2H2SCH4CHCSHSH2C3H3CNHCNHCH2C2H4C2HCH2CHCFeNH2C2H2CH3NH3FeH4C2HCH19CH6SH2C2H4CHSH2CHCH2CNH2CHSHSHFeS2FeS2FeSFeS2FeHFeS2FeS3HFeS2FeS2Fe2S3H5C3H2C6H4C6H4C8H4NHC2NC6H3CHSCH9CH8NC6H15CHFeHCH3C3H3C2H3NH6CH2CH5C3H4CHCHC2SH2CH3CH5CHC2HC2HC2H4C2NHCH2CHCH8CH4CH3C2H2FeS2CSFeSFeS3H2SFeS2FeSH2FeS3FeSFeS2FeSFeS3HSCHCH3C6H4C6H4CH4C6H8CH3C6H10C2HNC2NC4HSHCHCH5C2H4CH3NC5H8CH4CH5C2HCH4CH4CH2CH3CH3CHCH3CH2C2HCFeHCH5C3H4CH8CH2C2NHCHC3FeC2H4CHCH3CH4CNCH3CHFeHCFeS2FeSHSCFeS2NFeSFeSHSH2FeS2FeS2Fe2S3CHSCHCH2C3H2CHC7H4C6H4CH2C6H4C6H7C6FeH4CH2SHNC3HCH2NH4CFeH2NC6H14FeSHCH4CH3CHSH5SCHCHCH2CH4SH2CH5CH4CH3SCH3NH5CHC2HC2HCHC3H4CSH2C4H2CSC2H3CH2CHCH2CH4CH7CH2CHNHCH2CH5C2H4FeSFeS2FeS4HSFeS2FeSFeS2HFeSHFeS2FeSFeS2HCH5C6H9C6H4C6H5C6H4C3H7CH5C2HNC8H21CH2CH4NH11CHCH4CHCH3C2HSCH2CSH2CFeH5N2CH3C2H2C5HC4HCSHCHCH7CHNC2NC8H10SCHCSCHCSCH3CH7
_chemical_formula_sum              "Fe192 S384 H2304 C1344 N96"
_cell_length_a       53.3514
_cell_length_b       53.9229
_cell_length_c       53.6591
_cell_angle_alpha    89.5957
_cell_angle_beta     89.6749
_cell_angle_gamma    89.6715

_space_group_name_H-M_alt    "P 1"
_space_group_IT_number       1

loop_
  _space_group_symop_operation_xyz
  'x, y, z'

loop_
  _atom_site_type_symbol
  _atom_site_label
  _atom_site_symmetry_multiplicity
  _atom_site_fract_x
  _atom_site_fract_y
  _atom_site_fract_z
  _atom_site_occupancy
  Fe  Fe1       1.0  0.37396  0.20697  0.08743  1.0000
  S   S1        1.0  0.33639  0.19748  0.10436  1.0000
  S   S2        1.0  0.40779  0.22279  0.10793  1.0000
  Fe  Fe2       1.0  0.36073  0.18304  0.03751  1.0000
  S   S3        1.0  0.32265  0.17191  0.05080  1.0000
  Fe  Fe3       1.0  0.32050  0.20989  0.06736  1.0000
  S   S4        1.0  0.28303  0.22981  0.06396  1.0000
  Fe  Fe4       1.0  0.34153  0.16016  0.08636  1.0000
  S   S5        1.0  0.32725  0.12398  0.10319  1.0000
  S   S6        1.0  0.35759  0.22217  0.05174  1.0000
  S   S7        1.0  0.38010  0.16855  0.07176  1.0000
  H   H1        1.0  0.42750  0.18098  0.03340  1.0000
  H   H2        1.0  0.33405  0.09972  0.17379  1.0000
  H   H3        1.0  0.41894  0.09696  0.42849  1.0000
  S   S8        1.0  0.05786  0.17613  0.37162  1.0000
  C   C1        1.0  0.07283  0.21220  0.42461  1.0000
  S   S9        1.0  0.39245  0.04543  0.16374  1.0000
  Fe  Fe5       1.0  0.35414  0.15734  0.45942  1.0000
  S   S10       1.0  0.35121  0.19551  0.44322  1.0000
  S   S11       1.0  0.34004  0.12306  0.43929  1.0000
  H   H4        1.0  0.31035  0.11329  0.49091  1.0000
  S   S12       1.0  0.38061  0.21614  0.49260  1.0000
  Fe  Fe6       1.0  0.34066  0.20744  0.48206  1.0000
  S   S13       1.0  0.30345  0.22815  0.48547  1.0000
  Fe  Fe7       1.0  0.39136  0.20014  0.45512  1.0000
  S   S14       1.0  0.42010  0.21775  0.42891  1.0000
  S   S15       1.0  0.34164  0.16862  0.49776  1.0000
  S   S16       1.0  0.39503  0.16107  0.46889  1.0000
  Fe  Fe8       1.0  0.19217  0.04049  0.34680  1.0000
  S   S17       1.0  0.17996  0.05190  0.30864  1.0000
  Fe  Fe9       1.0  0.21734  0.09077  0.35652  1.0000
  S   S18       1.0  0.20600  0.10538  0.31866  1.0000
  S   S19       1.0  0.23637  0.11982  0.38103  1.0000
  Fe  Fe10      1.0  0.16856  0.08800  0.32627  1.0000
  S   S20       1.0  0.13085  0.10292  0.31302  1.0000
  Fe  Fe11      1.0  0.21835  0.06815  0.30447  1.0000
  S   S21       1.0  0.23790  0.06522  0.26686  1.0000
  S   S22       1.0  0.17861  0.07573  0.36506  1.0000
  S   S23       1.0  0.23195  0.05432  0.34168  1.0000
  C   C2        1.0  0.02474  0.25860  0.47725  1.0000
  C   C3        1.0  0.25098  0.25659  0.03450  1.0000
  H   H5        1.0  0.07507  0.14000  0.24520  1.0000
  C   C4        1.0  0.31264  0.12260  0.42068  1.0000
  C   C5        1.0  0.29961  0.14437  0.41466  1.0000
  C   C6        1.0  0.27679  0.14317  0.40163  1.0000
  C   C7        1.0  0.26682  0.12027  0.39426  1.0000
  C   C8        1.0  0.28039  0.09856  0.39938  1.0000
  C   C9        1.0  0.30318  0.09975  0.41256  1.0000
  H   H6        1.0  0.30685  0.16209  0.42044  1.0000
  H   H7        1.0  0.26651  0.16007  0.39762  1.0000
  H   H8        1.0  0.27292  0.08081  0.39391  1.0000
  H   H9        1.0  0.31315  0.08279  0.41707  1.0000
  C   C10       1.0  0.26174  0.04311  0.26179  1.0000
  C   C11       1.0  0.08942  0.22653  0.22736  1.0000
  H   H10       1.0  0.23219  0.16689  0.50602  1.0000
  H   H11       1.0  0.27835  0.09419  0.18745  1.0000
  H   H12       1.0  0.25911  0.04609  0.22180  1.0000
  C   C12       1.0  0.07775  0.15470  0.35618  1.0000
  C   C13       1.0  0.10281  0.15203  0.36374  1.0000
  C   C14       1.0  0.11925  0.13575  0.35116  1.0000
  C   C15       1.0  0.11070  0.12209  0.33086  1.0000
  C   C16       1.0  0.08556  0.12451  0.32361  1.0000
  C   C17       1.0  0.06915  0.14072  0.33616  1.0000
  H   H13       1.0  0.10962  0.16273  0.37925  1.0000
  H   H14       1.0  0.13860  0.13403  0.35689  1.0000
  H   H15       1.0  0.07873  0.11363  0.30824  1.0000
  H   H16       1.0  0.04983  0.14226  0.33041  1.0000
  C   C18       1.0  0.29650  0.25083  0.50818  1.0000
  H   H17       1.0  0.43022  0.20690  0.18451  1.0000
  C   C19       1.0  0.41235  0.25386  0.11755  1.0000
  H   H18       1.0  0.34536  0.03326  0.23370  1.0000
  C   C20       1.0  0.48910  0.17906  0.39434  1.0000
  C   C21       1.0  0.47419  0.16650  0.41199  1.0000
  C   C22       1.0  0.45344  0.17829  0.42327  1.0000
  C   C23       1.0  0.44702  0.20263  0.41657  1.0000
  C   C24       1.0  0.46219  0.21530  0.39923  1.0000
  C   C25       1.0  0.48321  0.20367  0.38827  1.0000
  H   H19       1.0  0.47867  0.14749  0.41690  1.0000
  H   H20       1.0  0.44229  0.16851  0.43699  1.0000
  H   H21       1.0  0.45751  0.23420  0.39406  1.0000
  H   H22       1.0  0.49457  0.21361  0.37479  1.0000
  C   C26       1.0  0.34623  0.10182  0.11858  1.0000
  C   C27       1.0  0.33570  0.07895  0.12558  1.0000
  C   C28       1.0  0.34974  0.06131  0.13909  1.0000
  C   C29       1.0  0.37451  0.06639  0.14563  1.0000
  C   C30       1.0  0.38516  0.08908  0.13830  1.0000
  C   C31       1.0  0.37110  0.10675  0.12481  1.0000
  H   H23       1.0  0.31647  0.07502  0.12076  1.0000
  H   H24       1.0  0.34131  0.04396  0.14466  1.0000
  H   H25       1.0  0.40432  0.09313  0.14330  1.0000
  H   H26       1.0  0.37938  0.12430  0.11952  1.0000
  C   C32       1.0  0.36522  0.03683  0.07363  1.0000
  N   N1        1.0  0.44221  0.26320  0.21331  1.0000
  C   C33       1.0  0.08226  0.19990  0.30682  1.0000
  C   C34       1.0  0.27161  0.25914  0.51086  1.0000
  C   C35       1.0  0.02298  0.20960  0.45031  1.0000
  H   H27       1.0  0.35857  0.04604  0.09090  1.0000
  H   H28       1.0  0.26886  0.03592  0.30062  1.0000
  H   H29       1.0  0.34356  0.12629  0.22356  1.0000
  H   H30       1.0  0.45377  0.17659  0.05323  1.0000
  H   H31       1.0  0.20264  0.13799  0.49949  1.0000
  H   H32       1.0  0.09690  0.17596  0.23602  1.0000
  C   C36       1.0  0.28696  0.01893  0.23252  1.0000
  H   H33       1.0  0.02647  0.24576  0.49346  1.0000
  C   C37       1.0  0.34963  0.10663  0.22115  1.0000
  H   H34       1.0  0.50925  0.18176  0.49638  1.0000
  C   C38       1.0  0.42833  0.24603  0.05107  1.0000
  H   H35       1.0  0.46547  0.24850  0.26195  1.0000
  C   C39       1.0  0.45415  0.21228  0.03399  1.0000
  H   H36       1.0  0.24059  0.10812  0.49695  1.0000
  C   C40       1.0  0.23571  0.12066  0.48113  1.0000
  H   H37       1.0  0.28115  0.09887  0.49750  1.0000
  H   H38       1.0  0.43564  0.24218  0.27547  1.0000
  H   H39       1.0  0.37864  0.08777  0.19823  1.0000
  C   C41       1.0  0.43634  0.26113  0.12531  1.0000
  N   N2        1.0  0.07121  0.19573  0.26019  1.0000
  H   H40       1.0  0.44228  0.24412  0.06637  1.0000
  H   H41       1.0  0.42142  0.20954  0.21692  1.0000
  H   H42       1.0  0.47658  0.24241  0.22121  1.0000
  H   H43       1.0  0.03058  0.25554  0.30975  1.0000
  C   C42       1.0  0.06204  0.19604  0.28683  1.0000
  C   C43       1.0  0.31914  0.10157  0.18820  1.0000
  C   C44       1.0  0.25019  0.15638  0.50519  1.0000
  C   C45       1.0  0.20729  0.12574  0.48362  1.0000
  H   H44       1.0  0.41167  0.23545  0.05751  1.0000
  H   H45       1.0  0.28554  0.17780  0.49738  1.0000
  H   H46       1.0  0.23631  0.24766  0.04520  1.0000
  H   H47       1.0  0.41281  0.25867  0.24116  1.0000
  H   H48       1.0  0.02524  0.18321  0.41881  1.0000
  H   H49       1.0  0.07303  0.19976  0.32539  1.0000
  H   H50       1.0  0.38865  0.11551  0.21302  1.0000
  C   C46       1.0  0.27615  0.25066  0.03941  1.0000
  N   N3        1.0  0.32782  0.09106  0.21291  1.0000
  C   C47       1.0  0.43998  0.19065  0.04663  1.0000
  H   H51       1.0  0.04107  0.21825  0.40074  1.0000
  H   H52       1.0  0.06763  0.19304  0.43011  1.0000
  C   C48       1.0  0.09085  0.17596  0.25587  1.0000
  H   H53       1.0  0.27885  0.12236  0.45811  1.0000
  C   C49       1.0  0.43376  0.21717  0.20204  1.0000
  H   H54       1.0  0.34418  0.06153  0.19111  1.0000
  H   H55       1.0  0.10847  0.18000  0.26607  1.0000
  H   H56       1.0  0.28989  0.08305  0.22524  1.0000
  N   N4        1.0  0.25259  0.14311  0.48060  1.0000
  C   C50       1.0  0.27875  0.13356  0.47544  1.0000
  C   C51       1.0  0.37259  0.10672  0.20349  1.0000
  C   C52       1.0  0.24423  0.15950  0.45927  1.0000
  C   C53       1.0  0.31116  0.08553  0.25825  1.0000
  C   C54       1.0  0.30640  0.09391  0.23119  1.0000
  C   C55       1.0  0.03493  0.02493  0.32931  1.0000
  C   C56       1.0  0.25891  0.18370  0.45480  1.0000
  H   H57       1.0  0.35663  0.10099  0.23970  1.0000
  H   H58       1.0  0.44607  0.22392  0.24974  1.0000
  H   H59       1.0  0.05602  0.18705  0.22384  1.0000
  H   H60       1.0  0.07237  0.22793  0.21569  1.0000
  H   H61       1.0  0.42914  0.19676  0.06317  1.0000
  H   H62       1.0  0.24449  0.14885  0.44153  1.0000
  H   H63       1.0  0.22452  0.16572  0.46196  1.0000
  H   H64       1.0  0.35570  0.03970  0.03362  1.0000
  C   C57       1.0  0.08352  0.14893  0.26171  1.0000
  C   C58       1.0  0.50303  0.17191  0.47949  1.0000
  H   H65       1.0  0.23835  0.10939  0.46390  1.0000
  H   H66       1.0  0.30000  0.11362  0.23183  1.0000
  H   H67       1.0  0.05231  0.17870  0.29207  1.0000
  C   C59       1.0  0.27381  0.03124  0.28165  1.0000
  C   C60       1.0  0.42820  0.24492  0.19754  1.0000
  H   H68       1.0  0.27926  0.18083  0.45195  1.0000
  H   H69       1.0  0.09852  0.24502  0.22638  1.0000
  H   H70       1.0  0.25189  0.19264  0.43746  1.0000
  H   H71       1.0  0.10057  0.13825  0.26717  1.0000
  C   C61       1.0  0.02828  0.17491  0.25050  1.0000
  H   H72       1.0  0.04253  0.04282  0.33606  1.0000
  H   H73       1.0  0.51755  0.20131  0.42979  1.0000
  H   H74       1.0  0.40913  0.03193  0.10140  1.0000
  H   H75       1.0  0.45354  0.21310  0.20655  1.0000
  H   H76       1.0  0.31529  0.12186  0.18965  1.0000
  H   H77       1.0  0.41842  0.12992  0.42975  1.0000
  H   H78       1.0  0.19755  0.10785  0.48702  1.0000
  H   H79       1.0  0.31449  0.25756  0.02896  1.0000
  H   H80       1.0  0.08558  0.21037  0.40826  1.0000
  H   H81       1.0  0.31390  0.06517  0.25958  1.0000
  H   H82       1.0  0.43938  0.11416  0.40850  1.0000
  H   H83       1.0  0.51504  0.21480  0.45977  1.0000
  H   H84       1.0  0.31985  0.02909  0.09634  1.0000
  C   C62       1.0  0.27123  0.17481  0.51196  1.0000
  H   H85       1.0  0.08377  0.22098  0.43960  1.0000
  H   H86       1.0  0.36903  0.11782  0.18637  1.0000
  H   H87       1.0  0.07073  0.14692  0.27778  1.0000
  C   C63       1.0  0.33471  0.06411  0.20943  1.0000
  C   C64       1.0  0.04935  0.19286  0.24263  1.0000
  C   C65       1.0  0.35235  0.05210  0.22896  1.0000
  H   H88       1.0  0.43058  0.24898  0.17727  1.0000
  N   N5        1.0  0.43862  0.23491  0.02734  1.0000
  H   H89       1.0  0.50204  0.25458  0.18678  1.0000
  H   H90       1.0  0.49350  0.15460  0.48559  1.0000
  H   H91       1.0  0.25562  0.19719  0.46998  1.0000
  H   H92       1.0  0.37136  0.04929  0.22085  1.0000
  Fe  Fe12      1.0  0.38227  0.17644  0.50582  1.0000
  H   H93       1.0  0.46941  0.21717  0.04710  1.0000
  H   H94       1.0  0.49339  0.24622  0.02798  1.0000
  H   H95       1.0  0.04212  0.02254  0.31006  1.0000
  H   H96       1.0  0.31754  0.05259  0.20852  1.0000
  H   H97       1.0  0.29410  0.08968  0.26952  1.0000
  H   H98       1.0  0.05719  0.24542  0.40881  1.0000
  H   H99       1.0  0.35412  0.06198  0.24677  1.0000
  C   C66       1.0  0.34887  0.04643  0.05193  1.0000
  H   H100      1.0  0.29228  0.14854  0.47148  1.0000
  C   C67       1.0  0.29562  0.08963  0.17680  1.0000
  H   H101      1.0  0.19936  0.13342  0.46608  1.0000
  H   H102      1.0  0.29287  0.09737  0.15774  1.0000
  C   C68       1.0  0.29047  0.11714  0.49600  1.0000
  C   C69       1.0  0.08316  0.22059  0.25492  1.0000
  H   H103      1.0  0.32679  0.09548  0.26714  1.0000
  H   H104      1.0  0.29763  0.06926  0.17484  1.0000
  H   H105      1.0  0.34986  0.06702  0.05136  1.0000
  C   C70       1.0  0.26854  0.03709  0.23723  1.0000
  H   H106      1.0  0.03959  0.21103  0.23989  1.0000
  N   N6        1.0  0.39785  0.13642  0.38044  1.0000
  C   C71       1.0  0.37930  0.13131  0.36003  1.0000
  C   C72       1.0  0.42288  0.14222  0.36867  1.0000
  C   C73       1.0  0.38968  0.15830  0.39591  1.0000
  C   C74       1.0  0.39947  0.11384  0.39713  1.0000
  C   C75       1.0  0.35181  0.12796  0.36849  1.0000
  C   C76       1.0  0.43555  0.12089  0.35417  1.0000
  C   C77       1.0  0.38451  0.18261  0.38139  1.0000
  C   C78       1.0  0.42037  0.11407  0.41692  1.0000
  H   H107      1.0  0.37972  0.14618  0.34555  1.0000
  H   H108      1.0  0.38443  0.11400  0.35001  1.0000
  H   H109      1.0  0.43635  0.14874  0.38286  1.0000
  H   H110      1.0  0.42119  0.15789  0.35520  1.0000
  H   H111      1.0  0.37270  0.15386  0.40717  1.0000
  H   H112      1.0  0.40417  0.16296  0.40985  1.0000
  H   H113      1.0  0.38164  0.11118  0.40760  1.0000
  H   H114      1.0  0.40189  0.09665  0.38599  1.0000
  H   H115      1.0  0.33999  0.12448  0.35192  1.0000
  H   H116      1.0  0.34958  0.11167  0.38101  1.0000
  H   H117      1.0  0.34402  0.14470  0.37766  1.0000
  H   H118      1.0  0.43896  0.10423  0.36588  1.0000
  H   H119      1.0  0.42467  0.11573  0.33747  1.0000
  H   H120      1.0  0.45421  0.12726  0.34746  1.0000
  H   H121      1.0  0.37827  0.19704  0.39475  1.0000
  H   H122      1.0  0.36934  0.18070  0.36755  1.0000
  H   H123      1.0  0.40171  0.18996  0.37238  1.0000
  H   H124      1.0  0.25699  0.25069  0.49997  1.0000
  H   H125      1.0  0.26654  0.17523  0.03305  1.0000
  H   H126      1.0  0.04757  0.21081  0.28929  1.0000
  H   H127      1.0  0.07078  0.23584  0.26155  1.0000
  H   H128      1.0  0.10106  0.22257  0.26523  1.0000
  H   H129      1.0  0.05851  0.24131  0.46478  1.0000
  H   H130      1.0  0.51671  0.15884  0.44407  1.0000
  C   C79       1.0  0.04979  0.22782  0.41680  1.0000
  H   H131      1.0  0.09158  0.21813  0.30509  1.0000
  H   H132      1.0  0.40762  0.24701  0.20039  1.0000
  H   H133      1.0  0.10277  0.21300  0.21919  1.0000
  H   H134      1.0  0.09632  0.18464  0.30690  1.0000
  H   H135      1.0  0.32883  0.04168  0.05440  1.0000
  H   H136      1.0  0.38427  0.04448  0.07026  1.0000
  N   N7        1.0  0.03067  0.23304  0.43695  1.0000
  S   S24       1.0  0.51473  0.16328  0.38034  1.0000
  H   H137      1.0  0.03893  0.20147  0.46093  1.0000
  H   H138      1.0  0.45168  0.24793  0.12466  1.0000
  H   H139      1.0  0.48868  0.18328  0.46964  1.0000
  C   C80       1.0  0.44601  0.24285  0.25746  1.0000
  H   H140      1.0  0.03505  0.15615  0.25548  1.0000
  C   C81       1.0  0.29505  0.26194  0.02525  1.0000
  C   C82       1.0  0.04210  0.25027  0.45565  1.0000
  H   H141      1.0  0.40507  0.21357  0.02108  1.0000
  C   C83       1.0  0.47028  0.25964  0.21177  1.0000
  H   H142      1.0  0.29057  0.12633  0.51438  1.0000
  H   H143      1.0  0.47340  0.24357  0.17397  1.0000
  C   C84       1.0  0.03239  0.26164  0.29057  1.0000
  H   H144      1.0  0.19890  0.02016  0.26541  1.0000
  C   C85       1.0  0.43335  0.26208  0.24015  1.0000
  C   C86       1.0  0.48164  0.25854  0.18530  1.0000
  C   C87       1.0  0.47895  0.26109  0.02698  1.0000
  H   H145      1.0  0.26300  0.19333  0.51612  1.0000
  H   H146      1.0  0.24994  0.19898  0.01700  1.0000
  H   H147      1.0  0.46360  0.20460  0.01710  1.0000
  S   S25       1.0  0.37516  0.17720  0.99810  1.0000
  Fe  Fe13      1.0  0.45985  0.16643  0.70448  1.0000
  S   S26       1.0  0.44489  0.20534  0.70213  1.0000
  S   S27       1.0  0.43407  0.13458  0.71562  1.0000
  S   S28       1.0  0.49966  0.22238  0.67959  1.0000
  Fe  Fe14      1.0  0.48229  0.21659  0.71749  1.0000
  H   H148      1.0  0.24846  0.02255  0.85932  1.0000
  Fe  Fe15      1.0  0.46352  0.20707  0.66448  1.0000
  S   S29       1.0  0.44486  0.22447  0.63062  1.0000
  S   S30       1.0  0.47590  0.16742  0.66551  1.0000
  Fe  Fe16      1.0  0.31327  0.06863  0.83944  1.0000
  S   S31       1.0  0.35140  0.05576  0.82685  1.0000
  S   S32       1.0  0.27672  0.06529  0.81822  1.0000
  Fe  Fe17      1.0  0.33260  0.08760  0.88976  1.0000
  S   S33       1.0  0.37200  0.07574  0.88108  1.0000
  S   S34       1.0  0.31869  0.10202  0.92720  1.0000
  Fe  Fe18      1.0  0.36515  0.09171  0.84264  1.0000
  S   S35       1.0  0.39595  0.11671  0.82717  1.0000
  Fe  Fe19      1.0  0.35508  0.04088  0.86607  1.0000
  S   S36       1.0  0.32660  0.10599  0.85250  1.0000
  S   S37       1.0  0.31608  0.05138  0.87749  1.0000
  S   S38       1.0  0.16419  0.04136  0.66028  1.0000
  S   S39       1.0  0.40200  0.16149  0.54044  1.0000
  Fe  Fe20      1.0  0.08328  0.15910  0.70225  1.0000
  S   S40       1.0  0.07035  0.16378  0.66300  1.0000
  S   S41       1.0  0.10208  0.12449  0.71816  1.0000
  Fe  Fe21      1.0  0.06350  0.21074  0.71704  1.0000
  S   S42       1.0  0.04880  0.21889  0.67841  1.0000
  H   H149      1.0  0.42966  0.06163  0.88628  1.0000
  Fe  Fe22      1.0  0.03489  0.17925  0.67992  1.0000
  Fe  Fe23      1.0  0.08551  0.20277  0.66493  1.0000
  S   S43       1.0  0.11072  0.21528  0.63256  1.0000
  S   S44       1.0  0.04703  0.17242  0.71941  1.0000
  S   S45       1.0  0.10093  0.19675  0.70335  1.0000
  C   C88       1.0  0.12466  0.24497  0.62838  1.0000
  C   C89       1.0  0.46214  0.08149  0.79085  1.0000
  H   H150      1.0  0.42529  0.21556  0.99472  1.0000
  H   H151      1.0  0.34328  0.21070  0.95746  1.0000
  H   H152      1.0  0.46202  0.24340  0.99537  1.0000
  H   H153      1.0  0.41013  0.26028  0.98828  1.0000
  H   H154      1.0  0.24372  0.18059  0.96645  1.0000
  H   H155      1.0  0.47717  0.20377  0.53536  1.0000
  C   C90       1.0  0.14570  0.06338  0.67663  1.0000
  C   C91       1.0  0.13315  0.08211  0.66314  1.0000
  C   C92       1.0  0.11916  0.10060  0.67550  1.0000
  C   C93       1.0  0.11788  0.10073  0.70154  1.0000
  C   C94       1.0  0.13006  0.08178  0.71500  1.0000
  C   C95       1.0  0.14385  0.06315  0.70263  1.0000
  H   H156      1.0  0.13437  0.08232  0.64300  1.0000
  H   H157      1.0  0.10958  0.11483  0.66489  1.0000
  H   H158      1.0  0.12915  0.08167  0.73515  1.0000
  H   H159      1.0  0.15343  0.04889  0.71325  1.0000
  C   C96       1.0  0.27066  0.04305  0.79498  1.0000
  C   C97       1.0  0.24696  0.04279  0.78368  1.0000
  H   H160      1.0  0.41107  0.06743  0.84512  1.0000
  H   H161      1.0  0.23305  0.05652  0.78890  1.0000
  H   H162      1.0  0.44288  0.09128  0.82415  1.0000
  C   C98       1.0  0.41416  0.17960  0.56494  1.0000
  C   C99       1.0  0.41114  0.20537  0.56571  1.0000
  C   C100      1.0  0.42074  0.21889  0.58589  1.0000
  C   C101      1.0  0.43336  0.20681  0.60547  1.0000
  C   C102      1.0  0.43654  0.18106  0.60459  1.0000
  C   C103      1.0  0.42707  0.16758  0.58437  1.0000
  H   H163      1.0  0.40123  0.21485  0.55087  1.0000
  H   H164      1.0  0.41818  0.23881  0.58639  1.0000
  H   H165      1.0  0.44616  0.17148  0.61948  1.0000
  H   H166      1.0  0.42956  0.14766  0.58386  1.0000
  C   C104      1.0  0.42300  0.13031  0.74659  1.0000
  C   C105      1.0  0.40465  0.11226  0.75158  1.0000
  C   C106      1.0  0.39549  0.10836  0.77600  1.0000
  C   C107      1.0  0.40509  0.12211  0.79577  1.0000
  C   C108      1.0  0.42350  0.14005  0.79076  1.0000
  C   C109      1.0  0.43226  0.14431  0.76630  1.0000
  H   H167      1.0  0.39745  0.10126  0.73647  1.0000
  H   H168      1.0  0.38123  0.09458  0.77956  1.0000
  H   H169      1.0  0.43105  0.15076  0.80593  1.0000
  H   H170      1.0  0.44639  0.15824  0.76276  1.0000
  C   C110      1.0  0.50836  0.18877  0.60228  1.0000
  H   H171      1.0  0.05599  0.07056  0.66109  1.0000
  H   H172      1.0  0.26081  0.18592  0.93870  1.0000
  C   C111      1.0  0.36080  0.15478  0.97901  1.0000
  C   C112      1.0  0.34147  0.13977  0.98812  1.0000
  C   C113      1.0  0.32915  0.12334  0.97211  1.0000
  C   C114      1.0  0.33628  0.12139  0.94695  1.0000
  C   C115      1.0  0.35605  0.13593  0.93795  1.0000
  C   C116      1.0  0.36817  0.15264  0.95392  1.0000
  H   H173      1.0  0.28103  0.16863  0.52915  1.0000
  H   H174      1.0  0.31396  0.11207  0.97923  1.0000
  H   H175      1.0  0.36164  0.13464  0.91858  1.0000
  H   H176      1.0  0.38315  0.16412  0.94671  1.0000
  N   N8        1.0  0.03601  0.08314  0.69438  1.0000
  H   H177      1.0  0.38633  0.23733  0.98772  1.0000
  H   H178      1.0  0.14522  0.23378  0.59558  1.0000
  C   C117      1.0  0.45546  0.25232  0.01296  1.0000
  C   C118      1.0  0.27016  0.15156  0.95661  1.0000
  C   C119      1.0  0.45438  0.07514  0.81789  1.0000
  C   C120      1.0  0.28486  0.18617  0.99850  1.0000
  N   N9        1.0  0.17015  0.16181  0.67419  1.0000
  C   C121      1.0  0.17486  0.13481  0.68061  1.0000
  C   C122      1.0  0.14406  0.16327  0.66356  1.0000
  C   C123      1.0  0.17067  0.17610  0.69827  1.0000
  C   C124      1.0  0.19011  0.17053  0.65621  1.0000
  C   C125      1.0  0.20096  0.12801  0.69103  1.0000
  C   C126      1.0  0.14066  0.15240  0.63723  1.0000
  S   S46       1.0  0.06699  0.23740  0.74957  1.0000
  C   C127      1.0  0.18504  0.19503  0.64166  1.0000
  H   H179      1.0  0.16086  0.12818  0.69460  1.0000
  H   H180      1.0  0.17249  0.12284  0.66405  1.0000
  H   H181      1.0  0.13696  0.18247  0.66275  1.0000
  H   H182      1.0  0.13045  0.15385  0.67623  1.0000
  H   H183      1.0  0.15540  0.16955  0.71099  1.0000
  H   H184      1.0  0.18843  0.17276  0.70843  1.0000
  H   H185      1.0  0.20816  0.17299  0.66620  1.0000
  H   H186      1.0  0.19398  0.15594  0.64205  1.0000
  H   H187      1.0  0.20418  0.13577  0.70979  1.0000
  H   H188      1.0  0.20199  0.10751  0.69331  1.0000
  H   H189      1.0  0.21638  0.13324  0.67814  1.0000
  H   H190      1.0  0.08467  0.05575  0.68905  1.0000
  H   H191      1.0  0.12079  0.15505  0.63164  1.0000
  H   H192      1.0  0.47381  0.09850  0.79096  1.0000
  C   C128      1.0  0.05298  0.06897  0.71203  1.0000
  H   H193      1.0  0.29620  0.19964  0.00921  1.0000
  H   H194      1.0  0.06663  0.09879  0.67317  1.0000
  H   H195      1.0  0.19926  0.20918  0.64644  1.0000
  H   H196      1.0  0.16640  0.20349  0.64475  1.0000
  H   H197      1.0  0.18683  0.19182  0.62129  1.0000
  N   N10       1.0  0.28100  0.19534  0.97215  1.0000
  H   H198      1.0  0.48080  0.22785  0.55743  1.0000
  H   H199      1.0  0.26654  0.02343  0.88672  1.0000
  C   C129      1.0  0.26289  0.17924  0.95828  1.0000
  C   C130      1.0  0.27036  0.22124  0.97319  1.0000
  H   H200      1.0  0.03093  0.09819  0.74600  1.0000
  H   H201      1.0  0.02675  0.25626  0.84980  1.0000
  H   H202      1.0  0.50290  0.23461  0.62347  1.0000
  C   C131      1.0  0.26606  0.23442  0.94790  1.0000
  H   H203      1.0  0.48526  0.23925  0.59535  1.0000
  C   C132      1.0  0.44213  0.06113  0.86962  1.0000
  H   H204      1.0  0.41719  0.03578  0.85222  1.0000
  H   H205      1.0  0.15209  0.21119  0.68560  1.0000
  C   C133      1.0  0.04930  0.08789  0.66992  1.0000
  H   H206      1.0  0.25501  0.14138  0.94701  1.0000
  H   H207      1.0  0.25179  0.22133  0.98270  1.0000
  H   H208      1.0  0.28186  0.23339  0.98511  1.0000
  H   H209      1.0  0.22253  0.02451  0.75759  1.0000
  H   H210      1.0  0.18586  0.21285  0.68861  1.0000
  H   H211      1.0  0.06649  0.08175  0.72110  1.0000
  H   H212      1.0  0.47174  0.07568  0.82930  1.0000
  H   H213      1.0  0.46157  0.02435  0.78347  1.0000
  H   H214      1.0  0.31919  0.23333  0.96249  1.0000
  H   H215      1.0  0.28741  0.14880  0.94531  1.0000
  C   C134      1.0  0.50516  0.16069  0.59816  1.0000
  H   H216      1.0  0.51278  0.18061  0.55045  1.0000
  C   C135      1.0  0.03398  0.10177  0.64986  1.0000
  H   H217      1.0  0.27971  0.22903  0.93332  1.0000
  H   H218      1.0  0.45726  0.04762  0.87384  1.0000
  H   H219      1.0  0.47316  0.03362  0.83844  1.0000
  H   H220      1.0  0.07877  0.03784  0.71635  1.0000
  C   C136      1.0  0.47233  0.02149  0.80079  1.0000
  H   H221      1.0  0.15212  0.16213  0.62301  1.0000
  C   C137      1.0  0.50376  0.24178  0.60404  1.0000
  C   C138      1.0  0.51130  0.20011  0.55699  1.0000
  H   H222      1.0  0.42906  0.04820  0.78343  1.0000
  H   H223      1.0  0.04508  0.10242  0.63229  1.0000
  C   C139      1.0  0.42643  0.05349  0.84685  1.0000
  N   N11       1.0  0.37748  0.16778  0.66702  1.0000
  C   C140      1.0  0.37988  0.17345  0.69446  1.0000
  C   C141      1.0  0.39134  0.18779  0.65289  1.0000
  C   C142      1.0  0.39045  0.14324  0.66252  1.0000
  C   C143      1.0  0.35002  0.16661  0.66047  1.0000
  C   C144      1.0  0.36696  0.15524  0.71275  1.0000
  C   C145      1.0  0.38195  0.21457  0.65717  1.0000
  C   C146      1.0  0.38966  0.13309  0.63582  1.0000
  C   C147      1.0  0.34297  0.17139  0.63285  1.0000
  H   H224      1.0  0.39997  0.17442  0.69985  1.0000
  H   H225      1.0  0.37173  0.19193  0.69886  1.0000
  H   H226      1.0  0.39109  0.18477  0.63254  1.0000
  H   H227      1.0  0.41164  0.18735  0.65773  1.0000
  H   H228      1.0  0.41058  0.14437  0.66791  1.0000
  H   H229      1.0  0.38227  0.12831  0.67427  1.0000
  H   H230      1.0  0.34216  0.14828  0.66607  1.0000
  H   H231      1.0  0.33937  0.18072  0.67139  1.0000
  H   H232      1.0  0.37608  0.13677  0.71295  1.0000
  H   H233      1.0  0.36885  0.16248  0.73199  1.0000
  H   H234      1.0  0.34664  0.15334  0.70908  1.0000
  H   H235      1.0  0.38926  0.22676  0.64203  1.0000
  H   H236      1.0  0.36126  0.21615  0.65707  1.0000
  H   H237      1.0  0.38934  0.22202  0.67490  1.0000
  H   H238      1.0  0.32917  0.21279  0.98753  1.0000
  H   H239      1.0  0.39751  0.14613  0.62190  1.0000
  H   H240      1.0  0.37040  0.12758  0.63061  1.0000
  H   H241      1.0  0.32667  0.15963  0.62809  1.0000
  H   H242      1.0  0.35770  0.16711  0.61897  1.0000
  H   H243      1.0  0.33641  0.19081  0.63011  1.0000
  C   C148      1.0  0.48361  0.20774  0.55457  1.0000
  H   H244      1.0  0.44995  0.08005  0.86746  1.0000
  H   H245      1.0  0.03032  0.12130  0.65504  1.0000
  H   H246      1.0  0.47132  0.19696  0.56722  1.0000
  C   C149      1.0  0.32523  0.21419  0.96730  1.0000
  H   H247      1.0  0.33449  0.25559  0.52045  1.0000
  C   C150      1.0  0.42096  0.04737  0.80246  1.0000
  H   H248      1.0  0.44562  0.08608  0.77920  1.0000
  N   N12       1.0  0.44040  0.05116  0.82238  1.0000
  H   H249      1.0  0.27255  0.14274  0.97517  1.0000
  S   S47       1.0  0.49630  0.17735  0.72186  1.0000
  H   H250      1.0  0.24911  0.14268  0.52081  1.0000
  H   H251      1.0  0.48918  0.19649  0.60463  1.0000
  H   H252      1.0  0.02540  0.04489  0.66123  1.0000
  C   C151      1.0  0.03062  0.10813  0.70582  1.0000
  C   C152      1.0  0.40016  0.24650  0.00000  1.0000
  H   H253      1.0  0.16618  0.21220  0.71542  1.0000
  H   H254      1.0  0.47338  0.06681  0.78186  1.0000
  C   C153      1.0  0.30600  0.19475  0.95886  1.0000
  H   H255      1.0  0.39268  0.02225  0.78850  1.0000
  C   C154      1.0  0.28852  0.02524  0.78811  1.0000
  C   C155      1.0  0.14116  0.24888  0.60816  1.0000
  H   H256      1.0  0.30685  0.02534  0.79662  1.0000
  H   H257      1.0  0.33586  0.14091  0.00745  1.0000
  Fe  Fe24      1.0  0.51101  0.18234  0.68269  1.0000
  C   C156      1.0  0.06940  0.04809  0.70091  1.0000
  C   C157      1.0  0.24097  0.02472  0.76589  1.0000
  H   H258      1.0  0.04813  0.11921  0.70688  1.0000
  H   H259      1.0  0.24685  0.23079  0.94096  1.0000
  H   H260      1.0  0.29596  0.16863  0.99880  1.0000
  H   H261      1.0  0.31518  0.17636  0.96133  1.0000
  H   H262      1.0  0.49318  0.15305  0.61334  1.0000
  H   H263      1.0  0.14454  0.13225  0.63647  1.0000
  H   H264      1.0  0.40140  0.11603  0.63494  1.0000
  H   H265      1.0  0.49062  0.03113  0.79911  1.0000
  H   H266      1.0  0.05857  0.03443  0.69024  1.0000
  H   H267      1.0  0.50703  0.26206  0.60527  1.0000
  C   C158      1.0  0.16849  0.20459  0.69635  1.0000
  H   H268      1.0  0.30385  0.19654  0.93833  1.0000
  C   C159      1.0  0.45830  0.02954  0.82464  1.0000
  H   H269      1.0  0.40697  0.06280  0.80285  1.0000
  S   S48       1.0  0.48263  0.24068  0.75200  1.0000
  H   H270      1.0  0.49551  0.15661  0.58043  1.0000
  H   H271      1.0  0.04193  0.06055  0.72757  1.0000
  H   H272      1.0  0.39556  0.02072  0.82146  1.0000
  C   C160      1.0  0.04191  0.25481  0.76222  1.0000
  C   C161      1.0  0.31525  0.26178  0.52240  1.0000
  C   C162      1.0  0.40646  0.02271  0.80394  1.0000
  H   H273      1.0  0.38905  0.25566  0.01487  1.0000
  C   C163      1.0  0.41767  0.22638  0.01075  1.0000
  H   H274      1.0  0.26835  0.25475  0.95029  1.0000
  H   H275      1.0  0.50036  0.25890  0.79848  1.0000
  C   C164      1.0  0.26094  0.18172  0.01417  1.0000
  C   C165      1.0  0.50587  0.26262  0.75880  1.0000
  H   H276      1.0  0.10692  0.26202  0.66007  1.0000
  H   H277      1.0  0.51748  0.19108  0.62079  1.0000
  H   H278      1.0  0.24895  0.16706  0.00627  1.0000
  S   S49       1.0  0.17652  0.37883  0.04449  1.0000
  Fe  Fe25      1.0  0.45580  0.34818  0.17207  1.0000
  S   S50       1.0  0.44315  0.35795  0.21093  1.0000
  S   S51       1.0  0.42516  0.33304  0.14671  1.0000
  S   S52       1.0  0.49984  0.37709  0.22169  1.0000
  Fe  Fe26      1.0  0.47956  0.34081  0.22336  1.0000
  S   S53       1.0  0.47818  0.31542  0.25732  1.0000
  Fe  Fe27      1.0  0.46433  0.39345  0.20574  1.0000
  S   S54       1.0  0.45161  0.43010  0.22278  1.0000
  S   S55       1.0  0.47459  0.38532  0.16590  1.0000
  C   C166      1.0  0.30074  0.30313  0.46951  1.0000
  H   H279      1.0  0.26072  0.30349  0.05878  1.0000
  Fe  Fe28      1.0  0.17552  0.46193  0.34528  1.0000
  S   S56       1.0  0.21435  0.44619  0.34986  1.0000
  S   S57       1.0  0.14196  0.44012  0.33130  1.0000
  Fe  Fe29      1.0  0.21428  0.46547  0.38705  1.0000
  S   S58       1.0  0.23123  0.45088  0.42326  1.0000
  Fe  Fe30      1.0  0.22734  0.48284  0.33403  1.0000
  S   S59       1.0  0.25298  0.48398  0.30016  1.0000
  S   S60       1.0  0.17435  0.47844  0.38384  1.0000
  Fe  Fe31      1.0  0.09518  0.34231  0.16265  1.0000
  S   S61       1.0  0.08269  0.38193  0.16530  1.0000
  S   S62       1.0  0.10893  0.32495  0.12648  1.0000
  Fe  Fe32      1.0  0.07805  0.33061  0.21637  1.0000
  S   S63       1.0  0.06362  0.36939  0.22231  1.0000
  S   S64       1.0  0.07969  0.30493  0.25012  1.0000
  Fe  Fe33      1.0  0.04816  0.36609  0.18336  1.0000
  Fe  Fe34      1.0  0.09942  0.38145  0.20388  1.0000
  S   S65       1.0  0.12575  0.41170  0.21737  1.0000
  S   S66       1.0  0.05964  0.32629  0.17905  1.0000
  S   S67       1.0  0.11480  0.34276  0.19965  1.0000
  S   S68       1.0  0.18389  0.37033  0.49693  1.0000
  H   H280      1.0  0.24892  0.31431  0.11355  1.0000
  C   C167      1.0  0.03726  0.27763  0.24088  1.0000
  C   C168      1.0  0.19681  0.39330  0.47696  1.0000
  C   C169      1.0  0.18465  0.39927  0.45451  1.0000
  C   C170      1.0  0.19471  0.41710  0.43795  1.0000
  C   C171      1.0  0.21715  0.42901  0.44368  1.0000
  C   C172      1.0  0.22924  0.42310  0.46617  1.0000
  C   C173      1.0  0.21918  0.40532  0.48271  1.0000
  H   H281      1.0  0.16736  0.39003  0.44988  1.0000
  H   H282      1.0  0.18523  0.42146  0.42068  1.0000
  H   H283      1.0  0.24670  0.43211  0.47064  1.0000
  H   H284      1.0  0.22888  0.40073  0.49974  1.0000
  C   C174      1.0  0.13725  0.43369  0.29930  1.0000
  C   C175      1.0  0.11473  0.42258  0.29188  1.0000
  C   C176      1.0  0.11091  0.41581  0.26688  1.0000
  C   C177      1.0  0.12941  0.42053  0.24892  1.0000
  C   C178      1.0  0.15155  0.43247  0.25619  1.0000
  C   C179      1.0  0.15555  0.43889  0.28128  1.0000
  H   H285      1.0  0.10028  0.41887  0.30561  1.0000
  H   H286      1.0  0.09362  0.40703  0.26143  1.0000
  H   H287      1.0  0.16589  0.43637  0.24238  1.0000
  H   H288      1.0  0.17292  0.44758  0.28666  1.0000
  C   C180      1.0  0.05414  0.28606  0.25868  1.0000
  H   H289      1.0  0.23457  0.28839  0.10082  1.0000
  H   H290      1.0  0.18949  0.44902  0.49966  1.0000
  H   H291      1.0  0.45645  0.49849  0.18231  1.0000
  C   C181      1.0  0.20504  0.33629  0.13046  1.0000
  C   C182      1.0  0.19983  0.32331  0.10545  1.0000
  H   H292      1.0  0.40717  0.31659  0.19803  1.0000
  C   C183      1.0  0.43247  0.45306  0.20869  1.0000
  C   C184      1.0  0.42279  0.45059  0.18466  1.0000
  C   C185      1.0  0.40743  0.46945  0.17448  1.0000
  C   C186      1.0  0.40177  0.49093  0.18815  1.0000
  C   C187      1.0  0.41154  0.49334  0.21213  1.0000
  C   C188      1.0  0.42661  0.47443  0.22238  1.0000
  H   H293      1.0  0.42709  0.43415  0.17396  1.0000
  H   H294      1.0  0.39995  0.46736  0.15592  1.0000
  C   C189      1.0  0.43648  0.28894  0.20359  1.0000
  H   H295      1.0  0.43386  0.47637  0.24106  1.0000
  H   H296      1.0  0.09333  0.39756  0.04370  1.0000
  C   C190      1.0  0.42097  0.30254  0.13515  1.0000
  Fe  Fe35      1.0  0.50883  0.36680  0.18224  1.0000
  H   H297      1.0  0.22097  0.32778  0.14061  1.0000
  H   H298      1.0  0.02659  0.27352  0.40233  1.0000
  C   C191      1.0  0.39711  0.29541  0.12686  1.0000
  C   C192      1.0  0.15597  0.36446  0.06617  1.0000
  C   C193      1.0  0.15122  0.37608  0.08911  1.0000
  C   C194      1.0  0.13648  0.36444  0.10762  1.0000
  C   C195      1.0  0.12665  0.34087  0.10346  1.0000
  C   C196      1.0  0.13118  0.32933  0.08043  1.0000
  C   C197      1.0  0.14552  0.34116  0.06175  1.0000
  H   H299      1.0  0.15921  0.39410  0.09269  1.0000
  H   H300      1.0  0.13311  0.37354  0.12524  1.0000
  H   H301      1.0  0.12356  0.31112  0.07701  1.0000
  H   H302      1.0  0.14890  0.33205  0.04414  1.0000
  H   H303      1.0  0.19448  0.30393  0.11029  1.0000
  H   H304      1.0  0.07878  0.33997  0.08015  1.0000
  H   H305      1.0  0.41695  0.28176  0.03186  1.0000
  H   H306      1.0  0.03948  0.28326  0.22163  1.0000
  H   H307      1.0  0.26974  0.50596  0.25428  1.0000
  C   C198      1.0  0.42068  0.27379  0.05046  1.0000
  H   H308      1.0  0.22432  0.31387  0.04702  1.0000
  H   H309      1.0  0.02625  0.40340  0.11669  1.0000
  H   H310      1.0  0.06653  0.49096  0.33099  1.0000
  C   C199      1.0  0.31927  0.45298  0.29220  1.0000
  H   H311      1.0  0.45930  0.29095  0.13921  1.0000
  C   C200      1.0  0.22944  0.35028  0.08341  1.0000
  H   H312      1.0  0.30268  0.34549  0.50992  1.0000
  H   H313      1.0  0.32258  0.50509  0.21413  1.0000
  H   H314      1.0  0.23009  0.44559  0.51404  1.0000
  C   C201      1.0  0.50191  0.28293  0.28899  1.0000
  N   N13       1.0  0.04723  0.36550  0.07798  1.0000
  H   H315      1.0  0.20809  0.35650  0.12807  1.0000
  H   H316      1.0  0.35004  0.43415  0.22351  1.0000
  C   C202      1.0  0.04720  0.31987  0.09369  1.0000
  H   H317      1.0  0.18266  0.33215  0.09777  1.0000
  S   S69       1.0  0.23082  0.50098  0.37146  1.0000
  H   H318      1.0  0.47451  0.26766  0.04603  1.0000
  C   C203      1.0  0.21002  0.31474  0.06203  1.0000
  C   C204      1.0  0.11479  0.49635  0.27698  1.0000
  C   C205      1.0  0.08742  0.38434  0.05856  1.0000
  H   H319      1.0  0.32053  0.30124  0.46319  1.0000
  H   H320      1.0  0.32990  0.46375  0.30609  1.0000
  C   C206      1.0  0.05313  0.37532  0.10353  1.0000
  H   H321      1.0  0.19593  0.32829  0.05494  1.0000
  H   H322      1.0  0.08595  0.50114  0.36577  1.0000
  H   H323      1.0  0.05057  0.32414  0.11357  1.0000
  H   H324      1.0  0.06491  0.28417  0.29733  1.0000
  H   H325      1.0  0.51394  0.49114  0.18603  1.0000
  H   H326      1.0  0.48566  0.28537  0.30091  1.0000
  H   H327      1.0  0.32538  0.42841  0.26138  1.0000
  H   H328      1.0  0.06569  0.49496  0.29771  1.0000
  C   C207      1.0  0.05841  0.33976  0.07608  1.0000
  N   N14       1.0  0.34876  0.46035  0.25411  1.0000
  H   H329      1.0  0.11363  0.47720  0.26954  1.0000
  H   H330      1.0  0.29950  0.36647  0.48356  1.0000
  H   H331      1.0  0.05858  0.41005  0.12312  1.0000
  H   H332      1.0  0.13707  0.48944  0.30950  1.0000
  C   C208      1.0  0.33661  0.44218  0.27191  1.0000
  C   C209      1.0  0.19708  0.28925  0.06295  1.0000
  N   N15       1.0  0.22073  0.32377  0.08628  1.0000
  H   H333      1.0  0.31524  0.46163  0.23153  1.0000
  C   C210      1.0  0.24153  0.30718  0.09568  1.0000
  C   C211      1.0  0.04564  0.40240  0.10902  1.0000
  H   H334      1.0  0.44710  0.30301  0.21426  1.0000
  C   C212      1.0  0.38341  0.42756  0.24509  1.0000
  C   C213      1.0  0.49410  0.48559  0.18834  1.0000
  H   H335      1.0  0.35102  0.43136  0.28229  1.0000
  C   C214      1.0  0.28954  0.35760  0.49930  1.0000
  H   H336      1.0  0.02693  0.31693  0.09049  1.0000
  H   H337      1.0  0.23530  0.48384  0.49604  1.0000
  H   H338      1.0  0.34390  0.48219  0.20280  1.0000
  C   C215      1.0  0.40861  0.29690  0.20412  1.0000
  H   H339      1.0  0.33590  0.49925  0.28566  1.0000
  H   H340      1.0  0.27368  0.28565  0.08291  1.0000
  C   C216      1.0  0.05874  0.38094  0.05737  1.0000
  H   H341      1.0  0.31701  0.48585  0.25301  1.0000
  H   H342      1.0  0.43486  0.28518  0.06016  1.0000
  H   H343      1.0  0.31048  0.43743  0.30269  1.0000
  C   C217      1.0  0.10563  0.49586  0.36159  1.0000
  H   H344      1.0  0.38130  0.48395  0.25424  1.0000
  H   H345      1.0  0.22943  0.35675  0.04289  1.0000
  H   H346      1.0  0.05679  0.30190  0.09007  1.0000
  H   H347      1.0  0.49066  0.47915  0.20775  1.0000
  C   C218      1.0  0.35583  0.50035  0.28023  1.0000
  H   H348      1.0  0.04742  0.41507  0.09289  1.0000
  H   H349      1.0  0.07330  0.37274  0.10822  1.0000
  H   H350      1.0  0.38179  0.30864  0.12747  1.0000
  N   N16       1.0  0.13846  0.35045  0.30214  1.0000
  C   C219      1.0  0.13822  0.36632  0.32526  1.0000
  C   C220      1.0  0.11183  0.34886  0.29298  1.0000
  C   C221      1.0  0.15485  0.36300  0.28271  1.0000
  C   C222      1.0  0.14891  0.32535  0.30929  1.0000
  C   C223      1.0  0.16412  0.37392  0.33542  1.0000
  C   C224      1.0  0.09267  0.33708  0.31107  1.0000
  C   C225      1.0  0.14872  0.35847  0.25501  1.0000
  C   C226      1.0  0.14805  0.30508  0.28928  1.0000
  H   H351      1.0  0.12751  0.38378  0.32197  1.0000
  H   H352      1.0  0.12842  0.35683  0.34097  1.0000
  H   H353      1.0  0.11070  0.33814  0.27551  1.0000
  H   H354      1.0  0.10466  0.36768  0.28804  1.0000
  H   H355      1.0  0.15378  0.38354  0.28459  1.0000
  H   H356      1.0  0.17496  0.35815  0.28552  1.0000
  H   H357      1.0  0.16888  0.32681  0.31486  1.0000
  H   H358      1.0  0.13891  0.31793  0.32598  1.0000
  H   H359      1.0  0.17561  0.35771  0.34112  1.0000
  H   H360      1.0  0.17476  0.38565  0.32203  1.0000
  H   H361      1.0  0.16119  0.38544  0.35231  1.0000
  H   H362      1.0  0.08969  0.34844  0.32798  1.0000
  H   H363      1.0  0.07427  0.33608  0.30151  1.0000
  H   H364      1.0  0.09783  0.31779  0.31623  1.0000
  H   H365      1.0  0.27882  0.31868  0.08247  1.0000
  H   H366      1.0  0.20862  0.29908  0.47711  1.0000
  H   H367      1.0  0.49117  0.46918  0.17629  1.0000
  H   H368      1.0  0.12883  0.30172  0.28236  1.0000
  H   H369      1.0  0.15468  0.28730  0.29760  1.0000
  H   H370      1.0  0.16088  0.30925  0.27357  1.0000
  H   H371      1.0  0.04538  0.51267  0.31719  1.0000
  S   S70       1.0  0.49099  0.32893  0.18494  1.0000
  H   H372      1.0  0.24890  0.37702  0.05991  1.0000
  H   H373      1.0  0.37294  0.45777  0.22149  1.0000
  H   H374      1.0  0.40026  0.29579  0.22304  1.0000
  C   C227      1.0  0.36688  0.47696  0.26755  1.0000
  H   H375      1.0  0.16328  0.36738  0.24312  1.0000
  H   H376      1.0  0.03001  0.27758  0.48317  1.0000
  H   H377      1.0  0.21314  0.36330  0.08472  1.0000
  H   H378      1.0  0.24913  0.35512  0.49721  1.0000
  H   H379      1.0  0.37740  0.46624  0.28194  1.0000
  H   H380      1.0  0.13939  0.51248  0.34743  1.0000
  N   N17       1.0  0.26341  0.33366  0.46623  1.0000
  C   C228      1.0  0.24579  0.31180  0.46627  1.0000
  C   C229      1.0  0.28805  0.32480  0.45545  1.0000
  C   C230      1.0  0.25231  0.35322  0.44927  1.0000
  C   C231      1.0  0.05172  0.27795  0.28352  1.0000
  C   C232      1.0  0.21876  0.31695  0.47539  1.0000
  C   C233      1.0  0.26554  0.34314  0.49256  1.0000
  C   C234      1.0  0.26797  0.37674  0.44486  1.0000
  H   H381      1.0  0.05440  0.37268  0.03889  1.0000
  H   H382      1.0  0.24454  0.30360  0.44730  1.0000
  H   H383      1.0  0.25292  0.29672  0.47856  1.0000
  H   H384      1.0  0.30208  0.33977  0.45421  1.0000
  H   H385      1.0  0.28550  0.31876  0.43580  1.0000
  H   H386      1.0  0.24824  0.34525  0.43062  1.0000
  H   H387      1.0  0.23402  0.35997  0.45669  1.0000
  C   C235      1.0  0.50327  0.29574  0.26614  1.0000
  H   H388      1.0  0.20946  0.27457  0.07065  1.0000
  H   H389      1.0  0.05674  0.33262  0.05670  1.0000
  H   H390      1.0  0.21830  0.32557  0.49408  1.0000
  H   H391      1.0  0.20801  0.32858  0.46202  1.0000
  C   C236      1.0  0.11741  0.49523  0.30562  1.0000
  H   H392      1.0  0.13160  0.50497  0.26830  1.0000
  C   C237      1.0  0.26484  0.30396  0.07888  1.0000
  H   H393      1.0  0.09762  0.36678  0.05483  1.0000
  H   H394      1.0  0.28644  0.37286  0.43618  1.0000
  H   H395      1.0  0.27010  0.38747  0.46223  1.0000
  H   H396      1.0  0.30359  0.46408  0.28450  1.0000
  H   H397      1.0  0.19208  0.28378  0.04369  1.0000
  C   C238      1.0  0.44068  0.28539  0.13385  1.0000
  Fe  Fe36      1.0  0.19076  0.51263  0.36620  1.0000
  C   C239      1.0  0.47563  0.50634  0.18035  1.0000
  H   H398      1.0  0.26469  0.32737  0.50604  1.0000
  C   C240      1.0  0.27332  0.50900  0.29412  1.0000
  C   C241      1.0  0.32869  0.47462  0.24034  1.0000
  S   S71       1.0  0.18842  0.49731  0.32740  1.0000
  C   C242      1.0  0.21656  0.49269  0.49743  1.0000
  H   H399      1.0  0.10664  0.47731  0.35295  1.0000
  H   H400      1.0  0.44269  0.29123  0.18401  1.0000
  C   C243      1.0  0.24262  0.35745  0.05874  1.0000
  H   H401      1.0  0.40314  0.27618  0.06149  1.0000
  H   H402      1.0  0.25935  0.34608  0.05454  1.0000
  H   H403      1.0  0.05057  0.39984  0.05645  1.0000
  H   H404      1.0  0.11518  0.49412  0.37988  1.0000
  H   H405      1.0  0.24226  0.35533  0.09885  1.0000
  H   H406      1.0  0.47860  0.50909  0.15998  1.0000
  H   H407      1.0  0.36638  0.50400  0.29760  1.0000
  H   H408      1.0  0.39723  0.43715  0.25694  1.0000
  H   H409      1.0  0.30098  0.30602  0.48990  1.0000
  H   H410      1.0  0.25774  0.38908  0.43164  1.0000
  C   C244      1.0  0.36308  0.44540  0.23494  1.0000
  H   H411      1.0  0.05029  0.26701  0.44653  1.0000
  H   H412      1.0  0.13064  0.36729  0.24986  1.0000
  H   H413      1.0  0.10585  0.47948  0.31231  1.0000
  H   H414      1.0  0.18822  0.33430  0.14262  1.0000
  H   H415      1.0  0.43617  0.28028  0.24950  1.0000
  H   H416      1.0  0.15949  0.41951  0.51503  1.0000
  H   H417      1.0  0.09356  0.39220  0.07654  1.0000
  H   H418      1.0  0.17921  0.29000  0.07361  1.0000
  H   H419      1.0  0.37523  0.41153  0.25524  1.0000
  H   H420      1.0  0.14795  0.33872  0.24991  1.0000
  H   H421      1.0  0.28441  0.37270  0.51239  1.0000
  H   H422      1.0  0.35379  0.50420  0.22602  1.0000
  H   H423      1.0  0.21900  0.51248  0.49210  1.0000
  H   H424      1.0  0.04345  0.36417  0.11815  1.0000
  C   C245      1.0  0.33810  0.49246  0.21976  1.0000
  H   H425      1.0  0.39731  0.28618  0.19070  1.0000
  C   C246      1.0  0.06461  0.50475  0.31579  1.0000
  H   H426      1.0  0.46419  0.50933  0.22591  1.0000
  C   C247      1.0  0.39279  0.27121  0.11808  1.0000
  H   H427      1.0  0.20396  0.48443  0.48340  1.0000
  H   H428      1.0  0.39404  0.41965  0.22910  1.0000
  H   H429      1.0  0.16533  0.46484  0.51576  1.0000
  H   H430      1.0  0.47997  0.27645  0.17531  1.0000
  H   H431      1.0  0.29153  0.28522  0.46539  1.0000
  H   H432      1.0  0.09782  0.50663  0.27092  1.0000
  H   H433      1.0  0.40741  0.50969  0.22288  1.0000
  H   H434      1.0  0.47991  0.27477  0.22190  1.0000
  H   H435      1.0  0.32858  0.50991  0.08848  1.0000
  H   H436      1.0  0.37426  0.26591  0.11209  1.0000
  S   S72       1.0  0.38229  0.51425  0.17499  1.0000
  C   C248      1.0  0.51547  0.46715  0.84512  1.0000
  Fe  Fe37      1.0  0.33100  0.48984  0.82857  1.0000
  H   H437      1.0  0.49504  0.46441  0.84207  1.0000
  H   H438      1.0  0.08272  0.28873  0.86549  1.0000
  Fe  Fe38      1.0  0.38422  0.47028  0.83688  1.0000
  S   S73       1.0  0.38460  0.48224  0.87683  1.0000
  S   S74       1.0  0.41865  0.45452  0.81731  1.0000
  Fe  Fe39      1.0  0.34510  0.46731  0.87881  1.0000
  S   S75       1.0  0.33149  0.44458  0.91226  1.0000
  H   H439      1.0  0.30262  0.45714  0.74354  1.0000
  S   S76       1.0  0.34625  0.45237  0.83982  1.0000
  C   C249      1.0  0.26354  0.28523  0.00169  1.0000
  H   H440      1.0  0.30379  0.46745  0.71196  1.0000
  S   S77       1.0  0.18300  0.32371  0.99526  1.0000
  Fe  Fe40      1.0  0.20592  0.37950  0.95417  1.0000
  S   S78       1.0  0.20395  0.34042  0.94003  1.0000
  S   S79       1.0  0.21841  0.40917  0.92632  1.0000
  Fe  Fe41      1.0  0.16646  0.33865  0.95931  1.0000
  S   S80       1.0  0.13239  0.31991  0.94233  1.0000
  Fe  Fe42      1.0  0.22063  0.32936  0.97692  1.0000
  S   S81       1.0  0.25629  0.30588  0.97708  1.0000
  S   S82       1.0  0.16702  0.37851  0.97101  1.0000
  S   S83       1.0  0.22466  0.36865  0.98992  1.0000
  C   C250      1.0  0.51053  0.26845  0.78381  1.0000
  H   H441      1.0  0.10124  0.29980  0.79122  1.0000
  S   S84       1.0  0.05469  0.37402  0.87031  1.0000
  H   H442      1.0  0.46167  0.30064  0.73303  1.0000
  Fe  Fe43      1.0  0.19867  0.36201  0.53595  1.0000
  S   S85       1.0  0.23705  0.37362  0.54715  1.0000
  Fe  Fe44      1.0  0.18802  0.33798  0.58706  1.0000
  S   S86       1.0  0.22625  0.34838  0.60145  1.0000
  S   S87       1.0  0.15934  0.32237  0.61493  1.0000
  Fe  Fe45      1.0  0.21949  0.38557  0.58339  1.0000
  S   S88       1.0  0.23381  0.42314  0.59653  1.0000
  Fe  Fe46      1.0  0.24042  0.33555  0.56401  1.0000
  S   S89       1.0  0.27819  0.31610  0.55993  1.0000
  S   S90       1.0  0.18051  0.37631  0.57109  1.0000
  S   S91       1.0  0.20277  0.32278  0.55064  1.0000
  C   C251      1.0  0.26570  0.46631  0.72914  1.0000
  C   C252      1.0  0.14681  0.29212  0.61974  1.0000
  C   C253      1.0  0.13050  0.28810  0.64008  1.0000
  C   C254      1.0  0.12698  0.29505  0.82376  1.0000
  C   C255      1.0  0.45630  0.31760  0.74352  1.0000
  H   H443      1.0  0.12616  0.30329  0.65246  1.0000
  H   H444      1.0  0.47521  0.49870  0.90029  1.0000
  C   C256      1.0  0.28873  0.27912  0.00638  1.0000
  H   H445      1.0  0.16224  0.42927  0.54654  1.0000
  C   C257      1.0  0.48347  0.33718  0.80723  1.0000
  C   C258      1.0  0.20542  0.49126  0.52405  1.0000
  H   H446      1.0  0.15973  0.34220  0.85831  1.0000
  C   C259      1.0  0.29023  0.51262  0.78087  1.0000
  C   C260      1.0  0.19292  0.46727  0.56115  1.0000
  C   C261      1.0  0.25312  0.49674  0.69633  1.0000
  N   N18       1.0  0.25005  0.47059  0.70607  1.0000
  C   C262      1.0  0.10940  0.33644  0.92501  1.0000
  C   C263      1.0  0.08735  0.32422  0.91789  1.0000
  C   C264      1.0  0.06968  0.33600  0.90225  1.0000
  C   C265      1.0  0.07411  0.36002  0.89326  1.0000
  C   C266      1.0  0.09590  0.37240  0.90079  1.0000
  C   C267      1.0  0.11338  0.36076  0.91672  1.0000
  H   H447      1.0  0.08410  0.30543  0.92425  1.0000
  H   H448      1.0  0.05303  0.32624  0.89658  1.0000
  H   H449      1.0  0.09953  0.39095  0.89390  1.0000
  H   H450      1.0  0.13029  0.37037  0.92197  1.0000
  H   H451      1.0  0.49473  0.40354  0.82181  1.0000
  H   H452      1.0  0.47399  0.37936  0.78373  1.0000
  C   C268      1.0  0.43849  0.43258  0.83187  1.0000
  C   C269      1.0  0.46120  0.42609  0.82018  1.0000
  C   C270      1.0  0.47732  0.40836  0.83097  1.0000
  C   C271      1.0  0.47070  0.39677  0.85342  1.0000
  C   C272      1.0  0.44802  0.40325  0.86513  1.0000
  C   C273      1.0  0.43201  0.42121  0.85449  1.0000
  H   H453      1.0  0.46626  0.43480  0.80265  1.0000
  N   N19       1.0  0.20143  0.46549  0.53437  1.0000
  H   H454      1.0  0.44282  0.39442  0.88257  1.0000
  H   H455      1.0  0.41454  0.42608  0.86362  1.0000
  C   C274      1.0  0.29937  0.43721  0.91671  1.0000
  C   C275      1.0  0.28177  0.44050  0.89773  1.0000
  C   C276      1.0  0.25690  0.43237  0.90118  1.0000
  C   C277      1.0  0.24942  0.42064  0.92349  1.0000
  C   C278      1.0  0.26686  0.41787  0.94268  1.0000
  C   C279      1.0  0.29166  0.42626  0.93935  1.0000
  H   H456      1.0  0.28739  0.44898  0.88025  1.0000
  H   H457      1.0  0.24348  0.43480  0.88631  1.0000
  H   H458      1.0  0.26120  0.40932  0.96010  1.0000
  H   H459      1.0  0.30503  0.42397  0.95428  1.0000
  C   C280      1.0  0.19577  0.48168  0.64633  1.0000
  C   C281      1.0  0.21797  0.48694  0.63340  1.0000
  C   C282      1.0  0.22947  0.46865  0.61855  1.0000
  C   C283      1.0  0.21866  0.44510  0.61597  1.0000
  C   C284      1.0  0.19620  0.43996  0.62847  1.0000
  C   C285      1.0  0.18493  0.45812  0.64373  1.0000
  H   H460      1.0  0.24486  0.47795  0.55814  1.0000
  H   H461      1.0  0.24683  0.47283  0.60891  1.0000
  H   H462      1.0  0.18764  0.42191  0.62661  1.0000
  H   H463      1.0  0.16775  0.45386  0.65364  1.0000
  C   C286      1.0  0.25612  0.45271  0.68537  1.0000
  H   H464      1.0  0.27628  0.45303  0.68028  1.0000
  H   H465      1.0  0.19323  0.47946  0.73826  1.0000
  S   S92       1.0  0.49041  0.37437  0.86748  1.0000
  N   N20       1.0  0.11637  0.31801  0.83578  1.0000
  C   C287      1.0  0.12568  0.31911  0.86224  1.0000
  C   C288      1.0  0.08807  0.31757  0.83646  1.0000
  C   C289      1.0  0.12472  0.34031  0.82091  1.0000
  H   H466      1.0  0.22388  0.48866  0.74801  1.0000
  C   C290      1.0  0.07613  0.29349  0.84650  1.0000
  C   C291      1.0  0.11683  0.36572  0.83160  1.0000
  C   C292      1.0  0.24883  0.46304  0.54462  1.0000
  H   H467      1.0  0.11564  0.33377  0.87266  1.0000
  H   H468      1.0  0.12145  0.30163  0.87253  1.0000
  H   H469      1.0  0.07985  0.32162  0.81787  1.0000
  H   H470      1.0  0.08070  0.33271  0.84840  1.0000
  H   H471      1.0  0.14544  0.34029  0.81835  1.0000
  H   H472      1.0  0.11707  0.33970  0.80166  1.0000
  S   S93       1.0  0.18162  0.50349  0.66673  1.0000
  H   H473      1.0  0.47254  0.48364  0.87097  1.0000
  H   H474      1.0  0.50154  0.34941  0.74299  1.0000
  C   C293      1.0  0.17266  0.42757  0.52871  1.0000
  H   H475      1.0  0.51572  0.50085  0.88073  1.0000
  H   H476      1.0  0.09617  0.36821  0.83162  1.0000
  H   H477      1.0  0.12468  0.38068  0.81961  1.0000
  H   H478      1.0  0.12402  0.36877  0.85067  1.0000
  C   C294      1.0  0.22537  0.45050  0.53357  1.0000
  H   H479      1.0  0.47422  0.46574  0.89960  1.0000
  H   H480      1.0  0.23992  0.50028  0.68067  1.0000
  C   C295      1.0  0.47408  0.36323  0.77090  1.0000
  H   H481      1.0  0.32389  0.29009  0.54923  1.0000
  C   C296      1.0  0.22274  0.46729  0.71287  1.0000
  N   N21       1.0  0.30671  0.35497  0.91891  1.0000
  C   C297      1.0  0.32959  0.37143  0.91903  1.0000
  C   C298      1.0  0.29645  0.35437  0.94518  1.0000
  C   C299      1.0  0.28778  0.36642  0.90135  1.0000
  C   C300      1.0  0.31483  0.32969  0.91001  1.0000
  C   C301      1.0  0.34045  0.37879  0.89327  1.0000
  C   C302      1.0  0.31359  0.34233  0.96495  1.0000
  C   C303      1.0  0.26011  0.35893  0.90470  1.0000
  C   C304      1.0  0.29531  0.30869  0.91141  1.0000
  H   H482      1.0  0.32555  0.38911  0.92891  1.0000
  H   H483      1.0  0.34525  0.36259  0.92950  1.0000
  H   H484      1.0  0.27836  0.34453  0.94655  1.0000
  H   H485      1.0  0.29196  0.37348  0.95152  1.0000
  H   H486      1.0  0.28782  0.38696  0.90304  1.0000
  H   H487      1.0  0.29293  0.36265  0.88159  1.0000
  H   H488      1.0  0.32090  0.33065  0.89017  1.0000
  H   H489      1.0  0.33201  0.32315  0.91983  1.0000
  H   H490      1.0  0.24638  0.28510  0.52889  1.0000
  H   H491      1.0  0.34596  0.36250  0.88200  1.0000
  C   C305      1.0  0.28442  0.29011  0.54086  1.0000
  H   H492      1.0  0.31778  0.32266  0.96065  1.0000
  H   H493      1.0  0.33117  0.35285  0.96753  1.0000
  H   H494      1.0  0.30358  0.34242  0.98318  1.0000
  C   C306      1.0  0.24913  0.42541  0.69050  1.0000
  H   H495      1.0  0.25227  0.36599  0.92248  1.0000
  H   H496      1.0  0.25701  0.33877  0.90348  1.0000
  H   H497      1.0  0.28492  0.30729  0.89360  1.0000
  H   H498      1.0  0.28173  0.31043  0.92691  1.0000
  H   H499      1.0  0.30507  0.29076  0.91492  1.0000
  H   H500      1.0  0.29281  0.43675  0.71950  1.0000
  H   H501      1.0  0.46416  0.30025  0.77848  1.0000
  H   H502      1.0  0.20820  0.50431  0.72232  1.0000
  C   C307      1.0  0.51045  0.48218  0.88786  1.0000
  H   H503      1.0  0.46007  0.36805  0.75634  1.0000
  H   H504      1.0  0.50394  0.38153  0.75012  1.0000
  H   H505      1.0  0.51514  0.27102  0.72063  1.0000
  C   C308      1.0  0.47034  0.31735  0.76857  1.0000
  H   H506      1.0  0.25438  0.41925  0.70953  1.0000
  C   C309      1.0  0.21174  0.48616  0.73152  1.0000
  H   H507      1.0  0.48434  0.35486  0.81769  1.0000
  H   H508      1.0  0.24815  0.51060  0.71079  1.0000
  H   H509      1.0  0.51548  0.35920  0.77187  1.0000
  H   H510      1.0  0.25896  0.41331  0.67685  1.0000
  H   H511      1.0  0.49047  0.31608  0.84114  1.0000
  S   S94       1.0  0.32798  0.50379  0.86788  1.0000
  H   H512      1.0  0.06555  0.27236  0.78911  1.0000
  H   H513      1.0  0.42769  0.34521  0.77551  1.0000
  H   H514      1.0  0.07944  0.27769  0.83375  1.0000
  H   H515      1.0  0.49049  0.31431  0.76439  1.0000
  H   H516      1.0  0.26721  0.48372  0.73996  1.0000
  H   H517      1.0  0.20678  0.47743  0.57247  1.0000
  C   C310      1.0  0.47629  0.31658  0.82604  1.0000
  H   H518      1.0  0.44288  0.36039  0.82861  1.0000
  C   C311      1.0  0.30920  0.28137  0.53864  1.0000
  H   H519      1.0  0.16469  0.27507  0.58814  1.0000
  H   H520      1.0  0.24885  0.36787  0.88972  1.0000
  H   H521      1.0  0.50317  0.33326  0.80153  1.0000
  H   H522      1.0  0.46129  0.33370  0.73160  1.0000
  C   C312      1.0  0.48150  0.48226  0.88952  1.0000
  C   C313      1.0  0.43959  0.34169  0.79213  1.0000
  H   H523      1.0  0.43631  0.38112  0.80270  1.0000
  H   H524      1.0  0.16313  0.47940  0.58595  1.0000
  H   H525      1.0  0.24621  0.45830  0.66799  1.0000
  H   H526      1.0  0.43285  0.32379  0.80009  1.0000
  C   C314      1.0  0.43286  0.36243  0.81070  1.0000
  H   H527      1.0  0.49170  0.43595  0.87550  1.0000
  H   H528      1.0  0.26126  0.47013  0.52955  1.0000
  H   H529      1.0  0.43570  0.31686  0.74623  1.0000
  H   H530      1.0  0.21082  0.46798  0.69589  1.0000
  H   H531      1.0  0.21947  0.44869  0.72137  1.0000
  C   C315      1.0  0.15394  0.32385  0.86571  1.0000
  C   C316      1.0  0.16760  0.48046  0.56569  1.0000
  H   H532      1.0  0.30341  0.28772  0.99542  1.0000
  Fe  Fe47      1.0  0.18562  0.36387  0.00579  1.0000
  H   H533      1.0  0.15796  0.32407  0.88604  1.0000
  N   N22       1.0  0.46683  0.33987  0.78472  1.0000
  H   H534      1.0  0.05552  0.29628  0.84787  1.0000
  C   C317      1.0  0.29267  0.45641  0.72540  1.0000
  H   H535      1.0  0.41252  0.36155  0.81511  1.0000
  S   S95       1.0  0.29522  0.49186  0.80584  1.0000
  C   C318      1.0  0.04672  0.27097  0.78204  1.0000
  H   H536      1.0  0.15191  0.47154  0.55579  1.0000
  H   H537      1.0  0.03637  0.35352  0.73645  1.0000
  C   C319      1.0  0.50025  0.36296  0.75839  1.0000
  H   H538      1.0  0.32736  0.39086  0.88260  1.0000
  C   C320      1.0  0.15223  0.27228  0.60387  1.0000
  H   H539      1.0  0.22871  0.42252  0.68780  1.0000
  H   H540      1.0  0.50791  0.44227  0.92006  1.0000
  H   H541      1.0  0.19185  0.44855  0.56995  1.0000
  H   H542      1.0  0.35761  0.39000  0.89612  1.0000
  H   H543      1.0  0.29255  0.50576  0.70323  1.0000
  H   H544      1.0  0.25653  0.45296  0.74220  1.0000
  H   H545      1.0  0.21760  0.50231  0.53650  1.0000
  H   H546      1.0  0.45798  0.32020  0.83518  1.0000
  H   H547      1.0  0.28717  0.49161  0.67286  1.0000
  H   H548      1.0  0.18735  0.50162  0.52330  1.0000
  H   H549      1.0  0.44547  0.26922  0.00663  1.0000
  C   C321      1.0  0.02734  0.28519  0.79275  1.0000
  H   H550      1.0  0.26014  0.44883  0.55470  1.0000
  H   H551      1.0  0.18822  0.41408  0.53093  1.0000
  H   H552      1.0  0.47620  0.29796  0.81750  1.0000
  C   C322      1.0  0.26555  0.27867  0.52716  1.0000
  H   H553      1.0  0.22296  0.43248  0.54353  1.0000
  H   H554      1.0  0.14779  0.29581  0.82321  1.0000
  H   H555      1.0  0.03123  0.29764  0.80793  1.0000
  H   H556      1.0  0.03426  0.32132  0.74394  1.0000
  H   H557      1.0  0.16575  0.30899  0.85756  1.0000
  H   H558      1.0  0.25012  0.51263  0.78596  1.0000
  S   S96       1.0  0.36900  0.50668  0.82201  1.0000
  H   H559      1.0  0.22646  0.50500  0.63506  1.0000
  H   H560      1.0  0.12307  0.27816  0.83518  1.0000
  C   C323      1.0  0.11880  0.29028  0.79658  1.0000
  H   H561      1.0  0.16844  0.50044  0.56077  1.0000
  C   C324      1.0  0.27951  0.50409  0.68734  1.0000
  H   H562      1.0  0.13364  0.29633  0.78327  1.0000
  H   H563      1.0  0.51598  0.44536  0.81092  1.0000
  H   H564      1.0  0.22524  0.27798  0.01178  1.0000
  C   C325      1.0  0.51210  0.43703  0.87927  1.0000
  H   H565      1.0  0.50682  0.41093  0.90976  1.0000
  C   C326      1.0  0.18203  0.45274  0.51869  1.0000
  C   C327      1.0  0.11956  0.26469  0.64446  1.0000
  H   H566      1.0  0.51778  0.48138  0.90724  1.0000
  C   C328      1.0  0.51906  0.27502  0.73994  1.0000
  H   H567      1.0  0.02144  0.38151  0.76878  1.0000
  C   C329      1.0  0.51621  0.42904  0.90661  1.0000
  C   C330      1.0  0.02411  0.33708  0.73501  1.0000
  H   H568      1.0  0.11549  0.27014  0.79388  1.0000
  C   C331      1.0  0.24468  0.27382  0.01573  1.0000
  H   H569      1.0  0.02155  0.33213  0.71518  1.0000
  H   H570      1.0  0.51917  0.48690  0.84024  1.0000
  H   H571      1.0  0.48755  0.27682  0.01659  1.0000
  H   H572      1.0  0.06572  0.67215  0.07336  1.0000
  S   S97       1.0  0.23776  0.68046  0.48687  1.0000
  Fe  Fe48      1.0  0.18619  0.71346  0.44769  1.0000
  S   S98       1.0  0.22426  0.70375  0.43198  1.0000
  S   S99       1.0  0.15494  0.72725  0.42209  1.0000
  Fe  Fe49      1.0  0.21971  0.66707  0.45162  1.0000
  S   S100      1.0  0.23352  0.62951  0.43769  1.0000
  Fe  Fe50      1.0  0.23907  0.71794  0.46848  1.0000
  S   S101      1.0  0.27594  0.73887  0.46903  1.0000
  S   S102      1.0  0.18071  0.67550  0.46485  1.0000
  S   S103      1.0  0.20128  0.73017  0.48295  1.0000
  H   H573      1.0  0.48121  0.74119  0.27028  1.0000
  H   H574      1.0  0.33991  0.59787  0.08348  1.0000
  S   S104      1.0  0.04965  0.67435  0.16878  1.0000
  Fe  Fe51      1.0  0.35262  0.60219  0.18986  1.0000
  S   S105      1.0  0.36399  0.61331  0.22863  1.0000
  S   S106      1.0  0.33867  0.63015  0.16085  1.0000
  Fe  Fe52      1.0  0.37453  0.54983  0.19618  1.0000
  S   S107      1.0  0.38692  0.55702  0.23517  1.0000
  Fe  Fe53      1.0  0.34950  0.57565  0.24008  1.0000
  S   S108      1.0  0.32966  0.57090  0.27740  1.0000
  Fe  Fe54      1.0  0.40044  0.59380  0.22053  1.0000
  S   S109      1.0  0.43959  0.60396  0.23319  1.0000
  S   S110      1.0  0.33567  0.56577  0.20182  1.0000
  S   S111      1.0  0.39046  0.58530  0.18110  1.0000
  Fe  Fe55      1.0  0.19131  0.69630  0.04205  1.0000
  S   S112      1.0  0.17924  0.73437  0.05301  1.0000
  Fe  Fe56      1.0  0.21509  0.68578  0.09331  1.0000
  S   S113      1.0  0.20405  0.72353  0.10782  1.0000
  S   S114      1.0  0.22941  0.65456  0.11872  1.0000
  Fe  Fe57      1.0  0.16699  0.71728  0.08928  1.0000
  S   S115      1.0  0.12870  0.73151  0.10139  1.0000
  Fe  Fe58      1.0  0.21722  0.73747  0.07030  1.0000
  H   H575      1.0  0.23016  0.61085  0.37047  1.0000
  S   S116      1.0  0.17674  0.67870  0.07725  1.0000
  S   S117      1.0  0.23070  0.70021  0.05676  1.0000
  C   C332      1.0  0.24284  0.61589  0.35469  1.0000
  S   S118      1.0  0.17420  0.55082  0.37351  1.0000
  H   H576      1.0  0.29204  0.56816  0.12390  1.0000
  C   C333      1.0  0.08396  0.65482  0.02995  1.0000
  H   H577      1.0  0.17890  0.75994  0.35067  1.0000
  H   H578      1.0  0.47205  0.54001  0.25898  1.0000
  C   C334      1.0  0.45873  0.62582  0.21760  1.0000
  C   C335      1.0  0.44903  0.64241  0.19994  1.0000
  C   C336      1.0  0.46465  0.66055  0.18910  1.0000
  C   C337      1.0  0.49007  0.66204  0.19561  1.0000
  C   C338      1.0  0.49988  0.64498  0.21278  1.0000
  C   C339      1.0  0.48421  0.62712  0.22388  1.0000
  H   H579      1.0  0.42941  0.64161  0.19500  1.0000
  H   H580      1.0  0.45694  0.67366  0.17581  1.0000
  H   H581      1.0  0.11988  0.63441  0.02563  1.0000
  H   H582      1.0  0.49186  0.61433  0.23752  1.0000
  C   C340      1.0  0.30827  0.54671  0.28323  1.0000
  C   C341      1.0  0.31140  0.54131  0.14541  1.0000
  C   C342      1.0  0.30282  0.54004  0.30801  1.0000
  H   H583      1.0  0.43668  0.56559  0.15652  1.0000
  H   H584      1.0  0.31234  0.54928  0.32304  1.0000
  C   C343      1.0  0.30786  0.63760  0.15063  1.0000
  C   C344      1.0  0.30478  0.65616  0.13230  1.0000
  C   C345      1.0  0.28089  0.66194  0.12264  1.0000
  C   C346      1.0  0.25980  0.64901  0.13105  1.0000
  C   C347      1.0  0.26289  0.63042  0.14937  1.0000
  C   C348      1.0  0.28673  0.62484  0.15925  1.0000
  H   H585      1.0  0.32101  0.66610  0.12546  1.0000
  H   H586      1.0  0.27883  0.67620  0.10850  1.0000
  H   H587      1.0  0.24667  0.62033  0.15600  1.0000
  H   H588      1.0  0.28874  0.61062  0.17341  1.0000
  H   H589      1.0  0.14095  0.59224  0.50275  1.0000
  C   C349      1.0  0.07133  0.68877  0.14842  1.0000
  C   C350      1.0  0.09658  0.68123  0.14846  1.0000
  C   C351      1.0  0.11442  0.69357  0.13347  1.0000
  C   C352      1.0  0.10703  0.71370  0.11863  1.0000
  C   C353      1.0  0.08172  0.72079  0.11815  1.0000
  C   C354      1.0  0.06389  0.70814  0.13265  1.0000
  H   H590      1.0  0.10246  0.66608  0.16046  1.0000
  H   H591      1.0  0.13393  0.68797  0.13396  1.0000
  H   H592      1.0  0.07582  0.73609  0.10638  1.0000
  H   H593      1.0  0.04443  0.71357  0.13177  1.0000
  H   H594      1.0  0.45403  0.56382  0.19736  1.0000
  C   C355      1.0  0.09981  0.69707  0.02417  1.0000
  C   C356      1.0  0.31134  0.56633  0.13140  1.0000
  C   C357      1.0  0.21512  0.60735  0.42214  1.0000
  C   C358      1.0  0.22439  0.58302  0.41992  1.0000
  C   C359      1.0  0.21154  0.56530  0.40583  1.0000
  C   C360      1.0  0.18941  0.57183  0.39355  1.0000
  C   C361      1.0  0.17970  0.59596  0.39638  1.0000
  C   C362      1.0  0.19243  0.61364  0.41074  1.0000
  H   H595      1.0  0.24188  0.57797  0.42880  1.0000
  H   H596      1.0  0.21907  0.54673  0.40404  1.0000
  H   H597      1.0  0.16253  0.60116  0.38702  1.0000
  H   H598      1.0  0.18512  0.63234  0.41229  1.0000
  H   H599      1.0  0.45522  0.68271  0.29869  1.0000
  H   H600      1.0  0.50469  0.54261  0.16602  1.0000
  H   H601      1.0  0.11585  0.74731  0.39153  1.0000
  H   H602      1.0  0.05757  0.74289  0.16923  1.0000
  H   H603      1.0  0.46721  0.64838  0.27093  1.0000
  H   H604      1.0  0.12787  0.63347  0.51005  1.0000
  H   H605      1.0  0.45400  0.73362  0.23778  1.0000
  C   C363      1.0  0.50194  0.54265  0.18661  1.0000
  H   H606      1.0  0.51558  0.56899  0.21456  1.0000
  C   C364      1.0  0.35642  0.56961  0.12278  1.0000
  H   H607      1.0  0.14806  0.55735  0.48111  1.0000
  C   C365      1.0  0.22538  0.58249  0.33008  1.0000
  H   H608      1.0  0.03760  0.70970  0.05647  1.0000
  H   H609      1.0  0.51810  0.53145  0.19344  1.0000
  H   H610      1.0  0.39635  0.57043  0.11447  1.0000
  H   H611      1.0  0.04319  0.75851  0.19461  1.0000
  C   C366      1.0  0.26627  0.59872  0.31791  1.0000
  C   C367      1.0  0.06958  0.72959  0.20422  1.0000
  H   H612      1.0  0.25940  0.62420  0.36372  1.0000
  C   C368      1.0  0.46313  0.71650  0.23076  1.0000
  H   H613      1.0  0.21686  0.59509  0.31595  1.0000
  H   H614      1.0  0.18400  0.58059  0.46586  1.0000
  C   C369      1.0  0.15561  0.60614  0.49815  1.0000
  H   H615      1.0  0.48801  0.72966  0.29987  1.0000
  H   H616      1.0  0.31327  0.58121  0.14555  1.0000
  H   H617      1.0  0.09770  0.65589  0.09333  1.0000
  H   H618      1.0  0.33574  0.55730  0.07310  1.0000
  N   N23       1.0  0.24954  0.59304  0.33996  1.0000
  C   C370      1.0  0.22731  0.55682  0.31751  1.0000
  H   H619      1.0  0.27134  0.55948  0.34573  1.0000
  C   C371      1.0  0.07124  0.68674  0.05967  1.0000
  H   H620      1.0  0.08044  0.53771  0.30026  1.0000
  C   C372      1.0  0.04678  0.69424  0.04621  1.0000
  H   H621      1.0  0.17370  0.53627  0.47830  1.0000
  H   H622      1.0  0.37771  0.56352  0.08774  1.0000
  H   H623      1.0  0.13430  0.57892  0.30827  1.0000
  H   H624      1.0  0.48597  0.68583  0.31013  1.0000
  H   H625      1.0  0.47879  0.56338  0.23634  1.0000
  H   H626      1.0  0.44814  0.54928  0.23780  1.0000
  H   H627      1.0  0.10890  0.73596  0.01834  1.0000
  H   H628      1.0  0.10514  0.57103  0.32280  1.0000
  C   C373      1.0  0.11887  0.51611  0.34615  1.0000
  C   C374      1.0  0.50757  0.69952  0.26427  1.0000
  C   C375      1.0  0.27890  0.51553  0.26933  1.0000
  C   C376      1.0  0.12500  0.76278  0.40038  1.0000
  H   H629      1.0  0.20431  0.56605  0.48693  1.0000
  C   C377      1.0  0.32683  0.59495  0.09944  1.0000
  C   C378      1.0  0.47578  0.72626  0.28355  1.0000
  C   C379      1.0  0.20010  0.61566  0.49648  1.0000
  H   H630      1.0  0.08529  0.73154  0.04143  1.0000
  C   C380      1.0  0.46862  0.54584  0.23940  1.0000
  C   C381      1.0  0.47528  0.68183  0.29287  1.0000
  N   N24       1.0  0.47755  0.53063  0.19414  1.0000
  H   H631      1.0  0.03366  0.67834  0.04561  1.0000
  C   C382      1.0  0.12478  0.75417  0.19088  1.0000
  H   H632      1.0  0.13166  0.66806  0.04782  1.0000
  H   H633      1.0  0.30771  0.54675  0.08751  1.0000
  H   H634      1.0  0.07726  0.70229  0.07167  1.0000
  H   H635      1.0  0.21123  0.58076  0.34534  1.0000
  H   H636      1.0  0.24169  0.64352  0.32408  1.0000
  H   H637      1.0  0.20152  0.75390  0.38946  1.0000
  H   H638      1.0  0.29721  0.62222  0.30625  1.0000
  C   C383      1.0  0.14814  0.62960  0.51287  1.0000
  C   C384      1.0  0.29138  0.61162  0.32313  1.0000
  H   H639      1.0  0.23932  0.55713  0.30059  1.0000
  C   C385      1.0  0.50669  0.56922  0.19589  1.0000
  H   H640      1.0  0.20831  0.55120  0.31143  1.0000
  H   H641      1.0  0.16454  0.54673  0.50867  1.0000
  H   H642      1.0  0.28833  0.56640  0.38619  1.0000
  H   H643      1.0  0.21109  0.63189  0.33361  1.0000
  H   H644      1.0  0.29039  0.62550  0.33814  1.0000
  C   C386      1.0  0.37847  0.57487  0.10483  1.0000
  H   H645      1.0  0.22746  0.65317  0.35264  1.0000
  H   H646      1.0  0.05326  0.71711  0.20683  1.0000
  H   H647      1.0  0.32403  0.75311  0.48744  1.0000
  N   N25       1.0  0.33075  0.56959  0.11110  1.0000
  H   H648      1.0  0.24661  0.56345  0.36742  1.0000
  H   H649      1.0  0.25624  0.60957  0.30328  1.0000
  H   H650      1.0  0.23397  0.54213  0.33046  1.0000
  H   H651      1.0  0.37922  0.59484  0.09970  1.0000
  H   H652      1.0  0.35719  0.58388  0.13766  1.0000
  H   H653      1.0  0.27146  0.58138  0.30804  1.0000
  H   H654      1.0  0.29540  0.59381  0.36891  1.0000
  C   C387      1.0  0.27983  0.58280  0.37677  1.0000
  C   C388      1.0  0.23006  0.63709  0.34001  1.0000
  H   H655      1.0  0.45179  0.70991  0.21483  1.0000
  H   H656      1.0  0.43740  0.53636  0.19240  1.0000
  C   C389      1.0  0.10303  0.72368  0.03399  1.0000
  H   H657      1.0  0.43427  0.72203  0.28195  1.0000
  N   N26       1.0  0.48062  0.70088  0.27292  1.0000
  H   H658      1.0  0.15330  0.61066  0.47795  1.0000
  C   C390      1.0  0.22805  0.60891  0.49918  1.0000
  H   H659      1.0  0.44442  0.69185  0.25671  1.0000
  S   S119      1.0  0.50851  0.68644  0.18338  1.0000
  C   C391      1.0  0.26132  0.57373  0.35684  1.0000
  H   H660      1.0  0.07605  0.64099  0.04329  1.0000
  H   H661      1.0  0.30630  0.59776  0.32729  1.0000
  H   H662      1.0  0.10760  0.63327  0.07022  1.0000
  H   H663      1.0  0.44675  0.72606  0.31279  1.0000
  H   H664      1.0  0.46973  0.56318  0.15236  1.0000
  H   H665      1.0  0.27010  0.59360  0.39152  1.0000
  C   C392      1.0  0.29631  0.53435  0.26387  1.0000
  H   H666      1.0  0.28676  0.60420  0.10460  1.0000
  H   H667      1.0  0.35849  0.52338  0.08461  1.0000
  H   H668      1.0  0.34481  0.52001  0.11528  1.0000
  C   C393      1.0  0.18527  0.57414  0.48565  1.0000
  Fe  Fe59      1.0  0.19904  0.69129  0.49881  1.0000
  N   N27       1.0  0.09239  0.67776  0.04329  1.0000
  H   H669      1.0  0.33133  0.60984  0.11289  1.0000
  H   H670      1.0  0.47016  0.67878  0.24119  1.0000
  H   H671      1.0  0.51107  0.68263  0.25291  1.0000
  H   H672      1.0  0.48201  0.72080  0.22320  1.0000
  H   H673      1.0  0.11787  0.72467  0.04830  1.0000
  H   H674      1.0  0.26649  0.74382  0.03475  1.0000
  H   H675      1.0  0.10064  0.74846  0.15950  1.0000
  H   H676      1.0  0.07549  0.73527  0.22305  1.0000
  H   H677      1.0  0.11821  0.73975  0.20404  1.0000
  H   H678      1.0  0.08428  0.71820  0.19500  1.0000
  C   C394      1.0  0.30037  0.60064  0.08929  1.0000
  H   H679      1.0  0.48978  0.58111  0.19633  1.0000
  C   C395      1.0  0.06156  0.75147  0.18746  1.0000
  H   H680      1.0  0.32965  0.53688  0.15416  1.0000
  H   H681      1.0  0.23397  0.59362  0.48676  1.0000
  H   H682      1.0  0.30031  0.53944  0.24473  1.0000
  H   H683      1.0  0.36081  0.55203  0.13263  1.0000
  C   C396      1.0  0.34087  0.52480  0.09564  1.0000
  H   H684      1.0  0.07812  0.53800  0.33313  1.0000
  H   H685      1.0  0.30102  0.61806  0.07810  1.0000
  C   C397      1.0  0.12486  0.56493  0.32032  1.0000
  C   C398      1.0  0.44883  0.73150  0.29287  1.0000
  C   C399      1.0  0.47715  0.52494  0.22178  1.0000
  C   C400      1.0  0.14460  0.75819  0.41729  1.0000
  C   C401      1.0  0.46401  0.69592  0.25086  1.0000
  C   C402      1.0  0.11485  0.67241  0.05942  1.0000
  H   H686      1.0  0.15815  0.64623  0.50595  1.0000
  C   C403      1.0  0.32793  0.55024  0.09110  1.0000
  N   N28       1.0  0.11117  0.51888  0.31922  1.0000
  H   H687      1.0  0.44955  0.53653  0.14746  1.0000
  H   H688      1.0  0.49595  0.51856  0.22819  1.0000
  H   H689      1.0  0.49993  0.65144  0.27920  1.0000
  C   C404      1.0  0.26959  0.76302  0.02967  1.0000
  C   C405      1.0  0.16669  0.55253  0.48894  1.0000
  H   H690      1.0  0.30545  0.52600  0.13314  1.0000
  H   H691      1.0  0.51944  0.64579  0.21782  1.0000
  C   C406      1.0  0.08381  0.52607  0.31718  1.0000
  C   C407      1.0  0.45300  0.55301  0.15916  1.0000
  H   H692      1.0  0.11553  0.53356  0.35661  1.0000
  C   C408      1.0  0.45500  0.54612  0.18702  1.0000
  H   H693      1.0  0.12009  0.68917  0.07007  1.0000
  H   H694      1.0  0.23941  0.62518  0.49345  1.0000
  H   H695      1.0  0.14015  0.74572  0.17965  1.0000
  C   C409      1.0  0.48037  0.65463  0.28552  1.0000
  C   C410      1.0  0.02929  0.76239  0.24769  1.0000
  H   H696      1.0  0.29334  0.58582  0.07701  1.0000
  C   C411      1.0  0.28443  0.75847  0.49374  1.0000
  C   C412      1.0  0.11188  0.65135  0.07885  1.0000
  H   H697      1.0  0.12206  0.54240  0.28800  1.0000
  H   H698      1.0  0.19716  0.63232  0.50816  1.0000
  H   H699      1.0  0.47721  0.64249  0.30204  1.0000
  C   C413      1.0  0.10421  0.76364  0.17296  1.0000
  H   H700      1.0  0.06407  0.75750  0.26761  1.0000
  C   C414      1.0  0.28536  0.52128  0.31346  1.0000
  H   H701      1.0  0.28165  0.51589  0.33258  1.0000
  H   H702      1.0  0.12990  0.64890  0.08886  1.0000
  H   H703      1.0  0.14723  0.53384  0.30795  1.0000
  H   H704      1.0  0.44477  0.75167  0.29096  1.0000
  H   H705      1.0  0.29740  0.54225  0.16080  1.0000
  C   C415      1.0  0.12701  0.53924  0.30789  1.0000
  C   C416      1.0  0.30995  0.76251  0.49855  1.0000
  H   H706      1.0  0.13468  0.56530  0.33848  1.0000
  H   H707      1.0  0.19722  0.62205  0.47692  1.0000
  H   H708      1.0  0.02906  0.74368  0.24061  1.0000
  N   N29       1.0  0.18150  0.59571  0.50309  1.0000
  H   H709      1.0  0.51193  0.71519  0.25144  1.0000
  H   H710      1.0  0.35871  0.51706  0.26836  1.0000
  H   H711      1.0  0.04978  0.70119  0.02700  1.0000
  H   H712      1.0  0.51955  0.57883  0.18266  1.0000
  H   H713      1.0  0.06826  0.65935  0.01708  1.0000
  Fe  Fe60      1.0  0.10618  0.68711  0.83757  1.0000
  S   S120      1.0  0.11800  0.72591  0.84756  1.0000
  S   S121      1.0  0.13425  0.65899  0.82160  1.0000
  Fe  Fe61      1.0  0.05459  0.69379  0.86245  1.0000
  S   S122      1.0  0.06297  0.73266  0.87371  1.0000
  Fe  Fe62      1.0  0.07917  0.73710  0.83529  1.0000
  H   H714      1.0  0.29639  0.75451  0.00071  1.0000
  Fe  Fe63      1.0  0.10081  0.71815  0.88521  1.0000
  S   S123      1.0  0.11497  0.73365  0.92200  1.0000
  S   S124      1.0  0.06835  0.69884  0.82282  1.0000
  S   S125      1.0  0.09138  0.67868  0.87634  1.0000
  Fe  Fe64      1.0  0.19665  0.54247  0.67293  1.0000
  S   S126      1.0  0.23499  0.55351  0.66050  1.0000
  Fe  Fe65      1.0  0.18571  0.59398  0.69527  1.0000
  S   S127      1.0  0.22376  0.60843  0.68382  1.0000
  S   S128      1.0  0.15507  0.61941  0.71135  1.0000
  Fe  Fe66      1.0  0.21724  0.58914  0.64736  1.0000
  S   S129      1.0  0.23163  0.60155  0.60920  1.0000
  Fe  Fe67      1.0  0.23820  0.57154  0.69785  1.0000
  S   S130      1.0  0.27588  0.56770  0.71705  1.0000
  S   S131      1.0  0.17829  0.57695  0.65749  1.0000
  S   S132      1.0  0.20069  0.55822  0.71164  1.0000
  S   S133      1.0  0.37904  0.55504  0.87793  1.0000
  S   S134      1.0  0.18356  0.68302  0.53749  1.0000
  Fe  Fe68      1.0  0.46451  0.66895  0.84242  1.0000
  S   S135      1.0  0.47897  0.66789  0.88159  1.0000
  S   S136      1.0  0.44737  0.63554  0.82338  1.0000
  Fe  Fe69      1.0  0.48441  0.72136  0.83317  1.0000
  H   H715      1.0  0.26597  0.72338  0.61231  1.0000
  Fe  Fe70      1.0  0.46454  0.70721  0.88429  1.0000
  S   S137      1.0  0.44435  0.72203  0.91850  1.0000
  S   S138      1.0  0.50046  0.68352  0.82540  1.0000
  S   S139      1.0  0.44708  0.70692  0.84633  1.0000
  H   H716      1.0  0.10740  0.57763  0.76762  1.0000
  H   H717      1.0  0.36911  0.57655  0.79759  1.0000
  H   H718      1.0  0.09029  0.63447  0.79959  1.0000
  H   H719      1.0  0.11186  0.65392  0.99921  1.0000
  H   H720      1.0  0.06383  0.57415  0.82451  1.0000
  H   H721      1.0  0.14251  0.57937  0.79277  1.0000
  H   H722      1.0  0.46805  0.58373  0.87456  1.0000
  C   C417      1.0  0.37775  0.71284  0.89727  1.0000
  C   C418      1.0  0.47459  0.56575  0.86698  1.0000
  C   C419      1.0  0.10425  0.64168  0.01411  1.0000
  C   C420      1.0  0.30935  0.75889  0.92414  1.0000
  C   C421      1.0  0.39948  0.57629  0.86295  1.0000
  C   C422      1.0  0.40724  0.59745  0.87591  1.0000
  C   C423      1.0  0.42218  0.61561  0.86417  1.0000
  C   C424      1.0  0.42926  0.61288  0.83921  1.0000
  C   C425      1.0  0.42174  0.59159  0.82631  1.0000
  C   C426      1.0  0.40709  0.57326  0.83816  1.0000
  H   H723      1.0  0.40141  0.59995  0.89508  1.0000
  H   H724      1.0  0.42786  0.63190  0.87431  1.0000
  H   H725      1.0  0.42719  0.58930  0.80701  1.0000
  H   H726      1.0  0.40132  0.55702  0.82802  1.0000
  C   C427      1.0  0.21734  0.62377  0.58951  1.0000
  C   C428      1.0  0.22958  0.63024  0.56719  1.0000
  C   C429      1.0  0.21935  0.64826  0.55110  1.0000
  C   C430      1.0  0.19658  0.65978  0.55702  1.0000
  C   C431      1.0  0.18426  0.65327  0.57931  1.0000
  C   C432      1.0  0.19459  0.63531  0.59554  1.0000
  H   H727      1.0  0.24730  0.62152  0.56254  1.0000
  H   H728      1.0  0.22930  0.65347  0.53431  1.0000
  H   H729      1.0  0.16672  0.66226  0.58416  1.0000
  H   H730      1.0  0.18505  0.63052  0.61276  1.0000
  C   C433      1.0  0.28084  0.54609  0.74135  1.0000
  H   H731      1.0  0.49328  0.61097  0.89951  1.0000
  H   H732      1.0  0.14517  0.56899  0.82419  1.0000
  H   H733      1.0  0.50712  0.54803  0.85094  1.0000
  C   C434      1.0  0.43875  0.75434  0.92114  1.0000
  C   C435      1.0  0.13238  0.71744  0.94495  1.0000
  C   C436      1.0  0.13611  0.72880  0.96811  1.0000
  C   C437      1.0  0.15102  0.71738  0.98649  1.0000
  C   C438      1.0  0.16226  0.69437  0.98197  1.0000
  C   C439      1.0  0.15822  0.68279  0.95896  1.0000
  C   C440      1.0  0.14332  0.69425  0.94050  1.0000
  H   H734      1.0  0.12755  0.74666  0.97174  1.0000
  H   H735      1.0  0.27386  0.70127  0.53554  1.0000
  H   H736      1.0  0.16688  0.66499  0.95525  1.0000
  H   H737      1.0  0.14065  0.68535  0.92270  1.0000
  S   S140      1.0  0.50084  0.72343  0.87147  1.0000
  H   H738      1.0  0.30565  0.75593  0.94430  1.0000
  H   H739      1.0  0.22061  0.76117  0.00971  1.0000
  H   H740      1.0  0.23004  0.71624  0.58960  1.0000
  C   C441      1.0  0.14140  0.65030  0.79039  1.0000
  C   C442      1.0  0.12784  0.65936  0.76998  1.0000
  C   C443      1.0  0.13275  0.65014  0.74585  1.0000
  C   C444      1.0  0.15136  0.63195  0.74176  1.0000
  C   C445      1.0  0.16532  0.62334  0.76209  1.0000
  C   C446      1.0  0.16029  0.63243  0.78623  1.0000
  H   H741      1.0  0.11324  0.67307  0.77284  1.0000
  H   H742      1.0  0.12182  0.65690  0.73027  1.0000
  H   H743      1.0  0.17964  0.60934  0.75926  1.0000
  H   H744      1.0  0.17090  0.62528  0.80186  1.0000
  H   H745      1.0  0.11249  0.60938  0.77104  1.0000
  H   H746      1.0  0.48943  0.61846  0.85795  1.0000
  H   H747      1.0  0.24189  0.54213  0.75111  1.0000
  H   H748      1.0  0.51337  0.72564  0.77712  1.0000
  N   N30       1.0  0.08902  0.59421  0.80007  1.0000
  H   H749      1.0  0.31809  0.72558  0.56355  1.0000
  H   H750      1.0  0.06995  0.61940  0.75512  1.0000
  C   C447      1.0  0.31014  0.52197  0.76673  1.0000
  S   S141      1.0  0.48551  0.75732  0.81121  1.0000
  H   H751      1.0  0.19452  0.55128  0.54288  1.0000
  H   H752      1.0  0.26724  0.67068  0.56613  1.0000
  H   H753      1.0  0.10455  0.58396  0.83609  1.0000
  C   C448      1.0  0.06908  0.57493  0.80444  1.0000
  H   H754      1.0  0.11797  0.69192  0.01530  1.0000
  H   H755      1.0  0.15372  0.72634  0.00419  1.0000
  H   H756      1.0  0.47934  0.59206  0.82587  1.0000
  S   S142      1.0  0.18199  0.67989  0.00425  1.0000
  H   H757      1.0  0.32094  0.54605  0.73627  1.0000
  H   H758      1.0  0.06234  0.64282  0.83511  1.0000
  H   H759      1.0  0.39117  0.72781  0.93174  1.0000
  N   N31       1.0  0.35708  0.74812  0.92281  1.0000
  H   H760      1.0  0.02288  0.66870  0.94391  1.0000
  C   C449      1.0  0.26560  0.51983  0.77504  1.0000
  H   H761      1.0  0.34942  0.55057  0.78983  1.0000
  C   C450      1.0  0.26089  0.53647  0.75530  1.0000
  C   C451      1.0  0.07763  0.61929  0.80589  1.0000
  C   C452      1.0  0.30545  0.53878  0.74712  1.0000
  H   H762      1.0  0.23102  0.69680  0.56316  1.0000
  C   C453      1.0  0.21634  0.73892  0.96462  1.0000
  N   N32       1.0  0.51320  0.58757  0.84774  1.0000
  H   H763      1.0  0.08702  0.54617  0.78037  1.0000
  N   N33       1.0  0.26745  0.71002  0.57442  1.0000
  C   C454      1.0  0.27198  0.68327  0.58180  1.0000
  H   H764      1.0  0.09576  0.62548  0.00474  1.0000
  H   H765      1.0  0.12114  0.60782  0.82034  1.0000
  C   C455      1.0  0.27723  0.72612  0.59502  1.0000
  C   C456      1.0  0.25745  0.67386  0.60499  1.0000
  H   H766      1.0  0.32551  0.72284  0.92039  1.0000
  C   C457      1.0  0.09787  0.59500  0.77332  1.0000
  H   H767      1.0  0.29180  0.75415  0.91426  1.0000
  H   H768      1.0  0.05115  0.58012  0.79519  1.0000
  H   H769      1.0  0.29212  0.67980  0.58587  1.0000
  C   C458      1.0  0.37261  0.72458  0.92296  1.0000
  C   C459      1.0  0.51191  0.61106  0.89014  1.0000
  C   C460      1.0  0.23951  0.71366  0.57123  1.0000
  H   H770      1.0  0.31717  0.71664  0.53167  1.0000
  H   H771      1.0  0.36037  0.71048  0.88636  1.0000
  H   H772      1.0  0.29649  0.72047  0.60071  1.0000
  H   H773      1.0  0.26309  0.68348  0.62224  1.0000
  H   H774      1.0  0.49460  0.61084  0.78927  1.0000
  H   H775      1.0  0.20001  0.72688  0.96894  1.0000
  C   C461      1.0  0.13161  0.57173  0.80875  1.0000
  H   H776      1.0  0.33309  0.73016  0.96543  1.0000
  C   C462      1.0  0.18321  0.58862  0.53034  1.0000
  H   H777      1.0  0.38637  0.69421  0.90006  1.0000
  H   H778      1.0  0.26187  0.65387  0.60792  1.0000
  H   H779      1.0  0.24275  0.70869  0.97055  1.0000
  H   H780      1.0  0.23889  0.75307  0.55877  1.0000
  C   C463      1.0  0.07144  0.62430  0.83360  1.0000
  C   C464      1.0  0.20340  0.56923  0.53788  1.0000
  H   H781      1.0  0.50137  0.57094  0.81296  1.0000
  H   H782      1.0  0.36756  0.75945  0.88517  1.0000
  H   H783      1.0  0.51250  0.56230  0.87968  1.0000
  H   H784      1.0  0.32910  0.51605  0.77078  1.0000
  H   H785      1.0  0.46149  0.75992  0.75920  1.0000
  C   C465      1.0  0.51878  0.74470  0.77383  1.0000
  C   C466      1.0  0.49975  0.58890  0.82303  1.0000
  C   C467      1.0  0.28087  0.71433  0.54993  1.0000
  C   C468      1.0  0.04247  0.75776  0.77716  1.0000
  C   C469      1.0  0.35010  0.74088  0.96995  1.0000
  H   H786      1.0  0.23684  0.67517  0.60268  1.0000
  C   C470      1.0  0.07760  0.60030  0.75361  1.0000
  H   H787      1.0  0.18632  0.60542  0.54188  1.0000
  H   H788      1.0  0.29209  0.76301  0.60169  1.0000
  C   C471      1.0  0.07551  0.54795  0.79743  1.0000
  H   H789      1.0  0.36356  0.70991  0.93456  1.0000
  H   H790      1.0  0.27852  0.52289  0.67880  1.0000
  Fe  Fe71      1.0  0.36741  0.51765  0.86227  1.0000
  H   H791      1.0  0.02098  0.74610  0.74539  1.0000
  H   H792      1.0  0.27869  0.57025  0.84865  1.0000
  H   H793      1.0  0.36563  0.72783  0.97448  1.0000
  C   C472      1.0  0.50308  0.56529  0.86159  1.0000
  H   H794      1.0  0.08637  0.59904  0.73480  1.0000
  H   H795      1.0  0.23312  0.60495  0.51877  1.0000
  N   N34       1.0  0.31829  0.58675  0.81601  1.0000
  C   C473      1.0  0.30845  0.56096  0.82093  1.0000
  C   C474      1.0  0.32968  0.58697  0.79017  1.0000
  C   C475      1.0  0.29623  0.60457  0.81750  1.0000
  C   C476      1.0  0.33745  0.59239  0.83566  1.0000
  C   C477      1.0  0.29445  0.55707  0.84593  1.0000
  C   C478      1.0  0.35305  0.57041  0.78621  1.0000
  C   C479      1.0  0.29686  0.62790  0.80062  1.0000
  C   C480      1.0  0.35137  0.61714  0.83273  1.0000
  H   H796      1.0  0.29527  0.55560  0.80592  1.0000
  H   H797      1.0  0.32374  0.54688  0.82081  1.0000
  H   H798      1.0  0.33574  0.60584  0.78453  1.0000
  H   H799      1.0  0.31537  0.58152  0.77619  1.0000
  H   H800      1.0  0.27844  0.59518  0.81224  1.0000
  H   H801      1.0  0.29319  0.61090  0.83702  1.0000
  H   H802      1.0  0.32875  0.59270  0.85455  1.0000
  H   H803      1.0  0.35177  0.57734  0.83650  1.0000
  H   H804      1.0  0.46991  0.55119  0.88097  1.0000
  H   H805      1.0  0.28626  0.53814  0.84611  1.0000
  C   C481      1.0  0.30969  0.71212  0.55054  1.0000
  H   H806      1.0  0.23566  0.72497  0.99832  1.0000
  C   C482      1.0  0.33078  0.74200  0.91457  1.0000
  H   H807      1.0  0.35903  0.57188  0.76639  1.0000
  H   H808      1.0  0.31430  0.63869  0.80234  1.0000
  H   H809      1.0  0.28100  0.64033  0.80577  1.0000
  H   H810      1.0  0.29414  0.62283  0.78077  1.0000
  H   H811      1.0  0.36199  0.61839  0.81496  1.0000
  H   H812      1.0  0.36533  0.61863  0.84792  1.0000
  H   H813      1.0  0.33848  0.63315  0.83471  1.0000
  H   H814      1.0  0.18940  0.75260  0.00301  1.0000
  H   H815      1.0  0.27690  0.73293  0.54211  1.0000
  H   H816      1.0  0.08857  0.62502  0.84520  1.0000
  H   H817      1.0  0.08642  0.69792  0.00837  1.0000
  H   H818      1.0  0.12430  0.55329  0.80390  1.0000
  H   H819      1.0  0.46367  0.56145  0.85001  1.0000
  H   H820      1.0  0.05982  0.62225  0.79558  1.0000
  H   H821      1.0  0.06227  0.58653  0.75437  1.0000
  H   H822      1.0  0.05806  0.61075  0.84158  1.0000
  H   H823      1.0  0.25645  0.73849  0.97494  1.0000
  C   C483      1.0  0.23920  0.72754  0.97807  1.0000
  C   C484      1.0  0.11104  0.59009  0.81728  1.0000
  H   H824      1.0  0.04998  0.73945  0.78096  1.0000
  C   C485      1.0  0.27713  0.75434  0.59041  1.0000
  H   H825      1.0  0.42631  0.75149  0.95933  1.0000
  H   H826      1.0  0.05789  0.53800  0.79309  1.0000
  H   H827      1.0  0.21846  0.56594  0.52410  1.0000
  C   C486      1.0  0.35788  0.75872  0.94870  1.0000
  C   C487      1.0  0.02620  0.76160  0.75693  1.0000
  H   H828      1.0  0.31612  0.69303  0.55498  1.0000
  H   H829      1.0  0.34610  0.75179  0.98703  1.0000
  H   H830      1.0  0.32962  0.74188  0.89386  1.0000
  H   H831      1.0  0.21278  0.57554  0.55518  1.0000
  C   C488      1.0  0.23067  0.73498  0.55403  1.0000
  C   C489      1.0  0.50828  0.60952  0.80479  1.0000
  H   H832      1.0  0.23462  0.73064  0.53418  1.0000
  H   H833      1.0  0.16496  0.58101  0.53700  1.0000
  H   H834      1.0  0.20996  0.73687  0.55568  1.0000
  H   H835      1.0  0.21973  0.73622  0.94444  1.0000
  C   C490      1.0  0.50886  0.61161  0.86144  1.0000
  H   H836      1.0  0.08488  0.53815  0.81313  1.0000
  H   H837      1.0  0.39162  0.72385  0.88640  1.0000
  H   H838      1.0  0.30740  0.55792  0.86201  1.0000
  H   H839      1.0  0.25883  0.76276  0.59568  1.0000
  H   H840      1.0  0.15105  0.62755  0.53323  1.0000
  Fe  Fe72      1.0  0.51395  0.68431  0.86484  1.0000
  H   H841      1.0  0.46992  0.75845  0.71105  1.0000
  H   H842      1.0  0.09942  0.75755  0.73423  1.0000
  H   H843      1.0  0.28186  0.75953  0.57110  1.0000
  H   H844      1.0  0.50862  0.62801  0.81365  1.0000
  H   H845      1.0  0.17948  0.74444  0.92983  1.0000
  H   H846      1.0  0.01987  0.75411  0.82863  1.0000
  C   C491      1.0  0.50830  0.76359  0.78828  1.0000
  H   H847      1.0  0.44995  0.76350  0.88359  1.0000
  C   C492      1.0  0.42874  0.76375  0.94347  1.0000
  H   H848      1.0  0.42958  0.76351  0.76843  1.0000
  S   S143      1.0  0.39742  0.87999  0.49852  1.0000
  Fe  Fe73      1.0  0.09408  0.89103  0.32467  1.0000
  S   S144      1.0  0.08194  0.88930  0.36456  1.0000
  S   S145      1.0  0.11031  0.92622  0.30756  1.0000
  Fe  Fe74      1.0  0.07469  0.83837  0.31448  1.0000
  S   S146      1.0  0.06071  0.83357  0.35387  1.0000
  S   S147      1.0  0.07587  0.80447  0.28940  1.0000
  Fe  Fe75      1.0  0.04645  0.87290  0.34978  1.0000
  Fe  Fe76      1.0  0.09733  0.85034  0.36490  1.0000
  S   S148      1.0  0.12209  0.83838  0.39732  1.0000
  S   S149      1.0  0.05761  0.87646  0.30949  1.0000
  S   S150      1.0  0.11230  0.85336  0.32583  1.0000
  S   S151      1.0  0.38661  0.87721  0.04391  1.0000
  Fe  Fe77      1.0  0.47884  0.83591  0.38421  1.0000
  S   S152      1.0  0.48807  0.87600  0.37839  1.0000
  S   S153      1.0  0.46369  0.81933  0.42042  1.0000
  Fe  Fe78      1.0  0.49781  0.82203  0.33161  1.0000
  H   H849      1.0  0.30076  0.84611  0.51518  1.0000
  Fe  Fe79      1.0  0.47209  0.87190  0.33980  1.0000
  S   S154      1.0  0.44167  0.89746  0.32428  1.0000
  H   H850      1.0  0.51380  0.87257  0.47108  1.0000
  S   S155      1.0  0.46008  0.83265  0.34712  1.0000
  H   H851      1.0  0.36134  0.79003  0.09111  1.0000
  Fe  Fe80      1.0  0.39521  0.95797  0.19934  1.0000
  S   S156      1.0  0.35622  0.94236  0.19817  1.0000
  S   S157      1.0  0.42985  0.93683  0.21253  1.0000
  Fe  Fe81      1.0  0.35359  0.96026  0.16016  1.0000
  S   S158      1.0  0.33425  0.94536  0.12573  1.0000
  Fe  Fe82      1.0  0.34426  0.97970  0.21287  1.0000
  S   S159      1.0  0.31957  0.98189  0.24734  1.0000
  S   S160      1.0  0.39352  0.97289  0.15997  1.0000
  S   S161      1.0  0.38351  0.99422  0.21604  1.0000
  S   S162      1.0  0.18292  0.00187  0.36193  1.0000
  H   H852      1.0  0.06461  0.00489  0.34718  1.0000
  N   N35       1.0  0.18304  0.79992  0.34630  1.0000
  H   H853      1.0  0.14180  0.76639  0.33208  1.0000
  H   H854      1.0  0.26097  0.98267  0.31238  1.0000
  H   H855      1.0  0.25904  0.96963  0.27370  1.0000
  C   C493      1.0  0.43915  0.90904  0.29334  1.0000
  C   C494      1.0  0.41608  0.91890  0.28534  1.0000
  C   C495      1.0  0.41307  0.92790  0.26080  1.0000
  C   C496      1.0  0.43322  0.92728  0.24403  1.0000
  C   C497      1.0  0.45642  0.91782  0.25214  1.0000
  C   C498      1.0  0.45939  0.90866  0.27665  1.0000
  H   H856      1.0  0.40037  0.91948  0.29817  1.0000
  H   H857      1.0  0.39513  0.93520  0.25485  1.0000
  H   H858      1.0  0.47217  0.91757  0.23936  1.0000
  H   H859      1.0  0.47734  0.90148  0.28270  1.0000
  C   C499      1.0  0.06307  0.79464  0.43557  1.0000
  S   S163      1.0  0.23582  0.77506  0.06685  1.0000
  C   C500      1.0  0.37250  0.89774  0.06556  1.0000
  C   C501      1.0  0.34824  0.90708  0.06211  1.0000
  C   C502      1.0  0.33677  0.92156  0.08076  1.0000
  C   C503      1.0  0.34960  0.92727  0.10278  1.0000
  C   C504      1.0  0.37407  0.91844  0.10599  1.0000
  C   C505      1.0  0.38536  0.90355  0.08755  1.0000
  H   H860      1.0  0.33812  0.90273  0.04531  1.0000
  H   H861      1.0  0.31786  0.92837  0.07810  1.0000
  H   H862      1.0  0.38414  0.92272  0.12286  1.0000
  H   H863      1.0  0.40410  0.89635  0.09040  1.0000
  H   H864      1.0  0.29150  0.01377  0.21357  1.0000
  H   H865      1.0  0.05345  0.78357  0.42116  1.0000
  C   C506      1.0  0.18029  0.84750  0.35542  1.0000
  H   H866      1.0  0.24457  0.99494  0.25841  1.0000
  C   C507      1.0  0.12854  0.94784  0.32425  1.0000
  C   C508      1.0  0.13919  0.94199  0.34734  1.0000
  C   C509      1.0  0.15522  0.95902  0.35902  1.0000
  C   C510      1.0  0.16058  0.98211  0.34789  1.0000
  C   C511      1.0  0.14921  0.98822  0.32521  1.0000
  C   C512      1.0  0.13340  0.97113  0.31342  1.0000
  H   H867      1.0  0.13562  0.92412  0.35590  1.0000
  H   H868      1.0  0.16390  0.95412  0.37657  1.0000
  H   H869      1.0  0.29870  0.80265  0.06847  1.0000
  H   H870      1.0  0.12518  0.97587  0.29561  1.0000
  C   C513      1.0  0.04949  0.79455  0.27238  1.0000
  H   H871      1.0  0.13320  0.76948  0.20159  1.0000
  H   H872      1.0  0.37249  0.85909  0.45229  1.0000
  H   H873      1.0  0.15987  0.84924  0.35915  1.0000
  C   C514      1.0  0.12975  0.80731  0.40520  1.0000
  C   C515      1.0  0.14877  0.80272  0.42270  1.0000
  H   H874      1.0  0.31482  0.80267  0.45664  1.0000
  H   H875      1.0  0.35299  0.81355  0.11244  1.0000
  H   H876      1.0  0.15805  0.81816  0.43144  1.0000
  C   C516      1.0  0.41676  0.86297  0.47771  1.0000
  C   C517      1.0  0.42543  0.87467  0.45583  1.0000
  C   C518      1.0  0.43975  0.86155  0.43811  1.0000
  C   C519      1.0  0.44546  0.83650  0.44205  1.0000
  C   C520      1.0  0.43692  0.82480  0.46400  1.0000
  C   C521      1.0  0.42272  0.83798  0.48182  1.0000
  H   H877      1.0  0.42082  0.89397  0.45243  1.0000
  H   H878      1.0  0.44618  0.87079  0.42131  1.0000
  H   H879      1.0  0.44127  0.80543  0.46721  1.0000
  H   H880      1.0  0.41622  0.82878  0.49859  1.0000
  H   H881      1.0  0.19890  0.77815  0.31631  1.0000
  H   H882      1.0  0.36113  0.87057  0.42334  1.0000
  H   H883      1.0  0.22147  0.79334  0.33474  1.0000
  H   H884      1.0  0.32520  0.87605  0.48587  1.0000
  H   H885      1.0  0.49548  0.81237  0.46106  1.0000
  H   H886      1.0  0.30075  0.87361  0.46420  1.0000
  C   C522      1.0  0.15728  0.80412  0.33552  1.0000
  H   H887      1.0  0.11315  0.77858  0.16160  1.0000
  H   H888      1.0  0.08636  0.82483  0.20333  1.0000
  H   H889      1.0  0.17137  0.77501  0.44167  1.0000
  C   C523      1.0  0.38211  0.82415  0.08715  1.0000
  H   H890      1.0  0.35610  0.84754  0.49083  1.0000
  C   C524      1.0  0.49314  0.83032  0.49676  1.0000
  C   C525      1.0  0.34380  0.83182  0.48576  1.0000
  C   C526      1.0  0.07032  0.95536  0.36488  1.0000
  C   C527      1.0  0.04412  0.86261  0.42128  1.0000
  H   H891      1.0  0.48744  0.80210  0.21557  1.0000
  H   H892      1.0  0.04706  0.86189  0.40075  1.0000
  C   C528      1.0  0.06135  0.78256  0.14096  1.0000
  H   H893      1.0  0.05036  0.79911  0.17593  1.0000
  C   C529      1.0  0.08331  0.78463  0.20949  1.0000
  C   C530      1.0  0.33453  0.84668  0.44274  1.0000
  H   H894      1.0  0.07323  0.94426  0.38215  1.0000
  H   H895      1.0  0.46350  0.78268  0.20415  1.0000
  H   H896      1.0  0.08054  0.80765  0.16447  1.0000
  H   H897      1.0  0.07053  0.82345  0.40856  1.0000
  H   H898      1.0  0.33541  0.82563  0.50374  1.0000
  H   H899      1.0  0.36930  0.95862  0.05884  1.0000
  C   C531      1.0  0.35552  0.86619  0.44285  1.0000
  S   S164      1.0  0.33789  0.99632  0.17491  1.0000
  H   H900      1.0  0.51295  0.84972  0.25089  1.0000
  N   N36       1.0  0.32364  0.84013  0.46789  1.0000
  H   H901      1.0  0.08256  0.78729  0.43666  1.0000
  H   H902      1.0  0.27496  0.84922  0.49376  1.0000
  H   H903      1.0  0.41730  0.88480  0.20354  1.0000
  H   H904      1.0  0.50482  0.83475  0.51309  1.0000
  H   H905      1.0  0.24271  0.93996  0.24306  1.0000
  H   H906      1.0  0.35084  0.79322  0.47334  1.0000
  C   C532      1.0  0.31100  0.86281  0.47870  1.0000
  H   H907      1.0  0.37029  0.78521  0.04913  1.0000
  H   H908      1.0  0.30411  0.99995  0.09659  1.0000
  H   H909      1.0  0.07929  0.83046  0.43957  1.0000
  H   H910      1.0  0.22534  0.96455  0.22740  1.0000
  H   H911      1.0  0.34192  0.82986  0.43319  1.0000
  H   H912      1.0  0.15678  0.82072  0.32324  1.0000
  H   H913      1.0  0.25875  0.96502  0.22841  1.0000
  H   H914      1.0  0.42776  0.85724  0.18884  1.0000
  C   C533      1.0  0.25676  0.78182  0.04234  1.0000
  H   H915      1.0  0.15869  0.77723  0.30452  1.0000
  C   C534      1.0  0.28297  0.82469  0.44718  1.0000
  S   S165      1.0  0.51578  0.82134  0.36953  1.0000
  H   H916      1.0  0.05421  0.79146  0.45403  1.0000
  N   N37       1.0  0.44972  0.83789  0.23614  1.0000
  C   C535      1.0  0.42950  0.85672  0.23009  1.0000
  C   C536      1.0  0.44260  0.82548  0.26044  1.0000
  C   C537      1.0  0.44973  0.81877  0.21573  1.0000
  C   C538      1.0  0.47464  0.85105  0.23720  1.0000
  C   C539      1.0  0.43171  0.86986  0.20453  1.0000
  C   C540      1.0  0.43707  0.84304  0.28237  1.0000
  C   C541      1.0  0.46772  0.79650  0.21879  1.0000
  H   H917      1.0  0.06472  0.78920  0.21788  1.0000
  H   H918      1.0  0.41058  0.84808  0.23109  1.0000
  H   H919      1.0  0.42919  0.87193  0.24402  1.0000
  H   H920      1.0  0.45735  0.81242  0.26693  1.0000
  H   H921      1.0  0.42558  0.81389  0.25801  1.0000
  H   H922      1.0  0.43050  0.81114  0.21338  1.0000
  H   H923      1.0  0.45490  0.82726  0.19748  1.0000
  H   H924      1.0  0.48279  0.85322  0.21817  1.0000
  H   H925      1.0  0.47223  0.87028  0.24406  1.0000
  C   C542      1.0  0.29248  0.85792  0.50037  1.0000
  H   H926      1.0  0.05572  0.79881  0.12941  1.0000
  H   H927      1.0  0.29353  0.82196  0.11133  1.0000
  H   H928      1.0  0.43539  0.83191  0.29973  1.0000
  H   H929      1.0  0.45219  0.85671  0.28505  1.0000
  H   H930      1.0  0.41893  0.85297  0.28013  1.0000
  C   C543      1.0  0.49515  0.83952  0.25390  1.0000
  C   C544      1.0  0.04195  0.94389  0.30769  1.0000
  C   C545      1.0  0.04376  0.00395  0.34699  1.0000
  H   H931      1.0  0.49044  0.84147  0.27391  1.0000
  C   C546      1.0  0.03270  0.83680  0.45890  1.0000
  C   C547      1.0  0.29869  0.00675  0.25239  1.0000
  N   N38       1.0  0.21897  0.97266  0.28022  1.0000
  C   C548      1.0  0.19531  0.97923  0.26634  1.0000
  C   C549      1.0  0.21740  0.94611  0.28900  1.0000
  C   C550      1.0  0.24172  0.97527  0.26367  1.0000
  C   C551      1.0  0.22151  0.99022  0.30184  1.0000
  H   H932      1.0  0.49902  0.81981  0.25004  1.0000
  C   C552      1.0  0.19627  0.94035  0.30783  1.0000
  H   H933      1.0  0.23809  0.96632  0.33124  1.0000
  C   C553      1.0  0.24209  0.98376  0.32097  1.0000
  H   H934      1.0  0.19061  0.96471  0.25251  1.0000
  H   H935      1.0  0.17899  0.97976  0.27934  1.0000
  H   H936      1.0  0.23549  0.93989  0.29729  1.0000
  H   H937      1.0  0.21422  0.93353  0.27300  1.0000
  C   C554      1.0  0.18199  0.77672  0.36219  1.0000
  H   H938      1.0  0.11512  0.80809  0.19698  1.0000
  N   N39       1.0  0.03526  0.97811  0.34066  1.0000
  H   H939      1.0  0.20353  0.99191  0.31229  1.0000
  H   H940      1.0  0.04970  0.83611  0.47088  1.0000
  C   C555      1.0  0.20544  0.81625  0.30650  1.0000
  C   C556      1.0  0.30534  0.81926  0.46459  1.0000
  H   H941      1.0  0.19766  0.92062  0.31372  1.0000
  H   H942      1.0  0.19757  0.95161  0.32494  1.0000
  H   H943      1.0  0.17751  0.94285  0.29937  1.0000
  H   H944      1.0  0.10467  0.81307  0.22852  1.0000
  C   C557      1.0  0.36114  0.81061  0.47681  1.0000
  H   H945      1.0  0.29796  0.81246  0.48277  1.0000
  C   C558      1.0  0.06674  0.87653  0.43214  1.0000
  H   H946      1.0  0.04237  0.98277  0.30118  1.0000
  H   H947      1.0  0.37224  0.81585  0.46008  1.0000
  N   N40       1.0  0.33541  0.81755  0.07637  1.0000
  C   C559      1.0  0.32866  0.84420  0.08155  1.0000
  C   C560      1.0  0.35737  0.81027  0.09245  1.0000
  H   H948      1.0  0.37484  0.80635  0.49177  1.0000
  C   C561      1.0  0.34183  0.81520  0.04908  1.0000
  C   C562      1.0  0.30496  0.85423  0.06844  1.0000
  H   H949      1.0  0.46566  0.78674  0.23690  1.0000
  N   N41       1.0  0.07987  0.77252  0.18450  1.0000
  N   N42       1.0  0.03982  0.83687  0.43158  1.0000
  H   H950      1.0  0.32657  0.84752  0.10191  1.0000
  H   H951      1.0  0.34409  0.85658  0.07553  1.0000
  C   C563      1.0  0.31386  0.80050  0.08237  1.0000
  H   H952      1.0  0.18380  0.85252  0.33574  1.0000
  H   H953      1.0  0.38050  0.84422  0.09129  1.0000
  H   H954      1.0  0.33840  0.77450  0.04490  1.0000
  H   H955      1.0  0.32515  0.81909  0.03741  1.0000
  H   H956      1.0  0.35573  0.82947  0.04327  1.0000
  H   H957      1.0  0.30145  0.87355  0.07471  1.0000
  H   H958      1.0  0.24267  0.99864  0.33516  1.0000
  H   H959      1.0  0.28794  0.84343  0.07303  1.0000
  H   H960      1.0  0.06492  0.89663  0.42775  1.0000
  H   H961      1.0  0.37872  0.98314  0.10569  1.0000
  H   H962      1.0  0.05758  0.93708  0.29577  1.0000
  H   H963      1.0  0.25109  0.82129  0.04551  1.0000
  H   H964      1.0  0.27725  0.84444  0.44687  1.0000
  H   H965      1.0  0.20926  0.78579  0.39188  1.0000
  C   C564      1.0  0.30190  0.80333  0.10846  1.0000
  H   H966      1.0  0.21961  0.81019  0.29251  1.0000
  C   C565      1.0  0.02979  0.81078  0.26669  1.0000
  H   H967      1.0  0.30751  0.85516  0.04794  1.0000
  C   C566      1.0  0.19534  0.00453  0.25265  1.0000
  H   H968      1.0  0.02819  0.87628  0.46901  1.0000
  H   H969      1.0  0.09245  0.77195  0.22308  1.0000
  H   H970      1.0  0.31969  0.85408  0.43017  1.0000
  H   H971      1.0  0.45019  0.87887  0.20192  1.0000
  C   C567      1.0  0.04898  0.77022  0.26310  1.0000
  H   H972      1.0  0.07753  0.94406  0.34921  1.0000
  H   H973      1.0  0.49600  0.85539  0.44946  1.0000
  H   H974      1.0  0.39694  0.81658  0.09955  1.0000
  H   H975      1.0  0.51744  0.80168  0.48333  1.0000
  H   H976      1.0  0.06823  0.87433  0.45261  1.0000
  H   H977      1.0  0.35450  0.78982  0.02026  1.0000
  H   H978      1.0  0.19029  0.78934  0.02858  1.0000
  H   H979      1.0  0.28714  0.87585  0.50906  1.0000
  H   H980      1.0  0.30120  0.00361  0.29235  1.0000
  C   C568      1.0  0.24166  0.96019  0.23935  1.0000
  H   H981      1.0  0.51681  0.89108  0.43026  1.0000
  C   C569      1.0  0.06394  0.82238  0.42827  1.0000
  H   H982      1.0  0.34951  0.88382  0.45163  1.0000
  H   H983      1.0  0.16580  0.77774  0.37510  1.0000
  S   S166      1.0  0.49654  0.79335  0.30072  1.0000
  H   H984      1.0  0.07761  0.77375  0.13152  1.0000
  H   H985      1.0  0.28743  0.81891  0.42781  1.0000
  C   C570      1.0  0.38636  0.97008  0.05699  1.0000
  C   C571      1.0  0.11773  0.78722  0.39418  1.0000
  C   C572      1.0  0.06792  0.79152  0.16740  1.0000
  H   H986      1.0  0.21069  0.82257  0.36507  1.0000
  H   H987      1.0  0.10300  0.79046  0.38074  1.0000
  S   S167      1.0  0.50907  0.86127  0.32261  1.0000
  H   H988      1.0  0.26633  0.81421  0.45391  1.0000
  C   C573      1.0  0.26104  0.80669  0.03578  1.0000
  H   H989      1.0  0.47901  0.81655  0.50312  1.0000
  H   H990      1.0  0.38893  0.82173  0.06776  1.0000
  C   C574      1.0  0.51559  0.85921  0.45544  1.0000
  H   H991      1.0  0.18956  0.86161  0.36715  1.0000
  H   H992      1.0  0.34154  0.97782  0.08230  1.0000
  H   H993      1.0  0.18235  0.81856  0.38212  1.0000
  C   C575      1.0  0.14631  0.78270  0.32019  1.0000
  C   C576      1.0  0.15631  0.77829  0.42861  1.0000
  H   H994      1.0  0.31976  0.78074  0.08104  1.0000
  H   H995      1.0  0.48247  0.84700  0.49068  1.0000
  C   C577      1.0  0.18998  0.82141  0.36290  1.0000
  H   H996      1.0  0.08450  0.87011  0.42337  1.0000
  H   H997      1.0  0.02433  0.94370  0.29677  1.0000
  H   H998      1.0  0.14357  0.80811  0.35076  1.0000
  H   H999      1.0  0.18785  0.81981  0.29615  1.0000
  C   C578      1.0  0.04796  0.97030  0.31678  1.0000
  C   C579      1.0  0.20259  0.79574  0.32634  1.0000
  H   H1000     1.0  0.15294  0.00592  0.31649  1.0000
  C   C580      1.0  0.50885  0.81884  0.47544  1.0000
  H   H1001     1.0  0.04044  0.93019  0.32305  1.0000
  H   H1002     1.0  0.08173  0.97236  0.36655  1.0000
  H   H1003     1.0  0.17654  0.00783  0.24441  1.0000
  H   H1004     1.0  0.24665  0.76789  0.50442  1.0000
  H   H1005     1.0  0.28630  0.78983  0.11029  1.0000
  H   H1006     1.0  0.50807  0.77096  0.25379  1.0000
  H   H1007     1.0  0.21261  0.83359  0.31466  1.0000
  H   H1008     1.0  0.31538  0.79907  0.12354  1.0000
  H   H1009     1.0  0.12826  0.78900  0.31194  1.0000
  H   H1010     1.0  0.06871  0.97253  0.31754  1.0000
  C   C581      1.0  0.35182  0.78960  0.04080  1.0000
  H   H1011     1.0  0.39595  0.96413  0.03957  1.0000
  H   H1012     1.0  0.39924  0.96568  0.07256  1.0000
  H   H1013     1.0  0.22559  0.00935  0.29512  1.0000
  H   H1014     1.0  0.20908  0.00513  0.23708  1.0000
  H   H1015     1.0  0.02995  0.82954  0.27373  1.0000
  C   C582      1.0  0.09837  0.80899  0.20926  1.0000
  C   C583      1.0  0.26634  0.77064  0.50818  1.0000
  H   H1016     1.0  0.03573  0.96898  0.38008  1.0000
  Fe  Fe83      1.0  0.37807  0.00790  0.17671  1.0000
  C   C584      1.0  0.20528  0.77096  0.37829  1.0000
  H   H1017     1.0  0.33091  0.99948  0.05997  1.0000
  C   C585      1.0  0.04211  0.96104  0.36201  1.0000
  C   C586      1.0  0.34048  0.99803  0.07831  1.0000
  H   H1018     1.0  0.03211  0.94301  0.36085  1.0000
  H   H1019     1.0  0.36904  0.00044  0.03774  1.0000
  C   C587      1.0  0.38014  0.99805  0.05510  1.0000
  H   H1020     1.0  0.32939  0.00440  0.11743  1.0000
  H   H1021     1.0  0.39805  0.00799  0.05151  1.0000
  H   H1022     1.0  0.41916  0.00262  0.08794  1.0000
  H   H1023     1.0  0.41513  0.00579  0.12073  1.0000
  C   C588      1.0  0.37965  0.00332  0.10116  1.0000
  N   N43       1.0  0.36636  0.00906  0.07706  1.0000
  H   H1024     1.0  0.02626  0.82326  0.39631  1.0000
  C   C589      1.0  0.40731  0.01147  0.10241  1.0000
  C   C590      1.0  0.32276  0.00883  0.09837  1.0000
  H   H1025     1.0  0.37015  0.01264  0.11708  1.0000
  H   H1026     1.0  0.02743  0.87473  0.42373  1.0000
  H   H1027     1.0  0.04510  0.76981  0.14109  1.0000
  H   H1028     1.0  0.03778  0.00913  0.36619  1.0000
  H   H1029     1.0  0.02213  0.81966  0.46377  1.0000
  C   C591      1.0  0.29218  0.01306  0.27693  1.0000
  H   H1030     1.0  0.22216  0.76709  0.36681  1.0000
  C   C592      1.0  0.02007  0.82431  0.41615  1.0000
  H   H1031     1.0  0.24732  0.99970  0.82120  1.0000
  H   H1032     1.0  0.04950  0.83752  0.70466  1.0000
  S   S168      1.0  0.04919  0.88332  0.65716  1.0000
  H   H1033     1.0  0.16748  0.77407  0.92129  1.0000
  Fe  Fe84      1.0  0.35310  0.88406  0.58210  1.0000
  S   S169      1.0  0.35307  0.84598  0.59929  1.0000
  S   S170      1.0  0.33623  0.91804  0.60125  1.0000
  H   H1034     1.0  0.07824  0.85343  0.78801  1.0000
  S   S171      1.0  0.38254  0.82627  0.54897  1.0000
  Fe  Fe85      1.0  0.34252  0.83287  0.56093  1.0000
  S   S172      1.0  0.30748  0.80916  0.55789  1.0000
  Fe  Fe86      1.0  0.39314  0.84313  0.58596  1.0000
  S   S173      1.0  0.42517  0.82499  0.60757  1.0000
  S   S174      1.0  0.34068  0.87129  0.54451  1.0000
  S   S175      1.0  0.39419  0.88227  0.57161  1.0000
  Fe  Fe87      1.0  0.16595  0.95750  0.70292  1.0000
  S   S176      1.0  0.16680  0.96937  0.66286  1.0000
  S   S177      1.0  0.13578  0.93273  0.72004  1.0000
  Fe  Fe88      1.0  0.21724  0.98163  0.71342  1.0000
  C   C593      1.0  0.09111  0.84084  0.77769  1.0000
  S   S178      1.0  0.25132  0.98219  0.73892  1.0000
  H   H1035     1.0  0.27923  0.94225  0.90989  1.0000
  Fe  Fe89      1.0  0.20738  0.95753  0.66281  1.0000
  S   S179      1.0  0.22177  0.92940  0.63446  1.0000
  Fe  Fe90      1.0  0.38161  0.86575  0.53540  1.0000
  S   S180      1.0  0.20559  0.94333  0.70209  1.0000
  H   H1036     1.0  0.43018  0.76938  0.72459  1.0000
  Fe  Fe91      1.0  0.34319  0.88940  0.96022  1.0000
  S   S181      1.0  0.38393  0.88810  0.97050  1.0000
  S   S182      1.0  0.32340  0.92410  0.94567  1.0000
  Fe  Fe92      1.0  0.33433  0.83577  0.97779  1.0000
  S   S183      1.0  0.37437  0.83100  0.98960  1.0000
  S   S184      1.0  0.31087  0.80077  0.97877  1.0000
  H   H1037     1.0  0.49365  0.86140  0.54904  1.0000
  Fe  Fe93      1.0  0.38411  0.84982  0.95358  1.0000
  S   S185      1.0  0.41286  0.83580  0.92541  1.0000
  S   S186      1.0  0.32938  0.87263  0.99656  1.0000
  S   S187      1.0  0.34418  0.85266  0.94064  1.0000
  H   H1038     1.0  0.07351  0.79314  0.74715  1.0000
  C   C594      1.0  0.29503  0.95826  0.68970  1.0000
  C   C595      1.0  0.42124  0.78880  0.94522  1.0000
  C   C596      1.0  0.42385  0.80472  0.92469  1.0000
  C   C597      1.0  0.43488  0.79556  0.90271  1.0000
  H   H1039     1.0  0.16067  0.85925  0.59875  1.0000
  H   H1040     1.0  0.41328  0.79576  0.96240  1.0000
  H   H1041     1.0  0.43723  0.80780  0.88681  1.0000
  C   C598      1.0  0.51498  0.78831  0.78356  1.0000
  H   H1042     1.0  0.24679  0.99761  0.88210  1.0000
  H   H1043     1.0  0.29625  0.99315  0.76545  1.0000
  C   C599      1.0  0.44219  0.77047  0.90087  1.0000
  H   H1044     1.0  0.09007  0.84705  0.62593  1.0000
  C   C600      1.0  0.44761  0.84150  0.62500  1.0000
  C   C601      1.0  0.46899  0.82881  0.63355  1.0000
  C   C602      1.0  0.48716  0.84099  0.64782  1.0000
  C   C603      1.0  0.48404  0.86595  0.65402  1.0000
  C   C604      1.0  0.46263  0.87868  0.64551  1.0000
  C   C605      1.0  0.44456  0.86658  0.63091  1.0000
  H   H1045     1.0  0.47152  0.80942  0.62905  1.0000
  H   H1046     1.0  0.50355  0.83101  0.65401  1.0000
  H   H1047     1.0  0.46008  0.89806  0.65006  1.0000
  H   H1048     1.0  0.42816  0.87658  0.62445  1.0000
  H   H1049     1.0  0.37705  0.76525  0.95305  1.0000
  H   H1050     1.0  0.51576  0.82417  0.57426  1.0000
  C   C606      1.0  0.28662  0.76912  0.01056  1.0000
  C   C607      1.0  0.30380  0.92132  0.60819  1.0000
  C   C608      1.0  0.29466  0.94434  0.61656  1.0000
  C   C609      1.0  0.26962  0.94710  0.62466  1.0000
  C   C610      1.0  0.25330  0.92693  0.62403  1.0000
  C   C611      1.0  0.26217  0.90412  0.61483  1.0000
  C   C612      1.0  0.28734  0.90125  0.60711  1.0000
  H   H1051     1.0  0.30710  0.96011  0.61699  1.0000
  H   H1052     1.0  0.26286  0.96489  0.63114  1.0000
  H   H1053     1.0  0.24964  0.88845  0.61403  1.0000
  H   H1054     1.0  0.29408  0.88345  0.60062  1.0000
  C   C613      1.0  0.35999  0.98169  0.89347  1.0000
  C   C614      1.0  0.37025  0.95770  0.89556  1.0000
  C   C615      1.0  0.35976  0.94008  0.91206  1.0000
  C   C616      1.0  0.33874  0.94627  0.92650  1.0000
  C   C617      1.0  0.32870  0.97036  0.92464  1.0000
  C   C618      1.0  0.33929  0.98802  0.90829  1.0000
  H   H1055     1.0  0.38632  0.95264  0.88427  1.0000
  H   H1056     1.0  0.36768  0.92160  0.91332  1.0000
  H   H1057     1.0  0.31261  0.97539  0.93592  1.0000
  C   C619      1.0  0.15167  0.91060  0.59417  1.0000
  H   H1058     1.0  0.12994  0.88427  0.66756  1.0000
  C   C620      1.0  0.48637  0.86252  0.56837  1.0000
  H   H1059     1.0  0.20296  0.85593  0.60710  1.0000
  C   C621      1.0  0.43485  0.78927  0.67977  1.0000
  H   H1060     1.0  0.25188  0.95208  0.89371  1.0000
  C   C622      1.0  0.10950  0.92222  0.70314  1.0000
  C   C623      1.0  0.09217  0.90646  0.71497  1.0000
  C   C624      1.0  0.07257  0.89554  0.70145  1.0000
  C   C625      1.0  0.07024  0.90023  0.67591  1.0000
  C   C626      1.0  0.08663  0.91721  0.66446  1.0000
  C   C627      1.0  0.10617  0.92816  0.67797  1.0000
  H   H1061     1.0  0.09409  0.90257  0.73466  1.0000
  H   H1062     1.0  0.05957  0.88313  0.71064  1.0000
  H   H1063     1.0  0.08431  0.92177  0.64494  1.0000
  H   H1064     1.0  0.11888  0.94087  0.66883  1.0000
  N   N44       1.0  0.09773  0.82272  0.73373  1.0000
  C   C628      1.0  0.12542  0.82803  0.73488  1.0000
  C   C629      1.0  0.09354  0.79646  0.74271  1.0000
  C   C630      1.0  0.08300  0.84012  0.75013  1.0000
  C   C631      1.0  0.08906  0.82626  0.70725  1.0000
  H   H1065     1.0  0.12554  0.86823  0.74366  1.0000
  C   C632      1.0  0.30773  0.98148  0.70036  1.0000
  H   H1066     1.0  0.49771  0.84681  0.73701  1.0000
  C   C633      1.0  0.49240  0.83190  0.72389  1.0000
  H   H1067     1.0  0.13319  0.82270  0.75340  1.0000
  C   C634      1.0  0.44597  0.77360  0.76061  1.0000
  H   H1068     1.0  0.49111  0.76971  0.67584  1.0000
  H   H1069     1.0  0.10336  0.79292  0.76066  1.0000
  H   H1070     1.0  0.08357  0.85939  0.74272  1.0000
  H   H1071     1.0  0.06276  0.83528  0.75002  1.0000
  H   H1072     1.0  0.09158  0.84583  0.70118  1.0000
  S   S188      1.0  0.17724  0.99477  0.71816  1.0000
  C   C635      1.0  0.18711  0.77411  0.95674  1.0000
  H   H1073     1.0  0.34602  0.77552  0.95028  1.0000
  H   H1074     1.0  0.46270  0.81699  0.68524  1.0000
  H   H1075     1.0  0.23243  0.79589  0.92707  1.0000
  H   H1076     1.0  0.49791  0.87100  0.60562  1.0000
  C   C636      1.0  0.24305  0.78301  0.93939  1.0000
  C   C637      1.0  0.49708  0.78082  0.69209  1.0000
  H   H1077     1.0  0.19914  0.85711  0.64052  1.0000
  H   H1078     1.0  0.24727  0.77953  0.97933  1.0000
  H   H1079     1.0  0.26278  0.78945  0.94041  1.0000
  C   C638      1.0  0.14793  0.87792  0.65910  1.0000
  N   N45       1.0  0.31023  0.93457  0.69073  1.0000
  C   C639      1.0  0.33292  0.93828  0.67412  1.0000
  C   C640      1.0  0.10903  0.84964  0.63399  1.0000
  C   C641      1.0  0.29529  0.91321  0.68050  1.0000
  C   C642      1.0  0.31949  0.92873  0.71662  1.0000
  C   C643      1.0  0.34896  0.91494  0.66869  1.0000
  H   H1080     1.0  0.19819  0.88469  0.62112  1.0000
  C   C644      1.0  0.26719  0.91195  0.68735  1.0000
  H   H1081     1.0  0.18731  0.89018  0.66479  1.0000
  H   H1082     1.0  0.47891  0.80915  0.75325  1.0000
  H   H1083     1.0  0.12792  0.86158  0.71077  1.0000
  H   H1084     1.0  0.34593  0.95213  0.68211  1.0000
  C   C645      1.0  0.50625  0.87214  0.58666  1.0000
  H   H1085     1.0  0.29578  0.91351  0.65978  1.0000
  H   H1086     1.0  0.30384  0.89512  0.68601  1.0000
  H   H1087     1.0  0.32969  0.91069  0.71683  1.0000
  Fe  Fe94      1.0  0.37028  0.86938  0.00568  1.0000
  H   H1088     1.0  0.33406  0.95850  0.84738  1.0000
  H   H1089     1.0  0.35698  0.90659  0.68581  1.0000
  H   H1090     1.0  0.33842  0.90078  0.65817  1.0000
  H   H1091     1.0  0.10086  0.81563  0.69384  1.0000
  H   H1092     1.0  0.50813  0.89233  0.58263  1.0000
  H   H1093     1.0  0.47013  0.87555  0.56826  1.0000
  H   H1094     1.0  0.25652  0.92732  0.67846  1.0000
  H   H1095     1.0  0.26359  0.91188  0.70762  1.0000
  H   H1096     1.0  0.25928  0.89456  0.67979  1.0000
  H   H1097     1.0  0.16972  0.76836  0.96675  1.0000
  H   H1098     1.0  0.22627  0.80227  0.96957  1.0000
  H   H1099     1.0  0.15025  0.85827  0.66521  1.0000
  H   H1100     1.0  0.23967  0.96713  0.85771  1.0000
  C   C646      1.0  0.16825  0.89314  0.67238  1.0000
  H   H1101     1.0  0.49947  0.80030  0.68631  1.0000
  H   H1102     1.0  0.50685  0.80297  0.79472  1.0000
  C   C647      1.0  0.13322  0.85516  0.72967  1.0000
  H   H1103     1.0  0.51601  0.82861  0.60701  1.0000
  H   H1104     1.0  0.47879  0.84430  0.57448  1.0000
  H   H1105     1.0  0.04443  0.81687  0.79854  1.0000
  C   C648      1.0  0.44863  0.80749  0.69693  1.0000
  H   H1106     1.0  0.10621  0.85087  0.65443  1.0000
  H   H1107     1.0  0.22331  0.97692  0.81844  1.0000
  C   C649      1.0  0.31737  0.77830  0.51792  1.0000
  C   C650      1.0  0.29096  0.79401  0.00409  1.0000
  H   H1108     1.0  0.32459  0.98692  0.68954  1.0000
  H   H1109     1.0  0.18615  0.79474  0.95584  1.0000
  H   H1110     1.0  0.29885  0.00118  0.87049  1.0000
  C   C651      1.0  0.10200  0.77579  0.72478  1.0000
  H   H1111     1.0  0.28340  0.93918  0.73504  1.0000
  C   C652      1.0  0.32549  0.97208  0.83429  1.0000
  H   H1112     1.0  0.48694  0.84135  0.70635  1.0000
  H   H1113     1.0  0.29243  0.97855  0.81331  1.0000
  H   H1114     1.0  0.30806  0.93245  0.75545  1.0000
  H   H1115     1.0  0.08989  0.82240  0.78685  1.0000
  H   H1116     1.0  0.16861  0.88796  0.69244  1.0000
  S   S189      1.0  0.07130  0.77420  0.81630  1.0000
  H   H1117     1.0  0.03084  0.78552  0.85881  1.0000
  H   H1118     1.0  0.12208  0.77727  0.71967  1.0000
  H   H1119     1.0  0.28968  0.96261  0.67012  1.0000
  H   H1120     1.0  0.45607  0.83012  0.74134  1.0000
  H   H1121     1.0  0.33593  0.97030  0.81643  1.0000
  C   C653      1.0  0.15202  0.90602  0.62255  1.0000
  H   H1122     1.0  0.50950  0.82045  0.72113  1.0000
  H   H1123     1.0  0.33397  0.94219  0.72265  1.0000
  H   H1124     1.0  0.34101  0.79485  0.89689  1.0000
  H   H1125     1.0  0.05908  0.81392  0.68285  1.0000
  H   H1126     1.0  0.29289  0.90732  0.73951  1.0000
  H   H1127     1.0  0.36142  0.80186  0.92319  1.0000
  C   C654      1.0  0.47101  0.81671  0.73568  1.0000
  H   H1128     1.0  0.10725  0.88890  0.62769  1.0000
  C   C655      1.0  0.27193  0.95633  0.89649  1.0000
  N   N46       1.0  0.27980  0.97180  0.85121  1.0000
  C   C656      1.0  0.29746  0.96688  0.82966  1.0000
  C   C657      1.0  0.25382  0.96497  0.84275  1.0000
  C   C658      1.0  0.28750  0.95479  0.87231  1.0000
  H   H1129     1.0  0.30705  0.95851  0.87812  1.0000
  H   H1130     1.0  0.36497  0.92036  0.65651  1.0000
  H   H1131     1.0  0.37252  0.80405  0.89221  1.0000
  H   H1132     1.0  0.15669  0.93028  0.59048  1.0000
  H   H1133     1.0  0.45072  0.78803  0.77442  1.0000
  H   H1134     1.0  0.29590  0.94729  0.82335  1.0000
  C   C659      1.0  0.06119  0.82060  0.70225  1.0000
  H   H1135     1.0  0.15395  0.85651  0.73081  1.0000
  H   H1136     1.0  0.25311  0.94489  0.83800  1.0000
  H   H1137     1.0  0.28736  0.93508  0.86618  1.0000
  H   H1138     1.0  0.11934  0.87179  0.60231  1.0000
  H   H1139     1.0  0.43503  0.82246  0.70194  1.0000
  H   H1140     1.0  0.12021  0.83291  0.62935  1.0000
  C   C660      1.0  0.19260  0.86509  0.62255  1.0000
  H   H1141     1.0  0.13587  0.81644  0.72122  1.0000
  H   H1142     1.0  0.32868  0.99121  0.84097  1.0000
  H   H1143     1.0  0.25966  0.79581  0.53861  1.0000
  Fe  Fe95      1.0  0.18031  0.00598  0.67770  1.0000
  H   H1144     1.0  0.33705  0.78076  0.52194  1.0000
  H   H1145     1.0  0.31232  0.97912  0.72036  1.0000
  C   C661      1.0  0.12045  0.87362  0.62292  1.0000
  C   C662      1.0  0.04941  0.77774  0.79200  1.0000
  H   H1146     1.0  0.17046  0.91268  0.62898  1.0000
  N   N47       1.0  0.21015  0.76555  0.97079  1.0000
  C   C663      1.0  0.19511  0.79167  0.00851  1.0000
  C   C664      1.0  0.29927  0.79048  0.53234  1.0000
  H   H1147     1.0  0.42364  0.79867  0.73834  1.0000
  H   H1148     1.0  0.43091  0.79862  0.66166  1.0000
  C   C665      1.0  0.24389  0.97951  0.81992  1.0000
  H   H1149     1.0  0.16368  0.91325  0.67167  1.0000
  C   C666      1.0  0.36007  0.79302  0.90468  1.0000
  C   C667      1.0  0.28204  0.99868  0.85858  1.0000
  N   N48       1.0  0.46004  0.79630  0.72011  1.0000
  H   H1150     1.0  0.33143  0.00650  0.90721  1.0000
  H   H1151     1.0  0.16054  0.84224  0.62650  1.0000
  H   H1152     1.0  0.44610  0.77244  0.67575  1.0000
  N   N49       1.0  0.14681  0.87977  0.63098  1.0000
  C   C668      1.0  0.23183  0.78272  0.96590  1.0000
  H   H1153     1.0  0.13281  0.90778  0.58615  1.0000
  S   S190      1.0  0.50684  0.88192  0.67155  1.0000
  H   H1154     1.0  0.13824  0.91904  0.63118  1.0000
  C   C669      1.0  0.29964  0.92669  0.73753  1.0000
  H   H1155     1.0  0.11029  0.84824  0.77991  1.0000
  H   H1156     1.0  0.25220  0.97240  0.80234  1.0000
  H   H1157     1.0  0.32732  0.94600  0.65567  1.0000
  H   H1158     1.0  0.05332  0.80579  0.71424  1.0000
  H   H1159     1.0  0.27691  0.95659  0.69966  1.0000
  H   H1160     1.0  0.09033  0.77546  0.70773  1.0000
  S   S191      1.0  0.37299  0.00295  0.87165  1.0000
  C   C670      1.0  0.16428  0.86116  0.61907  1.0000
  C   C671      1.0  0.02342  0.80530  0.76646  1.0000
  H   H1161     1.0  0.27421  0.97455  0.90564  1.0000
  S   S192      1.0  0.22125  0.99516  0.67378  1.0000
  H   H1162     1.0  0.16581  0.89908  0.58433  1.0000
  C   C672      1.0  0.25864  0.00664  0.75937  1.0000
  C   C673      1.0  0.27376  0.78655  0.52740  1.0000
  H   H1163     1.0  0.17802  0.79866  0.99908  1.0000
  C   C674      1.0  0.03953  0.80142  0.78681  1.0000
  H   H1164     1.0  0.21011  0.80581  0.00765  1.0000
  H   H1165     1.0  0.28111  0.83200  0.01156  1.0000
  C   C675      1.0  0.25941  0.01060  0.87231  1.0000
  C   C676      1.0  0.43890  0.78483  0.73503  1.0000
  H   H1166     1.0  0.38981  0.76663  0.90819  1.0000
  C   C677      1.0  0.28248  0.00708  0.77041  1.0000
  H   H1167     1.0  0.29431  0.99730  0.69918  1.0000
  H   H1168     1.0  0.41640  0.78389  0.68771  1.0000
  C   C678      1.0  0.36937  0.76594  0.90471  1.0000
  H   H1169     1.0  0.28528  0.01049  0.84173  1.0000
  H   H1170     1.0  0.51610  0.77379  0.69686  1.0000
  H   H1171     1.0  0.31275  0.77883  0.92089  1.0000
  C   C679      1.0  0.47937  0.77644  0.71465  1.0000
  H   H1172     1.0  0.49132  0.77310  0.73128  1.0000
  H   H1173     1.0  0.20033  0.76821  0.91789  1.0000
  C   C680      1.0  0.20410  0.76641  0.99830  1.0000
  H   H1174     1.0  0.24426  0.76452  0.93075  1.0000
  C   C681      1.0  0.18386  0.76457  0.92991  1.0000
  H   H1175     1.0  0.44884  0.01291  0.83273  1.0000
  H   H1176     1.0  0.41903  0.00644  0.80164  1.0000
  H   H1177     1.0  0.47598  0.00119  0.80169  1.0000
  C   C682      1.0  0.27814  0.81280  0.01673  1.0000
  H   H1178     1.0  0.56488  0.22276  0.20851  1.0000
  S   S193      1.0  0.87487  0.05070  0.37162  1.0000
  Fe  Fe96      1.0  0.72212  0.06325  0.19999  1.0000
  S   S194      1.0  0.68434  0.04679  0.20872  1.0000
  S   S195      1.0  0.75378  0.06638  0.22799  1.0000
  Fe  Fe97      1.0  0.70526  0.08332  0.14889  1.0000
  S   S196      1.0  0.66632  0.06893  0.15447  1.0000
  S   S197      1.0  0.72099  0.09862  0.11228  1.0000
  Fe  Fe98      1.0  0.66900  0.08294  0.19394  1.0000
  S   S198      1.0  0.63510  0.10214  0.21177  1.0000
  Fe  Fe99      1.0  0.68501  0.03417  0.16864  1.0000
  S   S199      1.0  0.70669  0.10021  0.18717  1.0000
  S   S200      1.0  0.72402  0.04775  0.16123  1.0000
  Fe  Fe100     1.0  0.57010  0.22082  0.32548  1.0000
  S   S201      1.0  0.56053  0.18038  0.32122  1.0000
  S   S202      1.0  0.56882  0.24617  0.29125  1.0000
  Fe  Fe101     1.0  0.59299  0.21217  0.37785  1.0000
  S   S203      1.0  0.58573  0.17142  0.37614  1.0000
  S   S204      1.0  0.60825  0.23062  0.41285  1.0000
  Fe  Fe102     1.0  0.59915  0.17315  0.33628  1.0000
  S   S205      1.0  0.63026  0.14818  0.32088  1.0000
  Fe  Fe103     1.0  0.54779  0.18273  0.36151  1.0000
  S   S206      1.0  0.60928  0.21342  0.33916  1.0000
  S   S207      1.0  0.55451  0.22368  0.36455  1.0000
  S   S208      1.0  0.66839  0.17334  0.03574  1.0000
  S   S209      1.0  0.67104  0.17600  0.49794  1.0000
  Fe  Fe104     1.0  0.96914  0.16203  0.33795  1.0000
  S   S210      1.0  0.98416  0.16943  0.37616  1.0000
  S   S211      1.0  0.95352  0.12587  0.32303  1.0000
  Fe  Fe105     1.0  0.98882  0.21167  0.31741  1.0000
  S   S212      1.0  0.99110  0.23252  0.28045  1.0000
  Fe  Fe106     1.0  0.96912  0.20836  0.37077  1.0000
  S   S213      1.0  0.94998  0.22500  0.40501  1.0000
  H   H1179     1.0  0.55006  0.17400  0.51492  1.0000
  S   S214      1.0  0.95156  0.19992  0.33367  1.0000
  H   H1180     1.0  0.67972  0.05760  0.10181  1.0000
  H   H1181     1.0  0.79075  0.03159  0.39308  1.0000
  Fe  Fe107     1.0  0.01874  0.18338  0.35674  1.0000
  C   C683      1.0  0.55517  0.19320  0.24745  1.0000
  C   C684      1.0  0.70073  0.23783  0.45630  1.0000
  H   H1182     1.0  0.86349  0.20787  0.41652  1.0000
  H   H1183     1.0  0.58338  0.24996  0.20513  1.0000
  C   C685      1.0  0.72347  0.06439  0.33371  1.0000
  C   C686      1.0  0.87209  0.21685  0.40003  1.0000
  H   H1184     1.0  0.55082  0.21333  0.24641  1.0000
  N   N50       1.0  0.72234  0.01606  0.07420  1.0000
  H   H1185     1.0  0.64956  0.08590  0.04554  1.0000
  H   H1186     1.0  0.55790  0.23623  0.45125  1.0000
  C   C687      1.0  0.62370  0.21390  0.43692  1.0000
  C   C688      1.0  0.62470  0.22411  0.46092  1.0000
  C   C689      1.0  0.63827  0.21222  0.48010  1.0000
  C   C690      1.0  0.65137  0.19019  0.47532  1.0000
  C   C691      1.0  0.64963  0.17956  0.45154  1.0000
  C   C692      1.0  0.63578  0.19128  0.43245  1.0000
  H   H1187     1.0  0.61514  0.24145  0.46465  1.0000
  H   H1188     1.0  0.63893  0.22030  0.49844  1.0000
  H   H1189     1.0  0.65953  0.16242  0.44768  1.0000
  H   H1190     1.0  0.63512  0.18316  0.41407  1.0000
  C   C693      1.0  0.70591  0.11952  0.09148  1.0000
  C   C694      1.0  0.68111  0.12735  0.09503  1.0000
  C   C695      1.0  0.66992  0.14394  0.07790  1.0000
  C   C696      1.0  0.68338  0.15291  0.05712  1.0000
  C   C697      1.0  0.70811  0.14491  0.05351  1.0000
  C   C698      1.0  0.71924  0.12822  0.07053  1.0000
  H   H1191     1.0  0.67060  0.12072  0.11103  1.0000
  H   H1192     1.0  0.65075  0.14995  0.08081  1.0000
  H   H1193     1.0  0.71874  0.15178  0.03776  1.0000
  H   H1194     1.0  0.73845  0.12232  0.06765  1.0000
  C   C699      1.0  0.63422  0.11450  0.24228  1.0000
  C   C700      1.0  0.61090  0.11817  0.25409  1.0000
  C   C701      1.0  0.60939  0.12851  0.27812  1.0000
  C   C702      1.0  0.63121  0.13541  0.29055  1.0000
  C   C703      1.0  0.65454  0.13160  0.27880  1.0000
  C   C704      1.0  0.65603  0.12147  0.25466  1.0000
  H   H1195     1.0  0.59392  0.11277  0.24468  1.0000
  H   H1196     1.0  0.59136  0.13086  0.28717  1.0000
  H   H1197     1.0  0.67152  0.13690  0.28827  1.0000
  H   H1198     1.0  0.67404  0.11918  0.24555  1.0000
  C   C705      1.0  0.89715  0.07137  0.35837  1.0000
  C   C706      1.0  0.90953  0.06582  0.33604  1.0000
  C   C707      1.0  0.92675  0.08271  0.32564  1.0000
  C   C708      1.0  0.93200  0.10525  0.33748  1.0000
  C   C709      1.0  0.91983  0.11074  0.35998  1.0000
  C   C710      1.0  0.90241  0.09389  0.37032  1.0000
  H   H1199     1.0  0.90574  0.04861  0.32666  1.0000
  H   H1200     1.0  0.93604  0.07833  0.30824  1.0000
  H   H1201     1.0  0.92370  0.12803  0.36927  1.0000
  H   H1202     1.0  0.89295  0.09834  0.38760  1.0000
  C   C711      1.0  0.78794  0.04727  0.26093  1.0000
  C   C712      1.0  0.77007  0.04172  0.24267  1.0000
  C   C713      1.0  0.58262  0.18879  0.25495  1.0000
  H   H1203     1.0  0.74535  0.06220  0.07948  1.0000
  H   H1204     1.0  0.79208  0.06643  0.26503  1.0000
  H   H1205     1.0  0.74868  0.06917  0.04777  1.0000
  H   H1206     1.0  0.59076  0.15051  0.42773  1.0000
  C   C714      1.0  0.68746  0.04756  0.08547  1.0000
  H   H1207     1.0  0.55004  0.18372  0.22999  1.0000
  H   H1208     1.0  0.69431  0.06196  0.07233  1.0000
  C   C715      1.0  0.75917  0.26325  0.51657  1.0000
  C   C716      1.0  0.52880  0.20741  0.44600  1.0000
  C   C717      1.0  0.01550  0.25319  0.27274  1.0000
  H   H1209     1.0  0.57475  0.19255  0.43175  1.0000
  H   H1210     1.0  0.99405  0.19514  0.42524  1.0000
  H   H1211     1.0  0.88593  0.23526  0.44847  1.0000
  H   H1212     1.0  0.83362  0.25977  0.45115  1.0000
  H   H1213     1.0  0.86633  0.25671  0.01864  1.0000
  H   H1214     1.0  0.57437  0.20450  0.47464  1.0000
  N   N51       1.0  0.54347  0.18586  0.45684  1.0000
  H   H1215     1.0  0.68161  0.09367  0.04342  1.0000
  C   C718      1.0  0.62089  0.17786  0.19457  1.0000
  C   C719      1.0  0.54420  0.23000  0.43721  1.0000
  N   N52       1.0  0.70118  0.05448  0.29177  1.0000
  H   H1216     1.0  0.78602  0.25661  0.39813  1.0000
  H   H1217     1.0  0.84417  0.02208  0.47145  1.0000
  C   C720      1.0  0.70384  0.07784  0.27640  1.0000
  H   H1218     1.0  0.56680  0.15556  0.49220  1.0000
  C   C721      1.0  0.69881  0.06038  0.31916  1.0000
  C   C722      1.0  0.52503  0.16528  0.46191  1.0000
  C   C723      1.0  0.72676  0.09420  0.28157  1.0000
  H   H1219     1.0  0.72347  0.03370  0.26546  1.0000
  H   H1220     1.0  0.54499  0.20825  0.49003  1.0000
  H   H1221     1.0  0.01711  0.18265  0.26615  1.0000
  C   C724      1.0  0.70891  0.03046  0.09434  1.0000
  S   S215      1.0  0.00505  0.22293  0.35417  1.0000
  H   H1222     1.0  0.70404  0.07339  0.25612  1.0000
  H   H1223     1.0  0.68756  0.09028  0.27946  1.0000
  H   H1224     1.0  0.68688  0.07721  0.32185  1.0000
  C   C725      1.0  0.79137  0.25605  0.04252  1.0000
  C   C726      1.0  0.67753  0.04164  0.28350  1.0000
  C   C727      1.0  0.00787  0.24448  0.42486  1.0000
  C   C728      1.0  0.01807  0.26119  0.24790  1.0000
  H   H1225     1.0  0.62732  0.19686  0.18999  1.0000
  H   H1226     1.0  0.76988  0.04702  0.06186  1.0000
  H   H1227     1.0  0.00836  0.21367  0.46462  1.0000
  H   H1228     1.0  0.74482  0.08422  0.27949  1.0000
  H   H1229     1.0  0.72535  0.10307  0.30011  1.0000
  H   H1230     1.0  0.72712  0.10949  0.26757  1.0000
  H   H1231     1.0  0.72081  0.08012  0.34675  1.0000
  C   C729      1.0  0.66370  0.09462  0.03304  1.0000
  H   H1232     1.0  0.83632  0.04245  0.44727  1.0000
  H   H1233     1.0  0.01507  0.17283  0.23473  1.0000
  H   H1234     1.0  0.80508  0.02273  0.49035  1.0000
  H   H1235     1.0  0.74299  0.02160  0.03982  1.0000
  H   H1236     1.0  0.82310  0.23032  0.40107  1.0000
  H   H1237     1.0  0.90476  0.02008  0.26123  1.0000
  H   H1238     1.0  0.59205  0.22275  0.18841  1.0000
  C   C730      1.0  0.71954  0.22394  0.47314  1.0000
  C   C731      1.0  0.56189  0.17736  0.43723  1.0000
  H   H1239     1.0  0.72177  0.04245  0.10493  1.0000
  H   H1240     1.0  0.79547  0.24267  0.05709  1.0000
  C   C732      1.0  0.87177  0.24549  0.40098  1.0000
  H   H1241     1.0  0.61457  0.16897  0.17708  1.0000
  H   H1242     1.0  0.71090  0.21906  0.49138  1.0000
  C   C733      1.0  0.59925  0.17770  0.21379  1.0000
  H   H1243     1.0  0.67136  0.25193  0.49296  1.0000
  H   H1244     1.0  0.67958  0.03479  0.26403  1.0000
  C   C734      1.0  0.73231  0.03267  0.05374  1.0000
  C   C735      1.0  0.80199  0.26326  0.40941  1.0000
  S   S216      1.0  0.00507  0.17328  0.31889  1.0000
  C   C736      1.0  0.76483  0.01693  0.23749  1.0000
  C   C737      1.0  0.55687  0.19451  0.47992  1.0000
  H   H1245     1.0  0.79782  0.25846  0.42912  1.0000
  N   N53       1.0  0.84975  0.25730  0.41408  1.0000
  H   H1246     1.0  0.76604  0.03024  0.10204  1.0000
  H   H1247     1.0  0.65069  0.06737  0.30209  1.0000
  H   H1248     1.0  0.53416  0.14849  0.46968  1.0000
  H   H1249     1.0  0.63679  0.04472  0.28236  1.0000
  H   H1250     1.0  0.00226  0.23348  0.40838  1.0000
  H   H1251     1.0  0.65228  0.07037  0.26840  1.0000
  H   H1252     1.0  0.56887  0.13863  0.44973  1.0000
  C   C738      1.0  0.01205  0.18918  0.43366  1.0000
  H   H1253     1.0  0.53125  0.24577  0.43338  1.0000
  H   H1254     1.0  0.86710  0.24148  0.47531  1.0000
  H   H1255     1.0  0.65801  0.11421  0.03087  1.0000
  C   C739      1.0  0.84727  0.24816  0.44064  1.0000
  H   H1256     1.0  0.78805  0.02991  0.46215  1.0000
  C   C740      1.0  0.82634  0.25070  0.40012  1.0000
  H   H1257     1.0  0.88977  0.25194  0.40870  1.0000
  H   H1258     1.0  0.68028  0.25377  0.41224  1.0000
  H   H1259     1.0  0.59736  0.15812  0.22037  1.0000
  H   H1260     1.0  0.68300  0.22708  0.45674  1.0000
  H   H1261     1.0  0.54285  0.18556  0.26238  1.0000
  H   H1262     1.0  0.82388  0.03406  0.39510  1.0000
  C   C741      1.0  0.80039  0.02822  0.27407  1.0000
  H   H1263     1.0  0.89187  0.21022  0.39967  1.0000
  H   H1264     1.0  0.62035  0.22906  0.22339  1.0000
  H   H1265     1.0  0.00798  0.17255  0.44529  1.0000
  N   N54       1.0  0.60239  0.19486  0.23566  1.0000
  C   C742      1.0  0.87152  0.24806  0.45613  1.0000
  H   H1266     1.0  0.58206  0.17971  0.50821  1.0000
  C   C743      1.0  0.77415  0.25001  0.02375  1.0000
  H   H1267     1.0  0.72775  0.04801  0.34565  1.0000
  C   C744      1.0  0.75014  0.05365  0.06143  1.0000
  H   H1268     1.0  0.71688  0.04104  0.04254  1.0000
  C   C745      1.0  0.57926  0.15555  0.44427  1.0000
  H   H1269     1.0  0.55398  0.22613  0.41939  1.0000
  H   H1270     1.0  0.58168  0.18157  0.20353  1.0000
  H   H1271     1.0  0.74114  0.04548  0.29007  1.0000
  C   C746      1.0  0.65315  0.05720  0.28436  1.0000
  H   H1272     1.0  0.67388  0.02488  0.29516  1.0000
  C   C747      1.0  0.56400  0.17446  0.49949  1.0000
  H   H1273     1.0  0.87277  0.25169  0.38119  1.0000
  C   C748      1.0  0.82942  0.02561  0.45729  1.0000
  H   H1274     1.0  0.80614  0.05307  0.47605  1.0000
  C   C749      1.0  0.63324  0.20223  0.27200  1.0000
  H   H1275     1.0  0.72489  0.20610  0.46428  1.0000
  H   H1276     1.0  0.70241  0.25852  0.50248  1.0000
  H   H1277     1.0  0.82841  0.25490  0.37987  1.0000
  H   H1278     1.0  0.63703  0.16665  0.20145  1.0000
  C   C750      1.0  0.60138  0.22202  0.22846  1.0000
  H   H1279     1.0  0.70764  0.23577  0.43696  1.0000
  H   H1280     1.0  0.62856  0.22229  0.27159  1.0000
  H   H1281     1.0  0.59547  0.23345  0.24471  1.0000
  H   H1282     1.0  0.65351  0.20028  0.27624  1.0000
  H   H1283     1.0  0.70103  0.01756  0.10862  1.0000
  H   H1284     1.0  0.62311  0.19310  0.28765  1.0000
  H   H1285     1.0  0.73685  0.23472  0.47615  1.0000
  C   C751      1.0  0.72273  0.03724  0.28588  1.0000
  C   C752      1.0  0.58432  0.22939  0.20641  1.0000
  H   H1286     1.0  0.64312  0.19477  0.23416  1.0000
  H   H1287     1.0  0.86248  0.21015  0.38306  1.0000
  H   H1288     1.0  0.81414  0.03272  0.28806  1.0000
  H   H1289     1.0  0.65660  0.26418  0.45226  1.0000
  H   H1290     1.0  0.78617  0.25431  0.48785  1.0000
  H   H1291     1.0  0.58515  0.19991  0.27206  1.0000
  C   C753      1.0  0.80662  0.03165  0.40640  1.0000
  C   C754      1.0  0.94058  0.25637  0.40798  1.0000
  H   H1292     1.0  0.63008  0.16909  0.25012  1.0000
  H   H1293     1.0  0.58436  0.16910  0.26101  1.0000
  C   C755      1.0  0.62766  0.18934  0.24706  1.0000
  H   H1294     1.0  0.85606  0.01983  0.41583  1.0000
  H   H1295     1.0  0.59281  0.16093  0.45885  1.0000
  H   H1296     1.0  0.83923  0.22919  0.44157  1.0000
  H   H1297     1.0  0.01425  0.02702  0.32911  1.0000
  H   H1298     1.0  0.93379  0.25277  0.44750  1.0000
  H   H1299     1.0  0.67170  0.03712  0.07735  1.0000
  H   H1300     1.0  0.68880  0.04512  0.32910  1.0000
  H   H1301     1.0  0.55177  0.17215  0.41995  1.0000
  H   H1302     1.0  0.00526  0.25439  0.23402  1.0000
  H   H1303     1.0  0.00474  0.25985  0.47208  1.0000
  H   H1304     1.0  0.76522  0.23204  0.02380  1.0000
  H   H1305     1.0  0.80394  0.04794  0.41864  1.0000
  H   H1306     1.0  0.77319  0.26047  0.11872  1.0000
  H   H1307     1.0  0.52058  0.25788  0.31464  1.0000
  C   C756      1.0  0.80576  0.03285  0.47225  1.0000
  H   H1308     1.0  0.74011  0.06886  0.32227  1.0000
  H   H1309     1.0  0.99118  0.24377  0.43737  1.0000
  H   H1310     1.0  0.75228  0.26303  0.44510  1.0000
  Fe  Fe108     1.0  0.71835  0.17278  0.95645  1.0000
  S   S217      1.0  0.67706  0.17307  0.96394  1.0000
  S   S218      1.0  0.73799  0.13848  0.94137  1.0000
  Fe  Fe109     1.0  0.72488  0.22520  0.97784  1.0000
  S   S219      1.0  0.68376  0.22857  0.98731  1.0000
  S   S220      1.0  0.74956  0.25956  0.97931  1.0000
  H   H1311     1.0  0.72146  0.25846  0.89100  1.0000
  Fe  Fe110     1.0  0.67715  0.21232  0.94945  1.0000
  S   S221      1.0  0.65088  0.22406  0.91806  1.0000
  S   S222      1.0  0.72923  0.18686  0.99433  1.0000
  S   S223      1.0  0.71805  0.21079  0.93920  1.0000
  H   H1312     1.0  0.87947  0.13193  0.67864  1.0000
  S   S224      1.0  0.54880  0.16721  0.67021  1.0000
  Fe  Fe111     1.0  0.68768  0.18892  0.00105  1.0000
  S   S225      1.0  0.67952  0.06521  0.87011  1.0000
  Fe  Fe112     1.0  0.87533  0.03294  0.67380  1.0000
  S   S226      1.0  0.87232  0.04468  0.71393  1.0000
  Fe  Fe113     1.0  0.84589  0.07927  0.65498  1.0000
  S   S227      1.0  0.84178  0.09417  0.69359  1.0000
  S   S228      1.0  0.83080  0.09861  0.62001  1.0000
  Fe  Fe114     1.0  0.88217  0.08273  0.69897  1.0000
  S   S229      1.0  0.91032  0.10752  0.71856  1.0000
  Fe  Fe115     1.0  0.83227  0.05492  0.70469  1.0000
  S   S230      1.0  0.79433  0.05066  0.72394  1.0000
  S   S231      1.0  0.88701  0.07053  0.65946  1.0000
  S   S232      1.0  0.83463  0.04047  0.66543  1.0000
  Fe  Fe116     1.0  0.71017  0.18719  0.58435  1.0000
  S   S233      1.0  0.69774  0.22517  0.59704  1.0000
  S   S234      1.0  0.73238  0.16641  0.61468  1.0000
  Fe  Fe117     1.0  0.68123  0.19332  0.53520  1.0000
  S   S235      1.0  0.66740  0.23123  0.54494  1.0000
  Fe  Fe118     1.0  0.70662  0.23788  0.55809  1.0000
  H   H1313     1.0  0.72257  0.07150  0.61157  1.0000
  Fe  Fe119     1.0  0.65959  0.21522  0.58299  1.0000
  S   S236      1.0  0.62366  0.22907  0.60158  1.0000
  S   S237      1.0  0.72153  0.20077  0.54596  1.0000
  S   S238      1.0  0.67096  0.17645  0.57257  1.0000
  S   S239      1.0  0.99884  0.16460  0.66277  1.0000
  H   H1314     1.0  0.93357  0.16003  0.60993  1.0000
  C   C757      1.0  0.93620  0.12159  0.70322  1.0000
  C   C758      1.0  0.95214  0.13717  0.71672  1.0000
  C   C759      1.0  0.97196  0.14984  0.70478  1.0000
  C   C760      1.0  0.97575  0.14732  0.67911  1.0000
  C   C761      1.0  0.96017  0.13131  0.66572  1.0000
  C   C762      1.0  0.94071  0.11826  0.67777  1.0000
  H   H1315     1.0  0.94891  0.13974  0.73646  1.0000
  H   H1316     1.0  0.98380  0.16212  0.71530  1.0000
  H   H1317     1.0  0.96316  0.12904  0.64590  1.0000
  H   H1318     1.0  0.92899  0.10586  0.66734  1.0000
  C   C763      1.0  0.80437  0.11883  0.61862  1.0000
  C   C764      1.0  0.79384  0.12926  0.64008  1.0000
  C   C765      1.0  0.77248  0.14466  0.63828  1.0000
  C   C766      1.0  0.76125  0.14975  0.61511  1.0000
  C   C767      1.0  0.77230  0.14002  0.59355  1.0000
  C   C768      1.0  0.79380  0.12472  0.59533  1.0000
  H   H1319     1.0  0.80197  0.12525  0.65809  1.0000
  H   H1320     1.0  0.76418  0.15223  0.65505  1.0000
  H   H1321     1.0  0.76389  0.14375  0.57560  1.0000
  H   H1322     1.0  0.80194  0.11695  0.57858  1.0000
  H   H1323     1.0  0.61152  0.23070  0.79438  1.0000
  H   H1324     1.0  0.99981  0.09965  0.73229  1.0000
  N   N55       1.0  0.74262  0.06890  0.66189  1.0000
  H   H1325     1.0  0.96975  0.21270  0.87812  1.0000
  H   H1326     1.0  0.64714  0.07024  0.00589  1.0000
  C   C769      1.0  0.56979  0.18466  0.65157  1.0000
  C   C770      1.0  0.59086  0.17291  0.64103  1.0000
  C   C771      1.0  0.60785  0.18628  0.62595  1.0000
  C   C772      1.0  0.60396  0.21159  0.62153  1.0000
  C   C773      1.0  0.58313  0.22341  0.63247  1.0000
  C   C774      1.0  0.56600  0.20999  0.64724  1.0000
  H   H1327     1.0  0.59399  0.15332  0.64438  1.0000
  H   H1328     1.0  0.62384  0.17700  0.61764  1.0000
  H   H1329     1.0  0.58012  0.24303  0.62923  1.0000
  H   H1330     1.0  0.54995  0.21929  0.65532  1.0000
  C   C775      1.0  0.72117  0.11795  0.92225  1.0000
  C   C776      1.0  0.69831  0.12491  0.91159  1.0000
  C   C777      1.0  0.68556  0.10835  0.89604  1.0000
  C   C778      1.0  0.69532  0.08461  0.89126  1.0000
  C   C779      1.0  0.71789  0.07741  0.90243  1.0000
  C   C780      1.0  0.73087  0.09411  0.91770  1.0000
  H   H1331     1.0  0.69070  0.14325  0.91488  1.0000
  H   H1332     1.0  0.66817  0.11412  0.88739  1.0000
  H   H1333     1.0  0.72557  0.05917  0.89901  1.0000
  H   H1334     1.0  0.74847  0.08854  0.92602  1.0000
  H   H1335     1.0  0.70038  0.06602  0.97462  1.0000
  H   H1336     1.0  0.82473  0.18236  0.64344  1.0000
  H   H1337     1.0  0.86396  0.24509  0.96354  1.0000
  H   H1338     1.0  0.59842  0.25516  0.77600  1.0000
  H   H1339     1.0  0.87181  0.12599  0.59338  1.0000
  H   H1340     1.0  0.84300  0.19742  0.61929  1.0000
  C   C781      1.0  0.71770  0.10395  0.99963  1.0000
  N   N56       1.0  0.76523  0.07970  0.83185  1.0000
  C   C782      1.0  0.77789  0.07227  0.85593  1.0000
  C   C783      1.0  0.76021  0.10724  0.83305  1.0000
  C   C784      1.0  0.78322  0.07410  0.81074  1.0000
  C   C785      1.0  0.74158  0.06464  0.82968  1.0000
  H   H1341     1.0  0.99694  0.08241  0.68262  1.0000
  C   C786      1.0  0.74195  0.11572  0.85366  1.0000
  C   C787      1.0  0.77893  0.08771  0.78574  1.0000
  C   C788      1.0  0.72293  0.07192  0.80896  1.0000
  H   H1342     1.0  0.79402  0.08469  0.85982  1.0000
  H   H1343     1.0  0.76485  0.07432  0.87206  1.0000
  H   H1344     1.0  0.75255  0.11470  0.81539  1.0000
  H   H1345     1.0  0.77813  0.11743  0.83563  1.0000
  H   H1346     1.0  0.80281  0.07866  0.81615  1.0000
  H   H1347     1.0  0.78345  0.05392  0.80663  1.0000
  H   H1348     1.0  0.74621  0.04477  0.82646  1.0000
  H   H1349     1.0  0.73098  0.06413  0.84762  1.0000
  H   H1350     1.0  0.72338  0.10448  0.61010  1.0000
  H   H1351     1.0  0.95004  0.21323  0.83736  1.0000
  C   C789      1.0  0.77575  0.04814  0.63253  1.0000
  H   H1352     1.0  0.72357  0.10635  0.85235  1.0000
  H   H1353     1.0  0.74998  0.11304  0.87248  1.0000
  H   H1354     1.0  0.73829  0.13593  0.85156  1.0000
  H   H1355     1.0  0.78301  0.10780  0.78712  1.0000
  H   H1356     1.0  0.75994  0.08488  0.77824  1.0000
  H   H1357     1.0  0.79237  0.08026  0.77175  1.0000
  H   H1358     1.0  0.72674  0.06131  0.79170  1.0000
  H   H1359     1.0  0.72225  0.09189  0.80450  1.0000
  H   H1360     1.0  0.70362  0.06742  0.81539  1.0000
  H   H1361     1.0  0.72891  0.12001  0.00593  1.0000
  C   C790      1.0  0.78717  0.03195  0.75023  1.0000
  C   C791      1.0  0.76206  0.03035  0.75818  1.0000
  H   H1362     1.0  0.88702  0.15692  0.69874  1.0000
  H   H1363     1.0  0.93173  0.19185  0.60077  1.0000
  H   H1364     1.0  0.93325  0.18419  0.63311  1.0000
  H   H1365     1.0  0.54204  0.23215  0.60185  1.0000
  C   C792      1.0  0.54886  0.19117  0.58117  1.0000
  C   C793      1.0  0.01181  0.04535  0.67681  1.0000
  N   N57       1.0  0.58163  0.22277  0.73676  1.0000
  H   H1366     1.0  0.69609  0.12402  0.97259  1.0000
  C   C794      1.0  0.56849  0.20536  0.56534  1.0000
  H   H1367     1.0  0.77982  0.08221  0.65298  1.0000
  H   H1368     1.0  0.89983  0.25600  0.94703  1.0000
  H   H1369     1.0  0.55680  0.18905  0.60018  1.0000
  H   H1370     1.0  0.55083  0.23745  0.75869  1.0000
  C   C795      1.0  0.55502  0.22154  0.74627  1.0000
  H   H1371     1.0  0.60640  0.25147  0.72242  1.0000
  H   H1372     1.0  0.61954  0.22166  0.75099  1.0000
  H   H1373     1.0  0.57845  0.23205  0.79038  1.0000
  C   C796      1.0  0.73276  0.08791  0.61839  1.0000
  C   C797      1.0  0.66643  0.05561  0.95677  1.0000
  C   C798      1.0  0.61106  0.20267  0.70408  1.0000
  C   C799      1.0  0.01885  0.10779  0.73219  1.0000
  H   H1374     1.0  0.58641  0.19472  0.56553  1.0000
  C   C800      1.0  0.68393  0.07598  0.96665  1.0000
  H   H1375     1.0  0.76066  0.04679  0.61866  1.0000
  H   H1376     1.0  0.85357  0.19624  0.65111  1.0000
  H   H1377     1.0  0.85844  0.15831  0.68161  1.0000
  N   N58       1.0  0.88482  0.15946  0.63334  1.0000
  C   C801      1.0  0.89347  0.13341  0.62771  1.0000
  C   C802      1.0  0.89273  0.16570  0.65952  1.0000
  C   C803      1.0  0.89638  0.17793  0.61559  1.0000
  C   C804      1.0  0.85673  0.16053  0.63062  1.0000
  C   C805      1.0  0.89129  0.12503  0.60035  1.0000
  C   C806      1.0  0.87833  0.15233  0.68058  1.0000
  C   C807      1.0  0.92534  0.17822  0.61504  1.0000
  C   C808      1.0  0.84406  0.18569  0.63636  1.0000
  H   H1378     1.0  0.91332  0.13051  0.63322  1.0000
  H   H1379     1.0  0.88257  0.11982  0.63897  1.0000
  H   H1380     1.0  0.89153  0.18596  0.66307  1.0000
  H   H1381     1.0  0.91289  0.16111  0.66239  1.0000
  H   H1382     1.0  0.88960  0.17503  0.59625  1.0000
  H   H1383     1.0  0.89029  0.19712  0.62035  1.0000
  H   H1384     1.0  0.85116  0.15607  0.61124  1.0000
  H   H1385     1.0  0.84734  0.14581  0.64186  1.0000
  H   H1386     1.0  0.90387  0.13558  0.58771  1.0000
  H   H1387     1.0  0.89710  0.10524  0.59920  1.0000
  H   H1388     1.0  0.72779  0.02492  0.69333  1.0000
  H   H1389     1.0  0.80847  0.25807  0.96825  1.0000
  H   H1390     1.0  0.52803  0.19967  0.76717  1.0000
  C   C809      1.0  0.01136  0.07001  0.69119  1.0000
  H   H1391     1.0  0.59973  0.19880  0.76402  1.0000
  H   H1392     1.0  0.65588  0.11538  0.95547  1.0000
  H   H1393     1.0  0.57285  0.22383  0.57315  1.0000
  H   H1394     1.0  0.72049  0.07861  0.69457  1.0000
  C   C810      1.0  0.76988  0.06433  0.65560  1.0000
  H   H1395     1.0  0.69582  0.25487  0.91201  1.0000
  C   C811      1.0  0.58606  0.24826  0.72586  1.0000
  H   H1396     1.0  0.70657  0.05069  0.66281  1.0000
  H   H1397     1.0  0.77936  0.05503  0.67160  1.0000
  H   H1398     1.0  0.74634  0.11645  0.69028  1.0000
  C   C812      1.0  0.82611  0.25019  0.97588  1.0000
  C   C813      1.0  0.80573  0.01960  0.76388  1.0000
  C   C814      1.0  0.94335  0.24410  0.81260  1.0000
  H   H1399     1.0  0.01541  0.02945  0.68961  1.0000
  H   H1400     1.0  0.52327  0.15055  0.59926  1.0000
  H   H1401     1.0  0.79219  0.05609  0.62252  1.0000
  C   C815      1.0  0.98801  0.24477  0.84523  1.0000
  H   H1402     1.0  0.58300  0.18417  0.72567  1.0000
  H   H1403     1.0  0.74217  0.10760  0.65082  1.0000
  C   C816      1.0  0.60002  0.21848  0.75761  1.0000
  H   H1404     1.0  0.71214  0.09394  0.65246  1.0000
  N   N59       1.0  0.67272  0.09387  0.98527  1.0000
  H   H1405     1.0  0.74753  0.06051  0.70119  1.0000
  H   H1406     1.0  0.01661  0.12722  0.73863  1.0000
  H   H1407     1.0  0.61133  0.18735  0.69033  1.0000
  C   C817      1.0  0.63464  0.25265  0.91465  1.0000
  C   C818      1.0  0.66545  0.07967  0.00855  1.0000
  H   H1408     1.0  0.75460  0.10003  0.71795  1.0000
  H   H1409     1.0  0.01506  0.23853  0.87552  1.0000
  C   C819      1.0  0.75506  0.09905  0.69727  1.0000
  H   H1410     1.0  0.65293  0.06323  0.94297  1.0000
  C   C820      1.0  0.01748  0.25286  0.75320  1.0000
  H   H1411     1.0  0.77512  0.09826  0.69180  1.0000
  N   N60       1.0  0.52293  0.20260  0.58243  1.0000
  C   C821      1.0  0.94458  0.23314  0.83921  1.0000
  C   C822      1.0  0.57223  0.25433  0.70134  1.0000
  H   H1412     1.0  0.67788  0.04164  0.94656  1.0000
  C   C823      1.0  0.73199  0.09026  0.64694  1.0000
  C   C824      1.0  0.96295  0.23205  0.88120  1.0000
  H   H1413     1.0  0.72874  0.09517  0.98443  1.0000
  H   H1414     1.0  0.97649  0.24066  0.89421  1.0000
  H   H1415     1.0  0.56286  0.20748  0.54564  1.0000
  H   H1416     1.0  0.54838  0.18114  0.74847  1.0000
  H   H1417     1.0  0.54142  0.22323  0.73071  1.0000
  H   H1418     1.0  0.61478  0.21999  0.69351  1.0000
  H   H1419     1.0  0.92777  0.23529  0.80233  1.0000
  H   H1420     1.0  0.75230  0.08817  0.61124  1.0000
  H   H1421     1.0  0.01360  0.24045  0.73795  1.0000
  H   H1422     1.0  0.74758  0.03984  0.74774  1.0000
  H   H1423     1.0  0.57059  0.20448  0.70283  1.0000
  C   C825      1.0  0.74050  0.07580  0.68909  1.0000
  C   C826      1.0  0.72651  0.04634  0.65816  1.0000
  C   C827      1.0  0.58531  0.20297  0.71737  1.0000
  H   H1424     1.0  0.72599  0.04060  0.63842  1.0000
  H   H1425     1.0  0.69110  0.08621  0.95007  1.0000
  H   H1426     1.0  0.63270  0.24955  0.87468  1.0000
  H   H1427     1.0  0.01757  0.11917  0.69407  1.0000
  H   H1428     1.0  0.79633  0.04210  0.87600  1.0000
  N   N61       1.0  0.96211  0.24609  0.85680  1.0000
  H   H1429     1.0  0.63614  0.09176  0.96784  1.0000
  H   H1430     1.0  0.62501  0.11546  0.00427  1.0000
  H   H1431     1.0  0.64702  0.13987  0.99615  1.0000
  H   H1432     1.0  0.93256  0.24906  0.90313  1.0000
  Fe  Fe120     1.0  0.69119  0.02523  0.86345  1.0000
  C   C828      1.0  0.59658  0.23518  0.78069  1.0000
  C   C829      1.0  0.54774  0.19770  0.76059  1.0000
  H   H1433     1.0  0.62094  0.13373  0.97683  1.0000
  H   H1434     1.0  0.99249  0.22553  0.83902  1.0000
  H   H1435     1.0  0.55932  0.19447  0.77737  1.0000
  H   H1436     1.0  0.00300  0.06539  0.70968  1.0000
  C   C830      1.0  0.69216  0.11347  0.99005  1.0000
  H   H1437     1.0  0.75438  0.01935  0.67310  1.0000
  H   H1438     1.0  0.62665  0.19909  0.71720  1.0000
  H   H1439     1.0  0.54826  0.17207  0.57350  1.0000
  H   H1440     1.0  0.68550  0.12769  0.00337  1.0000
  H   H1441     1.0  0.75431  0.24413  0.52034  1.0000
  C   C831      1.0  0.84902  0.25909  0.96067  1.0000
  H   H1442     1.0  0.92511  0.23261  0.84633  1.0000
  C   C832      1.0  0.63531  0.12474  0.98884  1.0000
  C   C833      1.0  0.62818  0.26095  0.89061  1.0000
  C   C834      1.0  0.65019  0.10586  0.97316  1.0000
  C   C835      1.0  0.00995  0.25313  0.86174  1.0000
  H   H1443     1.0  0.96075  0.24019  0.80185  1.0000
  H   H1444     1.0  0.78171  0.02922  0.63839  1.0000
  H   H1445     1.0  0.52940  0.24132  0.57272  1.0000
  H   H1446     1.0  0.65634  0.04570  0.97191  1.0000
  H   H1447     1.0  0.84410  0.25738  0.94058  1.0000
  H   H1448     1.0  0.55184  0.25095  0.70259  1.0000
  C   C836      1.0  0.78797  0.04537  0.85734  1.0000
  C   C837      1.0  0.75554  0.01667  0.77967  1.0000
  C   C838      1.0  0.52559  0.22960  0.58949  1.0000
  H   H1449     1.0  0.80295  0.04169  0.84340  1.0000
  H   H1450     1.0  0.67949  0.06473  0.01221  1.0000
  H   H1451     1.0  0.98904  0.25644  0.82810  1.0000
  H   H1452     1.0  0.58008  0.24385  0.68542  1.0000
  H   H1453     1.0  0.71579  0.09094  0.01556  1.0000
  H   H1454     1.0  0.82449  0.22971  0.97446  1.0000
  H   H1455     1.0  0.77290  0.03154  0.85526  1.0000
  H   H1456     1.0  0.82748  0.25472  0.99593  1.0000
  H   H1457     1.0  0.01609  0.09238  0.64564  1.0000
  H   H1458     1.0  0.94148  0.21876  0.91294  1.0000
  H   H1459     1.0  0.63247  0.26082  0.95379  1.0000
  H   H1460     1.0  0.73617  0.01548  0.78555  1.0000
  H   H1461     1.0  0.52164  0.21140  0.54295  1.0000
  H   H1462     1.0  0.82512  0.02072  0.75798  1.0000
  C   C839      1.0  0.73396  0.02317  0.67361  1.0000
  H   H1463     1.0  0.92294  0.22179  0.88565  1.0000
  H   H1464     1.0  0.99325  0.04261  0.66795  1.0000
  H   H1465     1.0  0.88885  0.25355  0.99344  1.0000
  C   C840      1.0  0.93830  0.23054  0.89616  1.0000
  H   H1466     1.0  0.58032  0.26285  0.73935  1.0000
  C   C841      1.0  0.85468  0.29819  0.38898  1.0000
  S   S240      1.0  0.54832  0.37037  0.16671  1.0000
  C   C842      1.0  0.92129  0.33742  0.19112  1.0000
  S   S241      1.0  0.67531  0.49232  0.22292  1.0000
  Fe  Fe121     1.0  0.70969  0.45476  0.17158  1.0000
  S   S242      1.0  0.69929  0.43793  0.20888  1.0000
  S   S243      1.0  0.72486  0.43420  0.13750  1.0000
  Fe  Fe122     1.0  0.66224  0.45761  0.20406  1.0000
  S   S244      1.0  0.62401  0.44448  0.21770  1.0000
  Fe  Fe123     1.0  0.71308  0.47407  0.22473  1.0000
  S   S245      1.0  0.73330  0.47695  0.26174  1.0000
  S   S246      1.0  0.67147  0.47211  0.16581  1.0000
  Fe  Fe124     1.0  0.84952  0.32022  0.06536  1.0000
  S   S247      1.0  0.83620  0.35786  0.05308  1.0000
  S   S248      1.0  0.82572  0.28548  0.06572  1.0000
  Fe  Fe125     1.0  0.90118  0.33969  0.08185  1.0000
  S   S249      1.0  0.89148  0.37878  0.07060  1.0000
  S   S250      1.0  0.93852  0.32515  0.09656  1.0000
  Fe  Fe126     1.0  0.85363  0.37155  0.08848  1.0000
  S   S251      1.0  0.83685  0.39596  0.11904  1.0000
  Fe  Fe127     1.0  0.87505  0.36133  0.03626  1.0000
  S   S252      1.0  0.86474  0.33345  0.10184  1.0000
  S   S253      1.0  0.88699  0.32271  0.04640  1.0000
  H   H1467     1.0  0.94526  0.26596  0.36925  1.0000
  Fe  Fe128     1.0  0.87980  0.34800  0.44557  1.0000
  S   S254      1.0  0.84009  0.35212  0.43228  1.0000
  S   S255      1.0  0.90753  0.33497  0.41579  1.0000
  Fe  Fe129     1.0  0.86551  0.36731  0.49764  1.0000
  S   S256      1.0  0.82484  0.37176  0.48788  1.0000
  Fe  Fe130     1.0  0.82925  0.33487  0.46902  1.0000
  S   S257      1.0  0.80477  0.30049  0.46872  1.0000
  Fe  Fe131     1.0  0.83981  0.38866  0.45215  1.0000
  S   S258      1.0  0.82197  0.42412  0.43704  1.0000
  S   S259      1.0  0.86904  0.32891  0.48132  1.0000
  S   S260      1.0  0.88028  0.38605  0.46293  1.0000
  C   C843      1.0  0.77728  0.26906  0.49829  1.0000
  C   C844      1.0  0.93928  0.27237  0.38741  1.0000
  H   H1468     1.0  0.72747  0.45527  0.08669  1.0000
  H   H1469     1.0  0.74602  0.29306  0.10311  1.0000
  H   H1470     1.0  0.71277  0.30078  0.45856  1.0000
  C   C845      1.0  0.92089  0.30489  0.41352  1.0000
  C   C846      1.0  0.92283  0.28910  0.43422  1.0000
  C   C847      1.0  0.92959  0.29656  0.39024  1.0000
  H   H1471     1.0  0.91662  0.29548  0.45231  1.0000
  H   H1472     1.0  0.92837  0.30875  0.37418  1.0000
  H   H1473     1.0  0.69350  0.30478  0.49743  1.0000
  C   C848      1.0  0.86624  0.48104  0.39056  1.0000
  C   C849      1.0  0.84303  0.48740  0.40106  1.0000
  C   C850      1.0  0.83005  0.47010  0.41607  1.0000
  C   C851      1.0  0.84019  0.44639  0.42079  1.0000
  C   C852      1.0  0.86377  0.44039  0.41098  1.0000
  C   C853      1.0  0.87668  0.45762  0.39590  1.0000
  C   C854      1.0  0.71842  0.28091  0.46018  1.0000
  H   H1474     1.0  0.81185  0.47490  0.42366  1.0000
  H   H1475     1.0  0.87178  0.42221  0.41444  1.0000
  H   H1476     1.0  0.89466  0.45258  0.38793  1.0000
  C   C855      1.0  0.95842  0.34151  0.11681  1.0000
  C   C856      1.0  0.95211  0.36495  0.12600  1.0000
  C   C857      1.0  0.96829  0.37700  0.14263  1.0000
  C   C858      1.0  0.99097  0.36586  0.14999  1.0000
  C   C859      1.0  0.99747  0.34261  0.14042  1.0000
  C   C860      1.0  0.98112  0.33040  0.12415  1.0000
  H   H1477     1.0  0.93466  0.37367  0.12050  1.0000
  H   H1478     1.0  0.96307  0.39495  0.14997  1.0000
  H   H1479     1.0  0.01482  0.33378  0.14594  1.0000
  H   H1480     1.0  0.98605  0.31222  0.11718  1.0000
  S   S261      1.0  0.72617  0.48940  0.18789  1.0000
  H   H1481     1.0  0.82662  0.32141  0.13855  1.0000
  H   H1482     1.0  0.80695  0.32320  0.10134  1.0000
  H   H1483     1.0  0.98694  0.30306  0.25283  1.0000
  H   H1484     1.0  0.00633  0.35575  0.22490  1.0000
  C   C861      1.0  0.75626  0.42435  0.13245  1.0000
  C   C862      1.0  0.76277  0.41339  0.10955  1.0000
  C   C863      1.0  0.78736  0.40470  0.10501  1.0000
  C   C864      1.0  0.80570  0.40690  0.12339  1.0000
  C   C865      1.0  0.79921  0.41809  0.14616  1.0000
  C   C866      1.0  0.77464  0.42675  0.15071  1.0000
  H   H1485     1.0  0.74868  0.41150  0.09529  1.0000
  H   H1486     1.0  0.79218  0.39643  0.08731  1.0000
  H   H1487     1.0  0.81330  0.41996  0.16045  1.0000
  H   H1488     1.0  0.76991  0.43513  0.16840  1.0000
  S   S262      1.0  0.00972  0.38069  0.17247  1.0000
  C   C867      1.0  0.56856  0.39341  0.17830  1.0000
  C   C868      1.0  0.59396  0.39332  0.17116  1.0000
  C   C869      1.0  0.61106  0.40981  0.18209  1.0000
  C   C870      1.0  0.60282  0.42644  0.20031  1.0000
  C   C871      1.0  0.57726  0.42709  0.20678  1.0000
  C   C872      1.0  0.56017  0.41077  0.19572  1.0000
  H   H1489     1.0  0.60057  0.38000  0.15761  1.0000
  H   H1490     1.0  0.63070  0.40907  0.17703  1.0000
  H   H1491     1.0  0.57072  0.44000  0.22076  1.0000
  H   H1492     1.0  0.54061  0.41129  0.20107  1.0000
  H   H1493     1.0  0.94735  0.28871  0.22251  1.0000
  C   C873      1.0  0.00494  0.38673  0.06542  1.0000
  H   H1494     1.0  0.78803  0.33432  0.06504  1.0000
  H   H1495     1.0  0.99342  0.27696  0.40543  1.0000
  H   H1496     1.0  0.96081  0.31698  0.26897  1.0000
  H   H1497     1.0  0.98085  0.29037  0.17079  1.0000
  H   H1498     1.0  0.90942  0.32904  0.20589  1.0000
  H   H1499     1.0  0.71443  0.46721  0.05767  1.0000
  H   H1500     1.0  0.85692  0.31841  0.39199  1.0000
  C   C874      1.0  0.98913  0.31470  0.20259  1.0000
  C   C875      1.0  0.93274  0.26499  0.43146  1.0000
  H   H1501     1.0  0.76451  0.46941  0.37413  1.0000
  H   H1502     1.0  0.75997  0.31721  0.05764  1.0000
  H   H1503     1.0  0.77609  0.29393  0.08872  1.0000
  H   H1504     1.0  0.77736  0.45380  0.29187  1.0000
  H   H1505     1.0  0.79068  0.45076  0.38312  1.0000
  C   C876      1.0  0.74187  0.50988  0.06450  1.0000
  C   C877      1.0  0.54695  0.39549  0.28348  1.0000
  N   N62       1.0  0.96369  0.32394  0.21089  1.0000
  H   H1506     1.0  0.85761  0.49674  0.31464  1.0000
  H   H1507     1.0  0.95642  0.33296  0.17219  1.0000
  H   H1508     1.0  0.79751  0.28125  0.12660  1.0000
  H   H1509     1.0  0.99777  0.32833  0.18954  1.0000
  H   H1510     1.0  0.01271  0.28457  0.43124  1.0000
  H   H1511     1.0  0.52536  0.30192  0.23302  1.0000
  H   H1512     1.0  0.01493  0.34887  0.06024  1.0000
  H   H1513     1.0  0.98449  0.38281  0.06600  1.0000
  H   H1514     1.0  0.80215  0.42025  0.31170  1.0000
  C   C878      1.0  0.71008  0.46061  0.07682  1.0000
  C   C879      1.0  0.79759  0.45162  0.28744  1.0000
  H   H1515     1.0  0.77685  0.47083  0.33105  1.0000
  C   C880      1.0  0.80368  0.27901  0.04225  1.0000
  H   H1516     1.0  0.83080  0.43337  0.30196  1.0000
  H   H1517     1.0  0.89406  0.27441  0.01815  1.0000
  C   C881      1.0  0.76730  0.33484  0.06523  1.0000
  C   C882      1.0  0.95197  0.30720  0.23030  1.0000
  H   H1518     1.0  0.96632  0.36351  0.20404  1.0000
  C   C883      1.0  0.80729  0.32864  0.14124  1.0000
  H   H1519     1.0  0.94252  0.30483  0.18228  1.0000
  S   S263      1.0  0.88201  0.50086  0.36930  1.0000
  H   H1520     1.0  0.87132  0.28957  0.42412  1.0000
  H   H1521     1.0  0.99048  0.34546  0.25304  1.0000
  C   C884      1.0  0.85357  0.28499  0.41458  1.0000
  H   H1522     1.0  0.82841  0.48642  0.34757  1.0000
  H   H1523     1.0  0.98696  0.37645  0.24200  1.0000
  C   C885      1.0  0.78382  0.29384  0.49338  1.0000
  H   H1524     1.0  0.73589  0.33675  0.09044  1.0000
  H   H1525     1.0  0.52614  0.39658  0.28402  1.0000
  H   H1526     1.0  0.83185  0.44796  0.36834  1.0000
  H   H1527     1.0  0.93338  0.31464  0.23608  1.0000
  H   H1528     1.0  0.00800  0.40299  0.07738  1.0000
  C   C886      1.0  0.75527  0.50067  0.26705  1.0000
  C   C887      1.0  0.81170  0.43836  0.30878  1.0000
  C   C888      1.0  0.67719  0.27293  0.41897  1.0000
  C   C889      1.0  0.79504  0.33282  0.11541  1.0000
  H   H1529     1.0  0.80950  0.34660  0.15103  1.0000
  C   C890      1.0  0.75223  0.33060  0.13553  1.0000
  H   H1530     1.0  0.73254  0.32449  0.13258  1.0000
  H   H1531     1.0  0.83485  0.50541  0.39718  1.0000
  H   H1532     1.0  0.79879  0.44012  0.27038  1.0000
  H   H1533     1.0  0.76132  0.34985  0.05224  1.0000
  H   H1534     1.0  0.76982  0.36672  0.14412  1.0000
  C   C891      1.0  0.77683  0.27958  0.12540  1.0000
  N   N63       1.0  0.58213  0.37088  0.26136  1.0000
  C   C892      1.0  0.59852  0.39331  0.26523  1.0000
  C   C893      1.0  0.55527  0.37976  0.26096  1.0000
  C   C894      1.0  0.58886  0.36022  0.23623  1.0000
  C   C895      1.0  0.58723  0.35227  0.28197  1.0000
  C   C896      1.0  0.62699  0.38904  0.26212  1.0000
  H   H1535     1.0  0.66084  0.29673  0.49207  1.0000
  C   C897      1.0  0.57217  0.33933  0.22630  1.0000
  C   C898      1.0  0.56565  0.33467  0.28936  1.0000
  H   H1536     1.0  0.59324  0.40858  0.25216  1.0000
  H   H1537     1.0  0.59580  0.40105  0.28423  1.0000
  H   H1538     1.0  0.54193  0.36411  0.25967  1.0000
  H   H1539     1.0  0.84922  0.47091  0.29611  1.0000
  H   H1540     1.0  0.58887  0.37516  0.22187  1.0000
  H   H1541     1.0  0.60825  0.35254  0.23616  1.0000
  H   H1542     1.0  0.60370  0.34040  0.27718  1.0000
  H   H1543     1.0  0.59266  0.36169  0.29954  1.0000
  H   H1544     1.0  0.63706  0.40571  0.26877  1.0000
  H   H1545     1.0  0.63373  0.37284  0.27305  1.0000
  H   H1546     1.0  0.63221  0.38697  0.24216  1.0000
  H   H1547     1.0  0.80567  0.46995  0.28267  1.0000
  H   H1548     1.0  0.83884  0.29432  0.42592  1.0000
  C   C899      1.0  0.85067  0.47739  0.31559  1.0000
  H   H1549     1.0  0.57504  0.32184  0.23683  1.0000
  H   H1550     1.0  0.57787  0.33542  0.20675  1.0000
  H   H1551     1.0  0.55206  0.34448  0.22545  1.0000
  H   H1552     1.0  0.55049  0.34450  0.29959  1.0000
  H   H1553     1.0  0.57291  0.31997  0.30208  1.0000
  H   H1554     1.0  0.55740  0.32521  0.27329  1.0000
  H   H1555     1.0  0.75836  0.31978  0.15198  1.0000
  H   H1556     1.0  0.55392  0.41480  0.28161  1.0000
  C   C900      1.0  0.01072  0.27144  0.41557  1.0000
  C   C901      1.0  0.96638  0.30301  0.25484  1.0000
  H   H1557     1.0  0.77495  0.43972  0.34062  1.0000
  C   C902      1.0  0.78666  0.45660  0.34254  1.0000
  H   H1558     1.0  0.75870  0.36021  0.09446  1.0000
  H   H1559     1.0  0.80742  0.31403  0.02315  1.0000
  H   H1560     1.0  0.74275  0.35937  0.16244  1.0000
  H   H1561     1.0  0.67763  0.48316  0.07906  1.0000
  C   C903      1.0  0.75107  0.35805  0.14346  1.0000
  H   H1562     1.0  0.82369  0.40722  0.37779  1.0000
  H   H1563     1.0  0.81266  0.49043  0.31903  1.0000
  H   H1564     1.0  0.96200  0.28425  0.26236  1.0000
  H   H1565     1.0  0.79724  0.35294  0.11117  1.0000
  H   H1566     1.0  0.55341  0.38751  0.30143  1.0000
  H   H1567     1.0  0.67032  0.29414  0.45155  1.0000
  C   C904      1.0  0.75650  0.33996  0.09144  1.0000
  H   H1568     1.0  0.55176  0.39119  0.24395  1.0000
  H   H1569     1.0  0.56033  0.27445  0.24679  1.0000
  C   C905      1.0  0.82517  0.47739  0.32928  1.0000
  C   C906      1.0  0.96564  0.35028  0.22013  1.0000
  C   C907      1.0  0.82843  0.43748  0.35103  1.0000
  H   H1570     1.0  0.82619  0.39714  0.34578  1.0000
  N   N64       1.0  0.76795  0.32529  0.11267  1.0000
  H   H1571     1.0  0.73875  0.36910  0.13095  1.0000
  H   H1572     1.0  0.75157  0.49794  0.30693  1.0000
  H   H1573     1.0  0.94868  0.35547  0.23116  1.0000
  H   H1574     1.0  0.79791  0.31516  0.15364  1.0000
  N   N65       1.0  0.81297  0.45241  0.33289  1.0000
  C   C908      1.0  0.78449  0.46534  0.36976  1.0000
  C   C909      1.0  0.81828  0.41160  0.35824  1.0000
  C   C910      1.0  0.98965  0.28934  0.18947  1.0000
  H   H1575     1.0  0.84763  0.43421  0.34356  1.0000
  H   H1576     1.0  0.98068  0.27463  0.20087  1.0000
  H   H1577     1.0  0.79763  0.41039  0.35791  1.0000
  H   H1578     1.0  0.00946  0.28369  0.18630  1.0000
  H   H1579     1.0  0.79509  0.48263  0.37295  1.0000
  C   C911      1.0  0.54397  0.27671  0.25858  1.0000
  H   H1580     1.0  0.92342  0.35759  0.19439  1.0000
  H   H1581     1.0  0.76800  0.28105  0.14405  1.0000
  C   C912      1.0  0.76596  0.29814  0.10636  1.0000
  C   C913      1.0  0.01924  0.36337  0.07430  1.0000
  C   C914      1.0  0.69411  0.47969  0.09116  1.0000
  H   H1582     1.0  0.74591  0.29266  0.43256  1.0000
  H   H1583     1.0  0.83728  0.29582  0.37812  1.0000
  C   C915      1.0  0.79818  0.29621  0.02343  1.0000
  H   H1584     1.0  0.87937  0.26692  0.45793  1.0000
  H   H1585     1.0  0.77690  0.33194  0.50301  1.0000
  C   C916      1.0  0.98873  0.35684  0.23597  1.0000
  H   H1586     1.0  0.91089  0.33569  0.17331  1.0000
  H   H1587     1.0  0.69907  0.44330  0.07490  1.0000
  H   H1588     1.0  0.72994  0.27968  0.47733  1.0000
  H   H1589     1.0  0.87127  0.29236  0.37790  1.0000
  H   H1590     1.0  0.86513  0.46656  0.32574  1.0000
  C   C917      1.0  0.77222  0.31279  0.50691  1.0000
  C   C918      1.0  0.94684  0.32406  0.18831  1.0000
  C   C919      1.0  0.67890  0.29044  0.50013  1.0000
  C   C920      1.0  0.52424  0.29234  0.25077  1.0000
  H   H1591     1.0  0.68677  0.47023  0.10826  1.0000
  H   H1592     1.0  0.00256  0.31348  0.21817  1.0000
  C   C921      1.0  0.76129  0.50692  0.29165  1.0000
  C   C922      1.0  0.67416  0.27428  0.44746  1.0000
  H   H1593     1.0  0.65941  0.27934  0.41027  1.0000
  H   H1594     1.0  0.00996  0.35719  0.09180  1.0000
  H   H1595     1.0  0.69201  0.28562  0.41213  1.0000
  H   H1596     1.0  0.74180  0.48551  0.10896  1.0000
  H   H1597     1.0  0.00962  0.39140  0.04576  1.0000
  H   H1598     1.0  0.65072  0.50978  0.09555  1.0000
  N   N66       1.0  0.70673  0.50366  0.09799  1.0000
  C   C923      1.0  0.52163  0.26730  0.29680  1.0000
  H   H1599     1.0  0.80254  0.28372  0.40722  1.0000
  C   C924      1.0  0.73671  0.27512  0.43851  1.0000
  Fe  Fe132     1.0  0.68718  0.50536  0.18512  1.0000
  H   H1600     1.0  0.74854  0.49113  0.06967  1.0000
  H   H1601     1.0  0.71950  0.48785  0.13279  1.0000
  C   C925      1.0  0.72727  0.49817  0.11648  1.0000
  H   H1602     1.0  0.74114  0.51044  0.04381  1.0000
  H   H1603     1.0  0.68152  0.51074  0.12905  1.0000
  H   H1604     1.0  0.76287  0.50817  0.22832  1.0000
  H   H1605     1.0  0.72806  0.26719  0.42174  1.0000
  C   C926      1.0  0.76728  0.51292  0.24733  1.0000
  C   C927      1.0  0.54288  0.26437  0.28173  1.0000
  N   N67       1.0  0.69564  0.26456  0.46296  1.0000
  C   C928      1.0  0.68718  0.26499  0.48988  1.0000
  Fe  Fe133     1.0  0.58062  0.34563  0.86906  1.0000
  S   S264      1.0  0.59915  0.35593  0.83255  1.0000
  S   S265      1.0  0.59983  0.33007  0.90369  1.0000
  Fe  Fe134     1.0  0.53013  0.36782  0.85358  1.0000
  S   S266      1.0  0.54461  0.37944  0.81616  1.0000
  Fe  Fe135     1.0  0.56339  0.34210  0.81525  1.0000
  S   S267      1.0  0.56349  0.32214  0.77807  1.0000
  Fe  Fe136     1.0  0.57894  0.39250  0.83636  1.0000
  S   S268      1.0  0.59263  0.43052  0.82364  1.0000
  S   S269      1.0  0.54631  0.32922  0.85147  1.0000
  S   S270      1.0  0.56294  0.38348  0.87405  1.0000
  H   H1606     1.0  0.84877  0.33805  0.56170  1.0000
  S   S271      1.0  0.88087  0.37619  0.53603  1.0000
  H   H1607     1.0  0.00283  0.34369  0.76872  1.0000
  Fe  Fe137     1.0  0.85971  0.45050  0.70078  1.0000
  S   S272      1.0  0.82036  0.44066  0.68924  1.0000
  S   S273      1.0  0.87885  0.41898  0.72250  1.0000
  S   S274      1.0  0.81793  0.49313  0.65930  1.0000
  Fe  Fe138     1.0  0.81051  0.48012  0.69845  1.0000
  C   C929      1.0  0.88056  0.46109  0.55062  1.0000
  Fe  Fe139     1.0  0.83131  0.45443  0.65117  1.0000
  S   S275      1.0  0.81733  0.43812  0.61481  1.0000
  C   C930      1.0  0.75372  0.30700  0.52476  1.0000
  S   S276      1.0  0.87120  0.46182  0.66164  1.0000
  S   S277      1.0  0.99974  0.32344  0.86584  1.0000
  Fe  Fe140     1.0  0.96618  0.38123  0.83708  1.0000
  S   S278      1.0  0.94696  0.34454  0.84189  1.0000
  S   S279      1.0  0.95050  0.41570  0.81750  1.0000
  Fe  Fe141     1.0  0.96487  0.34291  0.87983  1.0000
  S   S280      1.0  0.94823  0.32426  0.91440  1.0000
  Fe  Fe142     1.0  0.98319  0.32828  0.82771  1.0000
  S   S281      1.0  0.97792  0.29998  0.79717  1.0000
  S   S282      1.0  0.98123  0.38118  0.87650  1.0000
  C   C931      1.0  0.78292  0.32802  0.60472  1.0000
  H   H1608     1.0  0.66606  0.28609  0.98571  1.0000
  H   H1609     1.0  0.98276  0.40048  0.73048  1.0000
  C   C932      1.0  0.89700  0.41934  0.75021  1.0000
  C   C933      1.0  0.90994  0.44040  0.75793  1.0000
  C   C934      1.0  0.92594  0.43906  0.77879  1.0000
  C   C935      1.0  0.92910  0.41675  0.79222  1.0000
  C   C936      1.0  0.91545  0.39594  0.78503  1.0000
  C   C937      1.0  0.89972  0.39719  0.76400  1.0000
  H   H1610     1.0  0.90808  0.45756  0.74752  1.0000
  H   H1611     1.0  0.93619  0.45534  0.78435  1.0000
  H   H1612     1.0  0.91729  0.37882  0.79548  1.0000
  H   H1613     1.0  0.88962  0.38087  0.75830  1.0000
  H   H1614     1.0  0.75343  0.38606  0.57338  1.0000
  H   H1615     1.0  0.69314  0.27523  0.88531  1.0000
  H   H1616     1.0  0.55681  0.50283  0.87493  1.0000
  H   H1617     1.0  0.01066  0.38476  0.72207  1.0000
  H   H1618     1.0  0.74353  0.50962  0.83530  1.0000
  C   C938      1.0  0.83611  0.42221  0.59285  1.0000
  C   C939      1.0  0.85998  0.41312  0.59872  1.0000
  C   C940      1.0  0.87374  0.39944  0.58096  1.0000
  C   C941      1.0  0.86384  0.39491  0.55719  1.0000
  C   C942      1.0  0.84026  0.40459  0.55117  1.0000
  C   C943      1.0  0.82643  0.41806  0.56896  1.0000
  H   H1619     1.0  0.86760  0.41616  0.61709  1.0000
  H   H1620     1.0  0.89198  0.39200  0.58576  1.0000
  H   H1621     1.0  0.83255  0.40153  0.53288  1.0000
  H   H1622     1.0  0.80812  0.42532  0.56415  1.0000
  H   H1623     1.0  0.68907  0.34696  0.89746  1.0000
  H   H1624     1.0  0.87839  0.45739  0.53040  1.0000
  H   H1625     1.0  0.53797  0.43393  0.83302  1.0000
  H   H1626     1.0  0.96412  0.27999  0.87831  1.0000
  C   C944      1.0  0.90069  0.36288  0.97468  1.0000
  C   C945      1.0  0.90123  0.37233  0.95020  1.0000
  C   C946      1.0  0.91663  0.36144  0.93180  1.0000
  C   C947      1.0  0.93154  0.34082  0.93770  1.0000
  C   C948      1.0  0.93139  0.33167  0.96230  1.0000
  C   C949      1.0  0.91612  0.34267  0.98074  1.0000
  H   H1627     1.0  0.88948  0.38804  0.94536  1.0000
  H   H1628     1.0  0.91652  0.36865  0.91293  1.0000
  H   H1629     1.0  0.94306  0.31591  0.96711  1.0000
  H   H1630     1.0  0.91624  0.33545  0.99957  1.0000
  C   C950      1.0  0.61652  0.28422  0.88694  1.0000
  H   H1631     1.0  0.90380  0.49625  0.63142  1.0000
  C   C951      1.0  0.83833  0.49634  0.58568  1.0000
  C   C952      1.0  0.55011  0.46228  0.87577  1.0000
  C   C953      1.0  0.61367  0.44976  0.83980  1.0000
  C   C954      1.0  0.62505  0.44218  0.86201  1.0000
  C   C955      1.0  0.64190  0.45806  0.87411  1.0000
  C   C956      1.0  0.64743  0.48161  0.86418  1.0000
  C   C957      1.0  0.63570  0.48935  0.84221  1.0000
  C   C958      1.0  0.61898  0.47342  0.83003  1.0000
  H   H1632     1.0  0.62103  0.42404  0.86975  1.0000
  H   H1633     1.0  0.65085  0.45198  0.89115  1.0000
  H   H1634     1.0  0.99316  0.39938  0.77517  1.0000
  H   H1635     1.0  0.61014  0.47947  0.81292  1.0000
  C   C959      1.0  0.54139  0.29904  0.77116  1.0000
  H   H1636     1.0  0.87746  0.30537  0.99452  1.0000
  H   H1637     1.0  0.82361  0.49107  0.59943  1.0000
  C   C960      1.0  0.61107  0.29931  0.90738  1.0000
  H   H1638     1.0  0.74051  0.34016  0.96538  1.0000
  C   C961      1.0  0.94173  0.34196  0.75744  1.0000
  C   C962      1.0  0.61661  0.29057  0.93149  1.0000
  N   N68       1.0  0.69802  0.30447  0.93119  1.0000
  H   H1639     1.0  0.61208  0.30199  0.94740  1.0000
  C   C963      1.0  0.68191  0.32841  0.89243  1.0000
  N   N69       1.0  0.70997  0.46294  0.80803  1.0000
  C   C964      1.0  0.71641  0.44121  0.82473  1.0000
  C   C965      1.0  0.72564  0.46162  0.78458  1.0000
  C   C966      1.0  0.71284  0.48772  0.82064  1.0000
  C   C967      1.0  0.70073  0.43896  0.84889  1.0000
  C   C968      1.0  0.75425  0.46346  0.78763  1.0000
  C   C969      1.0  0.73548  0.49086  0.83826  1.0000
  H   H1640     1.0  0.73629  0.44123  0.83043  1.0000
  H   H1641     1.0  0.71425  0.42348  0.81441  1.0000
  H   H1642     1.0  0.72183  0.44407  0.77443  1.0000
  H   H1643     1.0  0.72062  0.47686  0.77152  1.0000
  H   H1644     1.0  0.69586  0.49188  0.83208  1.0000
  H   H1645     1.0  0.92419  0.29463  0.87614  1.0000
  H   H1646     1.0  0.82539  0.34749  0.53921  1.0000
  C   C970      1.0  0.96008  0.36410  0.75584  1.0000
  H   H1647     1.0  0.75979  0.48209  0.79416  1.0000
  H   H1648     1.0  0.76321  0.46112  0.76903  1.0000
  H   H1649     1.0  0.76218  0.44873  0.79974  1.0000
  S   S283      1.0  0.87971  0.37617  0.99671  1.0000
  H   H1650     1.0  0.75107  0.47762  0.83565  1.0000
  H   H1651     1.0  0.63971  0.50747  0.83444  1.0000
  H   H1652     1.0  0.57471  0.27432  0.69686  1.0000
  H   H1653     1.0  0.56330  0.48729  0.84566  1.0000
  C   C971      1.0  0.83189  0.33215  0.55140  1.0000
  C   C972      1.0  0.74710  0.28226  0.52962  1.0000
  C   C973      1.0  0.71668  0.28997  0.91576  1.0000
  C   C974      1.0  0.76902  0.26704  0.00467  1.0000
  H   H1654     1.0  0.98932  0.32254  0.74803  1.0000
  C   C975      1.0  0.71072  0.32715  0.94125  1.0000
  H   H1655     1.0  0.67772  0.27232  0.94455  1.0000
  H   H1656     1.0  0.76069  0.37253  0.60240  1.0000
  H   H1657     1.0  0.52062  0.42218  0.86771  1.0000
  C   C976      1.0  0.87930  0.26680  0.00589  1.0000
  C   C977      1.0  0.70582  0.26857  0.90025  1.0000
  C   C978      1.0  0.88427  0.48912  0.55455  1.0000
  C   C979      1.0  0.68876  0.28795  0.95203  1.0000
  H   H1658     1.0  0.94915  0.38095  0.75057  1.0000
  H   H1659     1.0  0.93401  0.48348  0.62476  1.0000
  C   C980      1.0  0.86546  0.28862  0.99288  1.0000
  H   H1660     1.0  0.86492  0.49821  0.61542  1.0000
  H   H1661     1.0  0.69686  0.33955  0.95062  1.0000
  C   C981      1.0  0.99885  0.34079  0.74863  1.0000
  H   H1662     1.0  0.66503  0.29633  0.90955  1.0000
  C   C982      1.0  0.76785  0.50870  0.74150  1.0000
  H   H1663     1.0  0.85106  0.35280  0.62441  1.0000
  H   H1664     1.0  0.69924  0.45674  0.85900  1.0000
  H   H1665     1.0  0.65505  0.30893  0.96428  1.0000
  H   H1666     1.0  0.71886  0.33843  0.92581  1.0000
  C   C983      1.0  0.99571  0.38542  0.73661  1.0000
  C   C984      1.0  0.53686  0.29309  0.74614  1.0000
  H   H1667     1.0  0.69518  0.31910  0.87955  1.0000
  H   H1668     1.0  0.84766  0.33442  0.98320  1.0000
  S   S284      1.0  0.77235  0.49003  0.71494  1.0000
  C   C985      1.0  0.81111  0.32258  0.56906  1.0000
  H   H1669     1.0  0.94867  0.36354  0.68211  1.0000
  H   H1670     1.0  0.76336  0.30234  0.57973  1.0000
  H   H1671     1.0  0.77164  0.35012  0.55745  1.0000
  H   H1672     1.0  0.98967  0.35464  0.69928  1.0000
  C   C986      1.0  0.90963  0.48471  0.59235  1.0000
  H   H1673     1.0  0.79347  0.31252  0.61370  1.0000
  C   C987      1.0  0.76936  0.37955  0.58501  1.0000
  S   S285      1.0  0.84905  0.48942  0.71230  1.0000
  H   H1674     1.0  0.70975  0.42531  0.86162  1.0000
  S   S286      1.0  0.00156  0.36495  0.82108  1.0000
  H   H1675     1.0  0.92573  0.48484  0.57908  1.0000
  H   H1676     1.0  0.58401  0.48398  0.87139  1.0000
  C   C988      1.0  0.78441  0.35965  0.57057  1.0000
  C   C989      1.0  0.67231  0.47966  0.78230  1.0000
  C   C990      1.0  0.95526  0.27301  0.86097  1.0000
  H   H1677     1.0  0.82710  0.33096  0.63185  1.0000
  H   H1678     1.0  0.55468  0.46065  0.89593  1.0000
  H   H1679     1.0  0.72606  0.31257  0.97682  1.0000
  C   C991      1.0  0.86422  0.48961  0.59664  1.0000
  N   N70       1.0  0.98209  0.36102  0.73843  1.0000
  H   H1680     1.0  0.78131  0.39566  0.58964  1.0000
  C   C992      1.0  0.00293  0.28309  0.78383  1.0000
  N   N71       1.0  0.79931  0.34152  0.58615  1.0000
  H   H1681     1.0  0.90606  0.46465  0.59594  1.0000
  C   C993      1.0  0.67225  0.30048  0.97211  1.0000
  H   H1682     1.0  0.54394  0.46207  0.81568  1.0000
  H   H1683     1.0  0.80990  0.36956  0.61281  1.0000
  C   C994      1.0  0.67590  0.31261  0.91576  1.0000
  C   C995      1.0  0.95269  0.37022  0.70121  1.0000
  H   H1684     1.0  0.01782  0.41225  0.75689  1.0000
  H   H1685     1.0  0.83033  0.36713  0.58706  1.0000
  H   H1686     1.0  0.92318  0.34737  0.74981  1.0000
  H   H1687     1.0  0.66421  0.33156  0.88198  1.0000
  C   C996      1.0  0.75895  0.31640  0.59407  1.0000
  C   C997      1.0  0.97366  0.35393  0.71265  1.0000
  H   H1688     1.0  0.77739  0.34021  0.62050  1.0000
  C   C998      1.0  0.78077  0.29029  0.00484  1.0000
  H   H1689     1.0  0.86857  0.49915  0.54524  1.0000
  H   H1690     1.0  0.79702  0.37028  0.55791  1.0000
  C   C999      1.0  0.52936  0.45109  0.82556  1.0000
  H   H1691     1.0  0.55921  0.44583  0.86705  1.0000
  C   C1000     1.0  0.83697  0.34021  0.61614  1.0000
  Fe  Fe143     1.0  0.01514  0.36172  0.86070  1.0000
  N   N72       1.0  0.52211  0.46214  0.87199  1.0000
  H   H1692     1.0  0.67980  0.44141  0.79197  1.0000
  H   H1693     1.0  0.82314  0.34070  0.96172  1.0000
  C   C1001     1.0  0.81885  0.35583  0.60009  1.0000
  C   C1002     1.0  0.68289  0.45994  0.80050  1.0000
  H   H1694     1.0  0.74870  0.30661  0.60927  1.0000
  H   H1695     1.0  0.79668  0.31413  0.55693  1.0000
  C   C1003     1.0  0.73240  0.32218  0.95960  1.0000
  H   H1696     1.0  0.61231  0.29072  0.86830  1.0000
  H   H1697     1.0  0.96652  0.36765  0.77518  1.0000
  H   H1698     1.0  0.81916  0.30675  0.57983  1.0000
  N   N73       1.0  0.88677  0.49710  0.58127  1.0000
  H   H1699     1.0  0.93486  0.36899  0.71185  1.0000
  H   H1700     1.0  0.68025  0.47771  0.76326  1.0000
  H   H1701     1.0  0.91635  0.28240  0.93581  1.0000
  Fe  Fe144     1.0  0.85701  0.49992  0.67206  1.0000
  H   H1702     1.0  0.83430  0.48586  0.56848  1.0000
  H   H1703     1.0  0.83792  0.31688  0.53889  1.0000
  H   H1704     1.0  0.85429  0.33805  0.95015  1.0000
  H   H1705     1.0  0.80680  0.51043  0.75142  1.0000
  C   C1004     1.0  0.00760  0.39476  0.76093  1.0000
  C   C1005     1.0  0.56391  0.48558  0.86624  1.0000
  H   H1706     1.0  0.96303  0.28467  0.84564  1.0000
  C   C1006     1.0  0.84102  0.33034  0.96413  1.0000
  H   H1707     1.0  0.94819  0.32489  0.74805  1.0000
  H   H1708     1.0  0.53636  0.42602  0.91071  1.0000
  H   H1709     1.0  0.70460  0.27881  0.96182  1.0000
  H   H1710     1.0  0.71376  0.50290  0.80651  1.0000
  H   H1711     1.0  0.96719  0.33436  0.71216  1.0000
  H   H1712     1.0  0.54688  0.30281  0.73149  1.0000
  H   H1713     1.0  0.65176  0.47688  0.78060  1.0000
  H   H1714     1.0  0.84747  0.32632  0.60503  1.0000
  H   H1715     1.0  0.93844  0.33698  0.77733  1.0000
  H   H1716     1.0  0.53174  0.29088  0.80933  1.0000
  H   H1717     1.0  0.00582  0.27065  0.87157  1.0000
  H   H1718     1.0  0.77677  0.30361  0.99024  1.0000
  H   H1719     1.0  0.90130  0.49422  0.54362  1.0000
  H   H1720     1.0  0.67498  0.49883  0.78908  1.0000
  H   H1721     1.0  0.95823  0.38992  0.69937  1.0000
  H   H1722     1.0  0.67037  0.46055  0.81707  1.0000
  H   H1723     1.0  0.86417  0.46927  0.60034  1.0000
  H   H1724     1.0  0.74587  0.33050  0.58633  1.0000
  H   H1725     1.0  0.68164  0.43188  0.84506  1.0000
  C   C1007     1.0  0.52824  0.28658  0.79000  1.0000
  H   H1726     1.0  0.72716  0.30237  0.90278  1.0000
  H   H1727     1.0  0.74774  0.31121  0.95096  1.0000
  H   H1728     1.0  0.66247  0.32383  0.92696  1.0000
  H   H1729     1.0  0.89691  0.45003  0.55705  1.0000
  H   H1730     1.0  0.86341  0.45427  0.55995  1.0000
  H   H1731     1.0  0.72915  0.49040  0.85803  1.0000
  S   S287      1.0  0.66989  0.50028  0.87917  1.0000
  H   H1732     1.0  0.74416  0.32176  0.53458  1.0000
  H   H1733     1.0  0.73121  0.28131  0.92790  1.0000
  C   C1008     1.0  0.91887  0.49552  0.61718  1.0000
  C   C1009     1.0  0.92699  0.27967  0.86226  1.0000
  H   H1734     1.0  0.84864  0.29247  0.00468  1.0000
  H   H1735     1.0  0.68261  0.31455  0.98282  1.0000
  H   H1736     1.0  0.88496  0.31106  0.95126  1.0000
  H   H1737     1.0  0.92064  0.28789  0.84431  1.0000
  C   C1010     1.0  0.62827  0.26732  0.93515  1.0000
  H   H1738     1.0  0.81980  0.29812  0.97241  1.0000
  S   S288      1.0  0.72331  0.27612  0.55171  1.0000
  H   H1739     1.0  0.91243  0.27886  0.96847  1.0000
  H   H1740     1.0  0.91438  0.26448  0.86789  1.0000
  C   C1011     1.0  0.83618  0.30240  0.96036  1.0000
  H   H1741     1.0  0.72782  0.51072  0.73651  1.0000
  C   C1012     1.0  0.87886  0.29165  0.94845  1.0000
  H   H1742     1.0  0.82966  0.29994  0.94083  1.0000
  H   H1743     1.0  0.97914  0.26523  0.75707  1.0000
  C   C1013     1.0  0.90297  0.27596  0.95039  1.0000
  N   N74       1.0  0.85777  0.28506  0.96609  1.0000
  H   H1744     1.0  0.87242  0.29077  0.92875  1.0000
  H   H1745     1.0  0.67576  0.28864  0.52057  1.0000
  C   C1014     1.0  0.99803  0.26692  0.76406  1.0000
  H   H1746     1.0  0.93976  0.26434  0.81258  1.0000
  S   S289      1.0  0.88409  0.66673  0.48552  1.0000
  H   H1747     1.0  0.54511  0.74768  0.23841  1.0000
  S   S290      1.0  0.68287  0.54476  0.17056  1.0000
  H   H1748     1.0  0.83071  0.66150  0.47466  1.0000
  Fe  Fe145     1.0  0.83583  0.56520  0.31767  1.0000
  S   S291      1.0  0.87474  0.54925  0.31666  1.0000
  S   S292      1.0  0.81342  0.56097  0.28196  1.0000
  Fe  Fe146     1.0  0.84500  0.58892  0.36846  1.0000
  S   S293      1.0  0.88454  0.57460  0.37067  1.0000
  S   S294      1.0  0.82584  0.61080  0.39933  1.0000
  Fe  Fe147     1.0  0.88744  0.58634  0.33026  1.0000
  S   S295      1.0  0.92316  0.60324  0.31387  1.0000
  Fe  Fe148     1.0  0.86817  0.53891  0.35682  1.0000
  S   S296      1.0  0.84892  0.60317  0.32898  1.0000
  S   S297      1.0  0.82822  0.55226  0.35693  1.0000
  Fe  Fe149     1.0  0.98459  0.73550  0.19782  1.0000
  H   H1749     1.0  0.95236  0.73199  0.24289  1.0000
  Fe  Fe150     1.0  0.96752  0.71586  0.14645  1.0000
  S   S298      1.0  0.97602  0.67635  0.15708  1.0000
  S   S299      1.0  0.95569  0.73001  0.10815  1.0000
  Fe  Fe151     1.0  0.95833  0.68555  0.19429  1.0000
  S   S300      1.0  0.92596  0.66476  0.21265  1.0000
  S   S301      1.0  0.94739  0.72417  0.18229  1.0000
  S   S302      1.0  0.00384  0.73105  0.16089  1.0000
  H   H1750     1.0  0.86482  0.54167  0.17889  1.0000
  Fe  Fe152     1.0  0.59608  0.65863  0.20840  1.0000
  S   S303      1.0  0.58052  0.66827  0.17064  1.0000
  S   S304      1.0  0.60759  0.62041  0.22274  1.0000
  Fe  Fe153     1.0  0.58648  0.71138  0.22813  1.0000
  S   S305      1.0  0.57015  0.72486  0.19206  1.0000
  S   S306      1.0  0.59282  0.73621  0.26130  1.0000
  Fe  Fe154     1.0  0.55006  0.68806  0.19211  1.0000
  Fe  Fe155     1.0  0.60201  0.70417  0.17407  1.0000
  S   S307      1.0  0.62905  0.71933  0.14463  1.0000
  S   S308      1.0  0.56418  0.67633  0.22959  1.0000
  S   S309      1.0  0.61972  0.69277  0.21044  1.0000
  H   H1751     1.0  0.79559  0.75764  0.09176  1.0000
  H   H1752     1.0  0.89684  0.54941  0.18359  1.0000
  H   H1753     1.0  0.93540  0.53650  0.26508  1.0000
  H   H1754     1.0  0.90624  0.74012  0.25319  1.0000
  H   H1755     1.0  0.85266  0.69286  0.07503  1.0000
  C   C1015     1.0  0.86793  0.75968  0.04521  1.0000
  C   C1016     1.0  0.97635  0.71892  0.28371  1.0000
  C   C1017     1.0  0.56682  0.75385  0.27142  1.0000
  H   H1756     1.0  0.66346  0.54886  0.26244  1.0000
  H   H1757     1.0  0.93262  0.56693  0.20326  1.0000
  C   C1018     1.0  0.93848  0.71290  0.08609  1.0000
  C   C1019     1.0  0.93485  0.72317  0.06225  1.0000
  C   C1020     1.0  0.92008  0.71101  0.04454  1.0000
  C   C1021     1.0  0.90872  0.68841  0.05044  1.0000
  C   C1022     1.0  0.91284  0.67780  0.07409  1.0000
  C   C1023     1.0  0.92760  0.69001  0.09190  1.0000
  H   H1758     1.0  0.67296  0.74967  0.16740  1.0000
  H   H1759     1.0  0.91719  0.71938  0.02650  1.0000
  H   H1760     1.0  0.90420  0.66027  0.07883  1.0000
  H   H1761     1.0  0.93025  0.68191  0.11021  1.0000
  C   C1024     1.0  0.92414  0.62303  0.28741  1.0000
  C   C1025     1.0  0.94712  0.62680  0.27501  1.0000
  C   C1026     1.0  0.94826  0.64062  0.25264  1.0000
  C   C1027     1.0  0.92637  0.65084  0.24256  1.0000
  C   C1028     1.0  0.90362  0.64808  0.25558  1.0000
  C   C1029     1.0  0.90251  0.63436  0.27798  1.0000
  H   H1762     1.0  0.96398  0.61825  0.28230  1.0000
  H   H1763     1.0  0.96585  0.64246  0.24268  1.0000
  H   H1764     1.0  0.88664  0.65609  0.24798  1.0000
  H   H1765     1.0  0.88481  0.63200  0.28762  1.0000
  C   C1030     1.0  0.77948  0.52502  0.29659  1.0000
  C   C1031     1.0  0.68241  0.54229  0.26805  1.0000
  C   C1032     1.0  0.66046  0.56509  0.18397  1.0000
  C   C1033     1.0  0.65834  0.58951  0.17484  1.0000
  C   C1034     1.0  0.64180  0.60659  0.18613  1.0000
  C   C1035     1.0  0.62739  0.59937  0.20677  1.0000
  C   C1036     1.0  0.62942  0.57491  0.21576  1.0000
  C   C1037     1.0  0.64579  0.55782  0.20438  1.0000
  H   H1766     1.0  0.66965  0.59533  0.15908  1.0000
  H   H1767     1.0  0.64039  0.62539  0.17907  1.0000
  H   H1768     1.0  0.61829  0.56919  0.23169  1.0000
  H   H1769     1.0  0.64710  0.53907  0.21152  1.0000
  N   N75       1.0  0.94816  0.72024  0.28153  1.0000
  H   H1770     1.0  0.94738  0.70002  0.24691  1.0000
  C   C1038     1.0  0.79160  0.53712  0.27685  1.0000
  C   C1039     1.0  0.92396  0.58554  0.20207  1.0000
  N   N76       1.0  0.85740  0.75774  0.07133  1.0000
  C   C1040     1.0  0.86759  0.65294  0.46062  1.0000
  C   C1041     1.0  0.88113  0.64160  0.44118  1.0000
  C   C1042     1.0  0.86864  0.62915  0.42188  1.0000
  C   C1043     1.0  0.84243  0.62820  0.42171  1.0000
  C   C1044     1.0  0.82891  0.64039  0.44060  1.0000
  C   C1045     1.0  0.84138  0.65248  0.46009  1.0000
  H   H1771     1.0  0.90140  0.64204  0.44132  1.0000
  H   H1772     1.0  0.87930  0.62003  0.40736  1.0000
  H   H1773     1.0  0.80863  0.64010  0.44041  1.0000
  C   C1046     1.0  0.93907  0.74440  0.29234  1.0000
  H   H1774     1.0  0.89330  0.60663  0.21602  1.0000
  S   S310      1.0  0.99444  0.69748  0.21190  1.0000
  C   C1047     1.0  0.79666  0.60096  0.50253  1.0000
  H   H1775     1.0  0.84696  0.54317  0.45405  1.0000
  H   H1776     1.0  0.71705  0.53764  0.07905  1.0000
  H   H1777     1.0  0.93993  0.59864  0.20347  1.0000
  H   H1778     1.0  0.68654  0.54939  0.28682  1.0000
  H   H1779     1.0  0.73956  0.57031  0.18834  1.0000
  H   H1780     1.0  0.88169  0.72618  0.07826  1.0000
  H   H1781     1.0  0.75578  0.56546  0.21693  1.0000
  H   H1782     1.0  0.94324  0.74083  0.05758  1.0000
  H   H1783     1.0  0.93987  0.68102  0.28692  1.0000
  C   C1048     1.0  0.87955  0.54354  0.19330  1.0000
  H   H1784     1.0  0.74771  0.57946  0.30091  1.0000
  H   H1785     1.0  0.76598  0.74761  0.04154  1.0000
  H   H1786     1.0  0.63077  0.75216  0.18584  1.0000
  H   H1787     1.0  0.91490  0.70080  0.29403  1.0000
  H   H1788     1.0  0.99347  0.64051  0.03309  1.0000
  H   H1789     1.0  0.69566  0.53780  0.11645  1.0000
  H   H1790     1.0  0.73057  0.54509  0.20782  1.0000
  H   H1791     1.0  0.85866  0.73020  0.10126  1.0000
  N   N77       1.0  0.88910  0.57007  0.23258  1.0000
  C   C1049     1.0  0.87437  0.57922  0.25486  1.0000
  C   C1050     1.0  0.90455  0.54817  0.24128  1.0000
  C   C1051     1.0  0.87045  0.56220  0.21310  1.0000
  C   C1052     1.0  0.90512  0.59113  0.22318  1.0000
  C   C1053     1.0  0.85438  0.59943  0.24962  1.0000
  C   C1054     1.0  0.92471  0.55378  0.26097  1.0000
  H   H1792     1.0  0.98172  0.68346  0.26377  1.0000
  H   H1793     1.0  0.88232  0.52479  0.20158  1.0000
  H   H1794     1.0  0.86442  0.56353  0.26412  1.0000
  H   H1795     1.0  0.88695  0.58687  0.26927  1.0000
  H   H1796     1.0  0.54650  0.69994  0.27612  1.0000
  H   H1797     1.0  0.85386  0.55323  0.22212  1.0000
  H   H1798     1.0  0.87623  0.57239  0.47536  1.0000
  H   H1799     1.0  0.82268  0.74864  0.10845  1.0000
  H   H1800     1.0  0.66551  0.74397  0.11421  1.0000
  H   H1801     1.0  0.91564  0.59974  0.23862  1.0000
  H   H1802     1.0  0.86229  0.61627  0.24081  1.0000
  H   H1803     1.0  0.83875  0.59231  0.23821  1.0000
  H   H1804     1.0  0.84601  0.60532  0.26766  1.0000
  H   H1805     1.0  0.96122  0.66688  0.02170  1.0000
  H   H1806     1.0  0.89208  0.53352  0.24920  1.0000
  C   C1055     1.0  0.68076  0.72712  0.19961  1.0000
  H   H1807     1.0  0.98405  0.68088  0.29722  1.0000
  Fe  Fe156     1.0  0.01127  0.69203  0.17356  1.0000
  H   H1808     1.0  0.69338  0.54411  0.23007  1.0000
  C   C1056     1.0  0.81539  0.76282  0.09536  1.0000
  H   H1809     1.0  0.92633  0.70761  0.33455  1.0000
  H   H1810     1.0  0.83166  0.54178  0.49276  1.0000
  H   H1811     1.0  0.93845  0.56772  0.25431  1.0000
  C   C1057     1.0  0.84836  0.56296  0.44857  1.0000
  C   C1058     1.0  0.52762  0.70001  0.28493  1.0000
  C   C1059     1.0  0.71585  0.51741  0.07508  1.0000
  H   H1812     1.0  0.82594  0.71287  0.07324  1.0000
  H   H1813     1.0  0.70200  0.51573  0.05973  1.0000
  H   H1814     1.0  0.78375  0.52997  0.31560  1.0000
  C   C1060     1.0  0.74098  0.52097  0.12687  1.0000
  C   C1061     1.0  0.84610  0.71130  0.06828  1.0000
  H   H1815     1.0  0.85619  0.74910  0.03192  1.0000
  H   H1816     1.0  0.63826  0.74502  0.21715  1.0000
  H   H1817     1.0  0.66434  0.71594  0.19414  1.0000
  N   N78       1.0  0.84025  0.58089  0.49274  1.0000
  H   H1818     1.0  0.94135  0.67789  0.32969  1.0000
  H   H1819     1.0  0.72623  0.55515  0.29509  1.0000
  H   H1820     1.0  0.66733  0.53353  0.07782  1.0000
  H   H1821     1.0  0.59531  0.76242  0.14918  1.0000
  H   H1822     1.0  0.88683  0.75100  0.04398  1.0000
  H   H1823     1.0  0.94506  0.74606  0.31210  1.0000
  C   C1062     1.0  0.68906  0.59312  0.25421  1.0000
  H   H1824     1.0  0.91167  0.72049  0.22717  1.0000
  H   H1825     1.0  0.52680  0.68338  0.29716  1.0000
  C   C1063     1.0  0.54548  0.75618  0.25659  1.0000
  H   H1826     1.0  0.00883  0.69464  0.27946  1.0000
  H   H1827     1.0  0.98289  0.72650  0.30177  1.0000
  H   H1828     1.0  0.91514  0.58823  0.18354  1.0000
  H   H1829     1.0  0.67237  0.58893  0.24262  1.0000
  H   H1830     1.0  0.71507  0.58682  0.29976  1.0000
  C   C1064     1.0  0.73708  0.56457  0.20813  1.0000
  C   C1065     1.0  0.78536  0.53109  0.25224  1.0000
  C   C1066     1.0  0.66340  0.52596  0.09668  1.0000
  H   H1831     1.0  0.79458  0.54051  0.23690  1.0000
  H   H1832     1.0  0.85962  0.54847  0.50790  1.0000
  H   H1833     1.0  0.85083  0.61896  0.49924  1.0000
  H   H1834     1.0  0.68147  0.72831  0.22020  1.0000
  C   C1067     1.0  0.72987  0.57504  0.29131  1.0000
  H   H1835     1.0  0.77749  0.60198  0.49459  1.0000
  C   C1068     1.0  0.85041  0.60088  0.50938  1.0000
  H   H1836     1.0  0.80269  0.62040  0.50544  1.0000
  C   C1069     1.0  0.81423  0.58774  0.48386  1.0000
  C   C1070     1.0  0.68752  0.51962  0.11122  1.0000
  S   S311      1.0  0.88895  0.67323  0.02902  1.0000
  H   H1837     1.0  0.69765  0.71689  0.19304  1.0000
  H   H1838     1.0  0.86233  0.56405  0.43315  1.0000
  C   C1071     1.0  0.63759  0.76055  0.20338  1.0000
  H   H1839     1.0  0.98545  0.73101  0.26938  1.0000
  H   H1840     1.0  0.68155  0.52175  0.26964  1.0000
  H   H1841     1.0  0.90191  0.70673  0.25567  1.0000
  C   C1072     1.0  0.73321  0.58006  0.26327  1.0000
  H   H1842     1.0  0.71847  0.53669  0.25035  1.0000
  H   H1843     1.0  0.74044  0.59925  0.26105  1.0000
  H   H1844     1.0  0.83033  0.56948  0.44057  1.0000
  H   H1845     1.0  0.74887  0.56779  0.25736  1.0000
  H   H1846     1.0  0.86042  0.59825  0.46228  1.0000
  C   C1073     1.0  0.94162  0.71836  0.25431  1.0000
  H   H1847     1.0  0.65285  0.54048  0.10706  1.0000
  C   C1074     1.0  0.70214  0.54942  0.24805  1.0000
  C   C1075     1.0  0.98813  0.69288  0.28082  1.0000
  H   H1848     1.0  0.91644  0.55985  0.27891  1.0000
  C   C1076     1.0  0.84025  0.55576  0.50520  1.0000
  C   C1077     1.0  0.91368  0.72172  0.24772  1.0000
  H   H1849     1.0  0.81526  0.60052  0.46752  1.0000
  C   C1078     1.0  0.86174  0.73166  0.08080  1.0000
  C   C1079     1.0  0.85731  0.57944  0.47021  1.0000
  H   H1850     1.0  0.91458  0.53902  0.22569  1.0000
  H   H1851     1.0  0.90343  0.75471  0.10077  1.0000
  H   H1852     1.0  0.86292  0.57870  0.20291  1.0000
  H   H1853     1.0  0.82004  0.75204  0.05680  1.0000
  C   C1080     1.0  0.63018  0.75018  0.13290  1.0000
  C   C1081     1.0  0.67957  0.75277  0.18681  1.0000
  N   N79       1.0  0.71055  0.57618  0.24711  1.0000
  H   H1854     1.0  0.74677  0.53419  0.11209  1.0000
  C   C1082     1.0  0.93564  0.69931  0.29549  1.0000
  H   H1855     1.0  0.89142  0.59658  0.50508  1.0000
  H   H1856     1.0  0.80418  0.57109  0.47703  1.0000
  C   C1083     1.0  0.71798  0.58235  0.22058  1.0000
  H   H1857     1.0  0.52666  0.71707  0.29628  1.0000
  C   C1084     1.0  0.69371  0.62122  0.25152  1.0000
  H   H1858     1.0  0.70114  0.58298  0.20846  1.0000
  H   H1859     1.0  0.72645  0.60113  0.21927  1.0000
  H   H1860     1.0  0.69915  0.75921  0.18462  1.0000
  H   H1861     1.0  0.68293  0.59003  0.27376  1.0000
  H   H1862     1.0  0.95950  0.70530  0.32892  1.0000
  H   H1863     1.0  0.69582  0.62694  0.23172  1.0000
  H   H1864     1.0  0.67695  0.63132  0.25868  1.0000
  H   H1865     1.0  0.70995  0.62744  0.26257  1.0000
  C   C1085     1.0  0.94106  0.69769  0.32373  1.0000
  H   H1866     1.0  0.75814  0.51464  0.13674  1.0000
  H   H1867     1.0  0.70993  0.76078  0.22816  1.0000
  H   H1868     1.0  0.84840  0.71138  0.04773  1.0000
  H   H1869     1.0  0.91822  0.74514  0.29313  1.0000
  C   C1086     1.0  0.77586  0.76304  0.03311  1.0000
  H   H1870     1.0  0.81407  0.74832  0.51672  1.0000
  H   H1871     1.0  0.75626  0.52369  0.06970  1.0000
  H   H1872     1.0  0.72924  0.53078  0.14087  1.0000
  C   C1087     1.0  0.65109  0.75746  0.11862  1.0000
  C   C1088     1.0  0.82986  0.76390  0.07037  1.0000
  H   H1873     1.0  0.58379  0.76371  0.30631  1.0000
  H   H1874     1.0  0.96972  0.63402  0.96848  1.0000
  Fe  Fe157     1.0  0.87452  0.69793  0.57470  1.0000
  S   S312      1.0  0.83668  0.68463  0.58797  1.0000
  S   S313      1.0  0.89825  0.71610  0.60499  1.0000
  C   C1089     1.0  0.53585  0.75060  0.75468  1.0000
  S   S314      1.0  0.82715  0.66323  0.53244  1.0000
  Fe  Fe158     1.0  0.82255  0.69994  0.55160  1.0000
  S   S315      1.0  0.78574  0.72118  0.55466  1.0000
  Fe  Fe159     1.0  0.84478  0.64916  0.56789  1.0000
  S   S316      1.0  0.83192  0.61024  0.57906  1.0000
  S   S317      1.0  0.85993  0.71484  0.53908  1.0000
  S   S318      1.0  0.88369  0.66088  0.55720  1.0000
  H   H1875     1.0  0.90593  0.54048  0.54771  1.0000
  H   H1876     1.0  0.79803  0.58401  0.83144  1.0000
  S   S319      1.0  0.55259  0.67199  0.87768  1.0000
  Fe  Fe160     1.0  0.89466  0.71686  0.94559  1.0000
  S   S320      1.0  0.88573  0.67731  0.95518  1.0000
  S   S321      1.0  0.93021  0.73257  0.92805  1.0000
  Fe  Fe161     1.0  0.84718  0.73627  0.97224  1.0000
  S   S322      1.0  0.83468  0.69810  0.98393  1.0000
  H   H1877     1.0  0.91713  0.55361  0.57650  1.0000
  H   H1878     1.0  0.79840  0.73980  0.00896  1.0000
  Fe  Fe162     1.0  0.84572  0.68686  0.94484  1.0000
  S   S323      1.0  0.82534  0.66372  0.91569  1.0000
  S   S324      1.0  0.88694  0.73071  0.98425  1.0000
  S   S325      1.0  0.85568  0.72575  0.93264  1.0000
  Fe  Fe163     1.0  0.68057  0.53852  0.86455  1.0000
  S   S326      1.0  0.67952  0.54969  0.82423  1.0000
  Fe  Fe164     1.0  0.70480  0.58808  0.88038  1.0000
  S   S327      1.0  0.70471  0.60287  0.84114  1.0000
  S   S328      1.0  0.72059  0.60768  0.91445  1.0000
  Fe  Fe165     1.0  0.66577  0.58665  0.83900  1.0000
  S   S329      1.0  0.63205  0.60460  0.81994  1.0000
  Fe  Fe166     1.0  0.71824  0.56472  0.83023  1.0000
  S   S330      1.0  0.75498  0.55849  0.80942  1.0000
  S   S331      1.0  0.66480  0.57442  0.87910  1.0000
  S   S332      1.0  0.72033  0.55090  0.86970  1.0000
  H   H1879     1.0  0.82715  0.60340  0.65136  1.0000
  S   S333      1.0  0.87683  0.53546  0.66007  1.0000
  C   C1090     1.0  0.75924  0.53917  0.78330  1.0000
  H   H1880     1.0  0.80649  0.53018  0.83275  1.0000
  C   C1091     1.0  0.00653  0.65987  0.95329  1.0000
  H   H1881     1.0  0.82168  0.54158  0.90983  1.0000
  H   H1882     1.0  0.92184  0.73979  0.64626  1.0000
  H   H1883     1.0  0.74391  0.76290  0.97369  1.0000
  C   C1092     1.0  0.79440  0.65167  0.91607  1.0000
  C   C1093     1.0  0.78212  0.64508  0.93823  1.0000
  C   C1094     1.0  0.75899  0.63250  0.93745  1.0000
  C   C1095     1.0  0.74789  0.62642  0.91457  1.0000
  C   C1096     1.0  0.75964  0.63399  0.89245  1.0000
  C   C1097     1.0  0.78281  0.64641  0.89323  1.0000
  H   H1884     1.0  0.79082  0.64891  0.95594  1.0000
  H   H1885     1.0  0.75000  0.62682  0.95468  1.0000
  H   H1886     1.0  0.75111  0.62983  0.87474  1.0000
  H   H1887     1.0  0.79204  0.65161  0.87599  1.0000
  C   C1098     1.0  0.57380  0.65244  0.86146  1.0000
  C   C1099     1.0  0.59539  0.64391  0.87378  1.0000
  C   C1100     1.0  0.61323  0.62903  0.86139  1.0000
  C   C1101     1.0  0.60983  0.62285  0.83638  1.0000
  C   C1102     1.0  0.58827  0.63148  0.82400  1.0000
  C   C1103     1.0  0.57018  0.64600  0.83653  1.0000
  H   H1888     1.0  0.59841  0.64888  0.89303  1.0000
  H   H1889     1.0  0.62978  0.62263  0.87111  1.0000
  H   H1890     1.0  0.58557  0.62686  0.80461  1.0000
  H   H1891     1.0  0.55373  0.65258  0.82678  1.0000
  C   C1104     1.0  0.58744  0.75300  0.80398  1.0000
  H   H1892     1.0  0.01592  0.72220  0.89724  1.0000
  H   H1893     1.0  0.82650  0.55296  0.67490  1.0000
  H   H1894     1.0  0.55956  0.59956  0.87464  1.0000
  H   H1895     1.0  0.01392  0.64626  0.96690  1.0000
  C   C1105     1.0  0.84531  0.58985  0.60135  1.0000
  C   C1106     1.0  0.86719  0.59549  0.61434  1.0000
  C   C1107     1.0  0.87665  0.57871  0.63233  1.0000
  C   C1108     1.0  0.86428  0.55629  0.63755  1.0000
  C   C1109     1.0  0.84254  0.55067  0.62436  1.0000
  C   C1110     1.0  0.83320  0.56729  0.60632  1.0000
  H   H1896     1.0  0.87671  0.61282  0.61067  1.0000
  H   H1897     1.0  0.89357  0.58322  0.64233  1.0000
  H   H1898     1.0  0.83284  0.53354  0.62804  1.0000
  H   H1899     1.0  0.81624  0.56280  0.59638  1.0000
  H   H1900     1.0  0.91895  0.65116  0.98971  1.0000
  H   H1901     1.0  0.61302  0.73095  0.77992  1.0000
  H   H1902     1.0  0.80388  0.62363  0.66523  1.0000
  H   H1903     1.0  0.62092  0.73576  0.83884  1.0000
  C   C1111     1.0  0.93476  0.75054  0.85310  1.0000
  H   H1904     1.0  0.93584  0.73083  0.85924  1.0000
  H   H1905     1.0  0.57318  0.71234  0.77770  1.0000
  H   H1906     1.0  0.92533  0.75188  0.83485  1.0000
  C   C1112     1.0  0.99388  0.69008  0.88891  1.0000
  C   C1113     1.0  0.99778  0.71359  0.89892  1.0000
  C   C1114     1.0  0.97808  0.72623  0.91094  1.0000
  C   C1115     1.0  0.95440  0.71529  0.91362  1.0000
  C   C1116     1.0  0.95067  0.69134  0.90455  1.0000
  C   C1117     1.0  0.97033  0.67886  0.89209  1.0000
  H   H1907     1.0  0.84602  0.73000  0.61306  1.0000
  H   H1908     1.0  0.98122  0.74462  0.91821  1.0000
  H   H1909     1.0  0.93248  0.68275  0.90649  1.0000
  H   H1910     1.0  0.96714  0.66064  0.88446  1.0000
  H   H1911     1.0  0.79604  0.56943  0.64774  1.0000
  H   H1912     1.0  0.52677  0.60529  0.79622  1.0000
  H   H1913     1.0  0.74358  0.56953  0.70610  1.0000
  H   H1914     1.0  0.80259  0.74913  0.60121  1.0000
  H   H1915     1.0  0.80085  0.61337  0.63381  1.0000
  H   H1916     1.0  0.77173  0.58919  0.65710  1.0000
  C   C1118     1.0  0.80684  0.60757  0.65280  1.0000
  C   C1119     1.0  0.54068  0.58354  0.84220  1.0000
  H   H1917     1.0  0.84256  0.55509  0.88812  1.0000
  N   N80       1.0  0.80429  0.56803  0.88451  1.0000
  C   C1120     1.0  0.78241  0.57579  0.90060  1.0000
  C   C1121     1.0  0.81240  0.59025  0.86924  1.0000
  N   N81       1.0  0.96869  0.67215  0.98198  1.0000
  C   C1122     1.0  0.79617  0.54697  0.86820  1.0000
  C   C1123     1.0  0.77265  0.55637  0.91948  1.0000
  C   C1124     1.0  0.79543  0.59718  0.84704  1.0000
  C   C1125     1.0  0.82604  0.55938  0.90016  1.0000
  H   H1918     1.0  0.60183  0.76011  0.85030  1.0000
  S   S334      1.0  0.01760  0.67475  0.87153  1.0000
  H   H1919     1.0  0.76609  0.58113  0.88890  1.0000
  C   C1126     1.0  0.55840  0.58165  0.86467  1.0000
  H   H1920     1.0  0.98010  0.71633  0.84613  1.0000
  C   C1127     1.0  0.74344  0.51638  0.74788  1.0000
  H   H1921     1.0  0.82921  0.55148  0.84297  1.0000
  H   H1922     1.0  0.88924  0.53204  0.60117  1.0000
  H   H1923     1.0  0.77872  0.55162  0.85784  1.0000
  H   H1924     1.0  0.52362  0.59591  0.89772  1.0000
  H   H1925     1.0  0.80573  0.54993  0.52698  1.0000
  C   C1128     1.0  0.94930  0.69268  0.98204  1.0000
  C   C1129     1.0  0.79429  0.75856  0.01480  1.0000
  H   H1926     1.0  0.52094  0.62858  0.89607  1.0000
  H   H1927     1.0  0.74441  0.56386  0.67255  1.0000
  H   H1928     1.0  0.54385  0.73596  0.74339  1.0000
  H   H1929     1.0  0.84089  0.59590  0.91145  1.0000
  C   C1130     1.0  0.60159  0.74007  0.84546  1.0000
  H   H1930     1.0  0.79068  0.53066  0.87973  1.0000
  H   H1931     1.0  0.82073  0.58144  0.93449  1.0000
  H   H1932     1.0  0.97321  0.72564  0.97504  1.0000
  N   N82       1.0  0.79555  0.57594  0.68749  1.0000
  C   C1131     1.0  0.82251  0.56731  0.68921  1.0000
  C   C1132     1.0  0.77931  0.55369  0.69274  1.0000
  C   C1133     1.0  0.79119  0.59597  0.70654  1.0000
  C   C1134     1.0  0.83084  0.55614  0.71442  1.0000
  C   C1135     1.0  0.76796  0.61300  0.70293  1.0000
  H   H1933     1.0  0.83573  0.58274  0.68535  1.0000
  H   H1934     1.0  0.78246  0.54676  0.71195  1.0000
  H   H1935     1.0  0.78964  0.58765  0.72556  1.0000
  H   H1936     1.0  0.80779  0.60842  0.70731  1.0000
  H   H1937     1.0  0.82730  0.56876  0.73027  1.0000
  H   H1938     1.0  0.82206  0.53791  0.71801  1.0000
  H   H1939     1.0  0.85140  0.55264  0.71365  1.0000
  H   H1940     1.0  0.88144  0.61155  0.53280  1.0000
  C   C1136     1.0  0.73909  0.53140  0.76883  1.0000
  H   H1941     1.0  0.75695  0.61363  0.72058  1.0000
  H   H1942     1.0  0.75486  0.60741  0.68820  1.0000
  H   H1943     1.0  0.77393  0.63236  0.69905  1.0000
  H   H1944     1.0  0.85545  0.75368  0.58058  1.0000
  C   C1137     1.0  0.83511  0.57797  0.91990  1.0000
  H   H1945     1.0  0.92762  0.62154  0.97820  1.0000
  H   H1946     1.0  0.54825  0.59900  0.83076  1.0000
  H   H1947     1.0  0.96847  0.75877  0.87200  1.0000
  H   H1948     1.0  0.94156  0.63226  0.00628  1.0000
  H   H1949     1.0  0.80067  0.61584  0.83989  1.0000
  C   C1138     1.0  0.55638  0.73878  0.83464  1.0000
  C   C1139     1.0  0.79597  0.75717  0.51902  1.0000
  H   H1950     1.0  0.94015  0.69419  0.96350  1.0000
  C   C1140     1.0  0.75072  0.55733  0.69108  1.0000
  H   H1951     1.0  0.85179  0.57009  0.92947  1.0000
  H   H1952     1.0  0.98300  0.69129  0.94928  1.0000
  H   H1953     1.0  0.54949  0.70101  0.79917  1.0000
  H   H1954     1.0  0.57770  0.57773  0.85772  1.0000
  C   C1141     1.0  0.78368  0.53181  0.77668  1.0000
  H   H1955     1.0  0.54345  0.56649  0.83086  1.0000
  H   H1956     1.0  0.72025  0.53735  0.77350  1.0000
  H   H1957     1.0  0.55350  0.56638  0.87766  1.0000
  H   H1958     1.0  0.99008  0.69615  0.80592  1.0000
  C   C1142     1.0  0.95892  0.71886  0.98851  1.0000
  H   H1959     1.0  0.55134  0.72416  0.84850  1.0000
  H   H1960     1.0  0.78445  0.53811  0.68009  1.0000
  C   C1143     1.0  0.77841  0.74712  0.53562  1.0000
  H   H1961     1.0  0.79939  0.53795  0.78763  1.0000
  H   H1962     1.0  0.87189  0.53389  0.57383  1.0000
  H   H1963     1.0  0.62880  0.75172  0.80105  1.0000
  C   C1144     1.0  0.56975  0.70082  0.79453  1.0000
  H   H1964     1.0  0.99611  0.65013  0.93842  1.0000
  H   H1965     1.0  0.93390  0.68864  0.99549  1.0000
  H   H1966     1.0  0.74121  0.75109  0.55106  1.0000
  C   C1145     1.0  0.96090  0.76260  0.85305  1.0000
  H   H1967     1.0  0.83391  0.53767  0.54097  1.0000
  C   C1146     1.0  0.75489  0.75877  0.53826  1.0000
  H   H1968     1.0  0.76440  0.54009  0.91016  1.0000
  H   H1969     1.0  0.61260  0.73089  0.88343  1.0000
  H   H1970     1.0  0.94304  0.73219  0.98729  1.0000
  C   C1147     1.0  0.91162  0.74614  0.60792  1.0000
  H   H1971     1.0  0.60072  0.70493  0.86710  1.0000
  H   H1972     1.0  0.81357  0.60704  0.88112  1.0000
  C   C1148     1.0  0.61207  0.74922  0.78922  1.0000
  C   C1149     1.0  0.82596  0.55341  0.53013  1.0000
  H   H1973     1.0  0.94849  0.65357  0.95271  1.0000
  C   C1150     1.0  0.58580  0.70861  0.81698  1.0000
  Fe  Fe167     1.0  0.87557  0.69191  0.99324  1.0000
  H   H1974     1.0  0.58064  0.69576  0.83237  1.0000
  C   C1151     1.0  0.78796  0.51639  0.75605  1.0000
  H   H1975     1.0  0.98732  0.68512  0.01509  1.0000
  H   H1976     1.0  0.57466  0.68140  0.78957  1.0000
  H   H1977     1.0  0.60576  0.70414  0.81266  1.0000
  H   H1978     1.0  0.75726  0.56500  0.93055  1.0000
  H   H1979     1.0  0.95776  0.72175  0.82282  1.0000
  C   C1152     1.0  0.99475  0.71601  0.80862  1.0000
  C   C1153     1.0  0.93498  0.63826  0.98761  1.0000
  C   C1154     1.0  0.97694  0.72691  0.82852  1.0000
  H   H1980     1.0  0.78701  0.59269  0.91135  1.0000
  H   H1981     1.0  0.92803  0.52409  0.56711  1.0000
  H   H1982     1.0  0.78717  0.55038  0.93293  1.0000
  H   H1983     1.0  0.83177  0.58792  0.86181  1.0000
  C   C1155     1.0  0.79155  0.58466  0.66100  1.0000
  H   H1984     1.0  0.99269  0.72539  0.79028  1.0000
  H   H1985     1.0  0.70135  0.76066  0.99098  1.0000
  H   H1986     1.0  0.81928  0.72185  0.63150  1.0000
  H   H1987     1.0  0.83604  0.51644  0.58219  1.0000
  H   H1988     1.0  0.57966  0.72858  0.87894  1.0000
  H   H1989     1.0  0.82811  0.56961  0.54239  1.0000
  H   H1990     1.0  0.82710  0.52171  0.85815  1.0000
  H   H1991     1.0  0.54271  0.73652  0.81932  1.0000
  C   C1156     1.0  0.81595  0.75836  0.61403  1.0000
  H   H1992     1.0  0.00940  0.74601  0.85894  1.0000
  H   H1993     1.0  0.77532  0.59793  0.85219  1.0000
  C   C1157     1.0  0.95625  0.64940  0.97157  1.0000
  C   C1158     1.0  0.59809  0.72514  0.86992  1.0000
  N   N83       1.0  0.58281  0.73512  0.82523  1.0000
  H   H1994     1.0  0.57178  0.75267  0.79046  1.0000
  C   C1159     1.0  0.81606  0.53710  0.84966  1.0000
  H   H1995     1.0  0.90467  0.75816  0.57034  1.0000
  C   C1160     1.0  0.91123  0.53620  0.56728  1.0000
  C   C1161     1.0  0.99016  0.68025  0.96531  1.0000
  C   C1162     1.0  0.97735  0.66839  0.00844  1.0000
  Fe  Fe168     1.0  0.86562  0.67660  0.52255  1.0000
  C   C1163     1.0  0.99542  0.64652  0.01332  1.0000
  C   C1164     1.0  0.91195  0.76338  0.58830  1.0000
  H   H1996     1.0  0.74170  0.53902  0.69420  1.0000
  H   H1997     1.0  0.99106  0.62981  0.00240  1.0000
  H   H1998     1.0  0.84126  0.74374  0.64318  1.0000
  H   H1999     1.0  0.52144  0.62635  0.85400  1.0000
  C   C1165     1.0  0.83175  0.73743  0.62603  1.0000
  H   H2000     1.0  0.83814  0.60442  0.52567  1.0000
  C   C1166     1.0  0.92185  0.75299  0.63097  1.0000
  H   H2001     1.0  0.82595  0.75655  0.56700  1.0000
  H   H2002     1.0  0.92262  0.76013  0.86697  1.0000
  H   H2003     1.0  0.00298  0.69289  0.97542  1.0000
  C   C1167     1.0  0.88889  0.52495  0.58179  1.0000
  H   H2004     1.0  0.01514  0.65204  0.00980  1.0000
  H   H2005     1.0  0.94552  0.74674  0.79413  1.0000
  H   H2006     1.0  0.87794  0.57883  0.53093  1.0000
  H   H2007     1.0  0.96614  0.71986  0.00779  1.0000
  C   C1168     1.0  0.00546  0.75863  0.84293  1.0000
  N   N84       1.0  0.97934  0.75437  0.83318  1.0000
  C   C1169     1.0  0.87686  0.59624  0.51990  1.0000
  H   H2008     1.0  0.01458  0.71640  0.81460  1.0000
  H   H2009     1.0  0.79526  0.59138  0.52074  1.0000
  H   H2010     1.0  0.61301  0.76347  0.77415  1.0000
  C   C1170     1.0  0.55055  0.76428  0.84629  1.0000
  H   H2011     1.0  0.92690  0.51432  0.61464  1.0000
  Fe  Fe169     1.0  0.72462  0.84044  0.48784  1.0000
  H   H2012     1.0  0.70778  0.99950  0.29061  1.0000
  C   C1171     1.0  0.54793  0.84056  0.48346  1.0000
  Fe  Fe170     1.0  0.67311  0.84600  0.46260  1.0000
  S   S335      1.0  0.67046  0.88624  0.47197  1.0000
  S   S336      1.0  0.64256  0.82595  0.44113  1.0000
  Fe  Fe171     1.0  0.71109  0.88856  0.46044  1.0000
  S   S337      1.0  0.72296  0.91968  0.43384  1.0000
  H   H2013     1.0  0.85211  0.79611  0.03369  1.0000
  S   S338      1.0  0.71280  0.84886  0.44844  1.0000
  C   C1172     1.0  0.91624  0.00565  0.25176  1.0000
  Fe  Fe172     1.0  0.84908  0.96180  0.36721  1.0000
  S   S339      1.0  0.85611  0.94735  0.32868  1.0000
  S   S340      1.0  0.83601  0.93708  0.39914  1.0000
  N   N85       1.0  0.52846  0.83548  0.46385  1.0000
  Fe  Fe173     1.0  0.83894  0.98337  0.31559  1.0000
  S   S341      1.0  0.81075  0.97881  0.28431  1.0000
  Fe  Fe174     1.0  0.89263  0.96782  0.32994  1.0000
  S   S342      1.0  0.92823  0.95221  0.31198  1.0000
  H   H2014     1.0  0.99362  0.85604  0.41153  1.0000
  S   S343      1.0  0.88723  0.97952  0.36963  1.0000
  H   H2015     1.0  0.69789  0.79447  0.16461  1.0000
  H   H2016     1.0  0.52438  0.81875  0.42761  1.0000
  Fe  Fe175     1.0  0.71445  0.88094  0.08112  1.0000
  S   S344      1.0  0.67528  0.88121  0.06588  1.0000
  S   S345      1.0  0.73262  0.91305  0.10144  1.0000
  Fe  Fe176     1.0  0.72438  0.82733  0.06484  1.0000
  S   S346      1.0  0.68586  0.82390  0.04882  1.0000
  S   S347      1.0  0.74788  0.79217  0.06441  1.0000
  Fe  Fe177     1.0  0.69267  0.86199  0.03275  1.0000
  Fe  Fe178     1.0  0.67243  0.84297  0.08333  1.0000
  S   S348      1.0  0.63888  0.83135  0.10705  1.0000
  S   S349      1.0  0.73218  0.86416  0.04676  1.0000
  S   S350      1.0  0.71050  0.84405  0.10067  1.0000
  C   C1173     1.0  0.65218  0.86573  0.36533  1.0000
  H   H2017     1.0  0.60995  0.87149  0.15646  1.0000
  S   S351      1.0  0.56052  0.87982  0.37380  1.0000
  C   C1174     1.0  0.74312  0.00038  0.08528  1.0000
  H   H2018     1.0  0.69809  0.96800  0.03737  1.0000
  C   C1175     1.0  0.68560  0.88635  0.14949  1.0000
  H   H2019     1.0  0.77877  0.82598  0.03537  1.0000
  H   H2020     1.0  0.66745  0.90516  0.17960  1.0000
  C   C1176     1.0  0.61412  0.79249  0.12979  1.0000
  C   C1177     1.0  0.63530  0.79980  0.11587  1.0000
  C   C1178     1.0  0.66542  0.90457  0.15907  1.0000
  H   H2021     1.0  0.66440  0.91157  0.42327  1.0000
  H   H2022     1.0  0.59970  0.80599  0.13411  1.0000
  C   C1179     1.0  0.77015  0.78735  0.04057  1.0000
  H   H2023     1.0  0.67774  0.92234  0.39487  1.0000
  C   C1180     1.0  0.56728  0.76538  0.29479  1.0000
  C   C1181     1.0  0.68746  0.97600  0.13781  1.0000
  C   C1182     1.0  0.71245  0.97174  0.14434  1.0000
  C   C1183     1.0  0.72608  0.95234  0.13308  1.0000
  C   C1184     1.0  0.71498  0.93736  0.11494  1.0000
  C   C1185     1.0  0.69030  0.94224  0.10774  1.0000
  C   C1186     1.0  0.67649  0.96129  0.11937  1.0000
  H   H2024     1.0  0.72105  0.98292  0.15858  1.0000
  H   H2025     1.0  0.74527  0.94882  0.13857  1.0000
  H   H2026     1.0  0.68189  0.93125  0.09328  1.0000
  H   H2027     1.0  0.65721  0.96465  0.11409  1.0000
  C   C1187     1.0  0.95039  0.93338  0.32791  1.0000
  C   C1188     1.0  0.94954  0.93009  0.35378  1.0000
  C   C1189     1.0  0.96808  0.91573  0.36585  1.0000
  C   C1190     1.0  0.98759  0.90450  0.35221  1.0000
  C   C1191     1.0  0.98833  0.90762  0.32631  1.0000
  C   C1192     1.0  0.96984  0.92203  0.31425  1.0000
  H   H2028     1.0  0.93467  0.93869  0.36451  1.0000
  H   H2029     1.0  0.96724  0.91332  0.38586  1.0000
  H   H2030     1.0  0.64859  0.80868  0.19146  1.0000
  H   H2031     1.0  0.97061  0.92441  0.29423  1.0000
  C   C1193     1.0  0.72207  0.01171  0.29900  1.0000
  H   H2032     1.0  0.68839  0.88812  0.12907  1.0000
  H   H2033     1.0  0.54001  0.85250  0.49839  1.0000
  C   C1194     1.0  0.61923  0.84123  0.42331  1.0000
  C   C1195     1.0  0.61600  0.86698  0.42392  1.0000
  C   C1196     1.0  0.59793  0.87854  0.40866  1.0000
  C   C1197     1.0  0.58249  0.86445  0.39314  1.0000
  C   C1198     1.0  0.58541  0.83866  0.39284  1.0000
  C   C1199     1.0  0.60371  0.82713  0.40786  1.0000
  H   H2034     1.0  0.62748  0.87803  0.43605  1.0000
  H   H2035     1.0  0.59576  0.89850  0.40903  1.0000
  H   H2036     1.0  0.57380  0.82762  0.38079  1.0000
  H   H2037     1.0  0.60606  0.80719  0.40728  1.0000
  C   C1200     1.0  0.75436  0.92336  0.42354  1.0000
  C   C1201     1.0  0.75962  0.94022  0.40410  1.0000
  C   C1202     1.0  0.78445  0.94412  0.39587  1.0000
  C   C1203     1.0  0.80429  0.93143  0.40731  1.0000
  C   C1204     1.0  0.79899  0.91453  0.42667  1.0000
  C   C1205     1.0  0.77415  0.91036  0.43465  1.0000
  H   H2038     1.0  0.74441  0.95033  0.39539  1.0000
  H   H2039     1.0  0.78824  0.95706  0.38085  1.0000
  H   H2040     1.0  0.81419  0.90459  0.43561  1.0000
  H   H2041     1.0  0.77036  0.89730  0.44960  1.0000
  H   H2042     1.0  0.82678  0.78297  0.06298  1.0000
  H   H2043     1.0  0.67010  0.78746  0.09954  1.0000
  H   H2044     1.0  0.00305  0.89885  0.31555  1.0000
  C   C1206     1.0  0.66572  0.90763  0.40304  1.0000
  C   C1207     1.0  0.79021  0.77896  0.50558  1.0000
  C   C1208     1.0  0.01019  0.80299  0.25118  1.0000
  C   C1209     1.0  0.01008  0.77896  0.24127  1.0000
  C   C1210     1.0  0.52446  0.76928  0.26541  1.0000
  C   C1211     1.0  0.82411  0.97989  0.45455  1.0000
  Fe  Fe179     1.0  0.68447  0.87450  0.50972  1.0000
  H   H2045     1.0  0.80680  0.99151  0.40780  1.0000
  H   H2046     1.0  0.71163  0.79080  0.21331  1.0000
  H   H2047     1.0  0.74051  0.00233  0.29631  1.0000
  H   H2048     1.0  0.86873  0.91789  0.27087  1.0000
  C   C1212     1.0  0.87027  0.78610  0.03419  1.0000
  H   H2049     1.0  0.67100  0.92334  0.15252  1.0000
  H   H2050     1.0  0.64349  0.85291  0.37913  1.0000
  S   S352      1.0  0.72498  0.88068  0.49913  1.0000
  H   H2051     1.0  0.68150  0.86686  0.15455  1.0000
  N   N86       1.0  0.88043  0.97477  0.24050  1.0000
  C   C1213     1.0  0.86630  0.95478  0.25450  1.0000
  C   C1214     1.0  0.86367  0.99746  0.23986  1.0000
  C   C1215     1.0  0.88645  0.96526  0.21482  1.0000
  H   H2052     1.0  0.86587  0.79515  0.08313  1.0000
  C   C1216     1.0  0.89881  0.98372  0.19651  1.0000
  H   H2053     1.0  0.84872  0.94974  0.24482  1.0000
  H   H2054     1.0  0.55370  0.82297  0.49285  1.0000
  N   N87       1.0  0.82732  0.00382  0.44000  1.0000
  H   H2055     1.0  0.55351  0.83355  0.43194  1.0000
  H   H2056     1.0  0.86960  0.95726  0.20577  1.0000
  H   H2057     1.0  0.89149  0.99449  0.42720  1.0000
  H   H2058     1.0  0.85744  0.00237  0.25909  1.0000
  C   C1217     1.0  0.71393  0.97899  0.04475  1.0000
  Fe  Fe180     1.0  0.86827  0.01333  0.35357  1.0000
  H   H2059     1.0  0.74717  0.01273  0.12397  1.0000
  H   H2060     1.0  0.89396  0.97851  0.17713  1.0000
  N   N88       1.0  0.67844  0.87240  0.37297  1.0000
  C   C1218     1.0  0.67740  0.88163  0.39943  1.0000
  C   C1219     1.0  0.69578  0.85026  0.37185  1.0000
  C   C1220     1.0  0.68833  0.89202  0.35545  1.0000
  C   C1221     1.0  0.64942  0.85375  0.33948  1.0000
  C   C1222     1.0  0.68685  0.82694  0.38606  1.0000
  C   C1223     1.0  0.71492  0.90176  0.36114  1.0000
  H   H2061     1.0  0.69627  0.88181  0.40800  1.0000
  H   H2062     1.0  0.66666  0.86864  0.41152  1.0000
  H   H2063     1.0  0.69966  0.84484  0.35223  1.0000
  H   H2064     1.0  0.71448  0.85498  0.37963  1.0000
  H   H2065     1.0  0.68942  0.88480  0.33612  1.0000
  H   H2066     1.0  0.67515  0.90805  0.35387  1.0000
  H   H2067     1.0  0.62945  0.84856  0.33697  1.0000
  H   H2068     1.0  0.65410  0.86688  0.32420  1.0000
  H   H2069     1.0  0.68389  0.83062  0.40611  1.0000
  H   H2070     1.0  0.70157  0.81233  0.38480  1.0000
  H   H2071     1.0  0.66949  0.81908  0.37816  1.0000
  H   H2072     1.0  0.72935  0.89130  0.35044  1.0000
  H   H2073     1.0  0.72001  0.90071  0.38105  1.0000
  H   H2074     1.0  0.71611  0.92173  0.35606  1.0000
  Fe  Fe181     1.0  0.52421  0.86144  0.36191  1.0000
  S   S353      1.0  0.98558  0.77054  0.22099  1.0000
  H   H2075     1.0  0.66595  0.79815  0.22986  1.0000
  C   C1224     1.0  0.65373  0.78213  0.11026  1.0000
  H   H2076     1.0  0.86212  0.77374  0.10787  1.0000
  H   H2077     1.0  0.84483  0.99311  0.20353  1.0000
  H   H2078     1.0  0.89963  0.94924  0.21595  1.0000
  H   H2079     1.0  0.52504  0.86263  0.41563  1.0000
  C   C1225     1.0  0.01702  0.85902  0.46846  1.0000
  H   H2080     1.0  0.90851  0.77333  0.07304  1.0000
  H   H2081     1.0  0.94105  0.78458  0.28876  1.0000
  H   H2082     1.0  0.64650  0.90906  0.39548  1.0000
  C   C1226     1.0  0.89857  0.77239  0.09119  1.0000
  H   H2083     1.0  0.94139  0.76930  0.25941  1.0000
  S   S354      1.0  0.82959  0.99645  0.35424  1.0000
  H   H2084     1.0  0.58234  0.84224  0.46045  1.0000
  H   H2085     1.0  0.91903  0.96585  0.25021  1.0000
  H   H2086     1.0  0.90602  0.78753  0.10291  1.0000
  H   H2087     1.0  0.89192  0.00298  0.19850  1.0000
  H   H2088     1.0  0.54707  0.87792  0.43534  1.0000
  S   S355      1.0  0.76116  0.81876  0.49184  1.0000
  C   C1227     1.0  0.61682  0.77833  0.21263  1.0000
  H   H2089     1.0  0.60414  0.87618  0.11574  1.0000
  C   C1228     1.0  0.54614  0.77841  0.30369  1.0000
  H   H2090     1.0  0.87952  0.00817  0.45495  1.0000
  C   C1229     1.0  0.88058  0.93015  0.25902  1.0000
  H   H2091     1.0  0.78766  0.00600  0.43013  1.0000
  H   H2092     1.0  0.82727  0.98063  0.22971  1.0000
  C   C1230     1.0  0.84006  0.99556  0.22349  1.0000
  H   H2093     1.0  0.70390  0.89111  0.15797  1.0000
  H   H2094     1.0  0.77321  0.97871  0.24648  1.0000
  H   H2095     1.0  0.86040  0.96161  0.27318  1.0000
  H   H2096     1.0  0.72657  0.96553  0.05423  1.0000
  S   S356      1.0  0.68499  0.83369  0.50112  1.0000
  H   H2097     1.0  0.56104  0.79018  0.42958  1.0000
  H   H2098     1.0  0.78571  0.96744  0.44649  1.0000
  C   C1231     1.0  0.57223  0.85322  0.47470  1.0000
  H   H2099     1.0  0.98401  0.83266  0.43434  1.0000
  H   H2100     1.0  0.89834  0.93277  0.26927  1.0000
  H   H2101     1.0  0.64595  0.91556  0.11523  1.0000
  H   H2102     1.0  0.61302  0.94688  0.18915  1.0000
  H   H2103     1.0  0.64956  0.88280  0.11625  1.0000
  C   C1232     1.0  0.99369  0.83604  0.41630  1.0000
  H   H2104     1.0  0.65076  0.87167  0.19683  1.0000
  H   H2105     1.0  0.56891  0.87233  0.46793  1.0000
  H   H2106     1.0  0.70647  0.78826  0.24609  1.0000
  H   H2107     1.0  0.72363  0.98732  0.02843  1.0000
  C   C1233     1.0  0.63793  0.89836  0.12345  1.0000
  H   H2108     1.0  0.63281  0.92220  0.19980  1.0000
  H   H2109     1.0  0.62420  0.85199  0.19447  1.0000
  H   H2110     1.0  0.54635  0.78661  0.32204  1.0000
  S   S357      1.0  0.66888  0.99845  0.15316  1.0000
  C   C1234     1.0  0.78295  0.80720  0.02963  1.0000
  H   H2111     1.0  0.63977  0.88238  0.36527  1.0000
  H   H2112     1.0  0.66060  0.83649  0.33761  1.0000
  H   H2113     1.0  0.69301  0.98854  0.07769  1.0000
  N   N89       1.0  0.63873  0.89937  0.15155  1.0000
  H   H2114     1.0  0.62028  0.93505  0.14528  1.0000
  H   H2115     1.0  0.61905  0.88411  0.19990  1.0000
  H   H2116     1.0  0.59808  0.90928  0.11764  1.0000
  H   H2117     1.0  0.83584  0.97992  0.47165  1.0000
  H   H2118     1.0  0.65003  0.78847  0.16556  1.0000
  C   C1235     1.0  0.99109  0.98615  0.35896  1.0000
  H   H2119     1.0  0.99525  0.81583  0.24651  1.0000
  C   C1236     1.0  0.62152  0.92024  0.15989  1.0000
  C   C1237     1.0  0.62878  0.93444  0.18370  1.0000
  H   H2120     1.0  0.64049  0.85923  0.15268  1.0000
  C   C1238     1.0  0.76677  0.79074  0.50833  1.0000
  C   C1239     1.0  0.52712  0.87333  0.43306  1.0000
  H   H2121     1.0  0.79835  0.95585  0.47476  1.0000
  C   C1240     1.0  0.00732  0.97717  0.33689  1.0000
  H   H2122     1.0  0.64519  0.94661  0.18014  1.0000
  C   C1241     1.0  0.62986  0.87468  0.16150  1.0000
  C   C1242     1.0  0.61177  0.89490  0.11178  1.0000
  C   C1243     1.0  0.63127  0.87083  0.18987  1.0000
  H   H2123     1.0  0.60196  0.91350  0.16245  1.0000
  H   H2124     1.0  0.61364  0.89629  0.09118  1.0000
  H   H2125     1.0  0.90099  0.97766  0.27509  1.0000
  H   H2126     1.0  0.62240  0.78837  0.22966  1.0000
  C   C1244     1.0  0.86993  0.77560  0.08867  1.0000
  S   S358      1.0  0.87600  0.00303  0.31376  1.0000
  H   H2127     1.0  0.53844  0.78257  0.45286  1.0000
  H   H2128     1.0  0.78763  0.98721  0.47353  1.0000
  C   C1245     1.0  0.68421  0.80712  0.17361  1.0000
  C   C1246     1.0  0.52449  0.77997  0.28918  1.0000
  C   C1247     1.0  0.79732  0.97267  0.46270  1.0000
  C   C1248     1.0  0.87516  0.99466  0.44017  1.0000
  H   H2129     1.0  0.80399  0.78677  0.49295  1.0000
  H   H2130     1.0  0.58519  0.85469  0.49076  1.0000
  C   C1249     1.0  0.61158  0.76781  0.13835  1.0000
  S   S359      1.0  0.01068  0.88690  0.36827  1.0000
  C   C1250     1.0  0.70341  0.99877  0.06282  1.0000
  C   C1251     1.0  0.55214  0.79691  0.44707  1.0000
  H   H2131     1.0  0.01092  0.85510  0.48793  1.0000
  H   H2132     1.0  0.88424  0.92006  0.24144  1.0000
  H   H2133     1.0  0.91953  0.98335  0.19844  1.0000
  C   C1252     1.0  0.79508  0.00344  0.26896  1.0000
  H   H2134     1.0  0.75667  0.99444  0.07057  1.0000
  H   H2135     1.0  0.99990  0.86259  0.45751  1.0000
  C   C1253     1.0  0.85151  0.00197  0.42529  1.0000
  H   H2136     1.0  0.98221  0.82687  0.40185  1.0000
  C   C1254     1.0  0.90425  0.97982  0.25474  1.0000
  H   H2137     1.0  0.71872  0.01317  0.31932  1.0000
  H   H2138     1.0  0.77468  0.99935  0.11074  1.0000
  C   C1255     1.0  0.77731  0.99788  0.25061  1.0000
  H   H2139     1.0  0.01721  0.80483  0.42239  1.0000
  H   H2140     1.0  0.56729  0.79842  0.46102  1.0000
  H   H2141     1.0  0.88432  0.79733  0.04412  1.0000
  H   H2142     1.0  0.83101  0.96384  0.44348  1.0000
  C   C1256     1.0  0.94833  0.76801  0.27882  1.0000
  H   H2143     1.0  0.99338  0.97399  0.37556  1.0000
  H   H2144     1.0  0.00164  0.98776  0.31993  1.0000
  H   H2145     1.0  0.84973  0.98811  0.41013  1.0000
  H   H2146     1.0  0.93473  0.00547  0.26120  1.0000
  H   H2147     1.0  0.69295  0.81775  0.18882  1.0000
  H   H2148     1.0  0.68897  0.00929  0.05219  1.0000
  H   H2149     1.0  0.91954  0.01100  0.23212  1.0000
  C   C1257     1.0  0.66021  0.79400  0.18257  1.0000
  H   H2150     1.0  0.00135  0.95786  0.33325  1.0000
  H   H2151     1.0  0.96907  0.76930  0.27881  1.0000
  C   C1258     1.0  0.80646  0.00708  0.42135  1.0000
  H   H2152     1.0  0.67892  0.82087  0.15899  1.0000
  N   N90       1.0  0.66325  0.77181  0.19962  1.0000
  H   H2153     1.0  0.73542  0.98288  0.09324  1.0000
  C   C1259     1.0  0.53932  0.82208  0.44166  1.0000
  H   H2154     1.0  0.61093  0.79154  0.19781  1.0000
  H   H2155     1.0  0.81558  0.78117  0.10466  1.0000
  C   C1260     1.0  0.75849  0.01171  0.10659  1.0000
  H   H2156     1.0  0.87382  0.97568  0.44817  1.0000
  H   H2157     1.0  0.99486  0.00568  0.36393  1.0000
  H   H2158     1.0  0.75107  0.01245  0.22350  1.0000
  H   H2159     1.0  0.97102  0.98514  0.35357  1.0000
  H   H2160     1.0  0.59989  0.76737  0.21743  1.0000
  C   C1261     1.0  0.67318  0.77944  0.22474  1.0000
  C   C1262     1.0  0.70194  0.77982  0.22784  1.0000
  H   H2161     1.0  0.82925  0.01320  0.22491  1.0000
  H   H2162     1.0  0.66610  0.76693  0.23985  1.0000
  H   H2163     1.0  0.87361  0.01416  0.23299  1.0000
  H   H2164     1.0  0.72143  0.76644  0.01700  1.0000
  Fe  Fe182     1.0  0.98968  0.82482  0.70388  1.0000
  S   S360      1.0  0.99635  0.78918  0.72593  1.0000
  Fe  Fe183     1.0  0.96258  0.87459  0.69586  1.0000
  S   S361      1.0  0.97615  0.87758  0.65643  1.0000
  S   S362      1.0  0.93513  0.90230  0.71291  1.0000
  Fe  Fe184     1.0  0.96621  0.83708  0.65320  1.0000
  S   S363      1.0  0.94401  0.82470  0.61896  1.0000
  S   S364      1.0  0.95047  0.83481  0.69195  1.0000
  S   S365      1.0  0.00047  0.86436  0.71180  1.0000
  S   S366      1.0  0.66557  0.89262  0.54316  1.0000
  H   H2165     1.0  0.77305  0.79930  0.93968  1.0000
  S   S367      1.0  0.72696  0.00891  0.87756  1.0000
  Fe  Fe185     1.0  0.67395  0.97525  0.84169  1.0000
  S   S368      1.0  0.70886  0.95543  0.85504  1.0000
  S   S369      1.0  0.63872  0.95635  0.82690  1.0000
  Fe  Fe186     1.0  0.70377  0.97664  0.89082  1.0000
  S   S370      1.0  0.70656  0.96719  0.93228  1.0000
  Fe  Fe187     1.0  0.72884  0.98962  0.84057  1.0000
  S   S371      1.0  0.76695  0.98839  0.82145  1.0000
  S   S372      1.0  0.66770  0.99428  0.87851  1.0000
  H   H2166     1.0  0.55194  0.90610  0.59070  1.0000
  Fe  Fe188     1.0  0.56813  0.82039  0.70946  1.0000
  S   S373      1.0  0.55582  0.85787  0.72345  1.0000
  H   H2167     1.0  0.56019  0.81372  0.57304  1.0000
  Fe  Fe189     1.0  0.59144  0.84204  0.66157  1.0000
  S   S374      1.0  0.58065  0.88085  0.67155  1.0000
  S   S375      1.0  0.61239  0.82834  0.62749  1.0000
  Fe  Fe190     1.0  0.59387  0.87132  0.71044  1.0000
  S   S376      1.0  0.62608  0.89354  0.72710  1.0000
  Fe  Fe191     1.0  0.54373  0.86411  0.68343  1.0000
  S   S377      1.0  0.60670  0.83315  0.69937  1.0000
  S   S378      1.0  0.55380  0.82595  0.67058  1.0000
  H   H2168     1.0  0.53743  0.85059  0.54697  1.0000
  C   C1263     1.0  0.84051  0.76762  0.57663  1.0000
  H   H2169     1.0  0.71439  0.79176  0.93009  1.0000
  H   H2170     1.0  0.87155  0.93901  0.65723  1.0000
  H   H2171     1.0  0.66357  0.83709  0.69432  1.0000
  H   H2172     1.0  0.95795  0.78306  0.85221  1.0000
  H   H2173     1.0  0.85162  0.82705  0.61721  1.0000
  C   C1264     1.0  0.70211  0.93869  0.94832  1.0000
  C   C1265     1.0  0.69903  0.93903  0.97435  1.0000
  C   C1266     1.0  0.69458  0.91699  0.98786  1.0000
  C   C1267     1.0  0.69278  0.89443  0.97535  1.0000
  C   C1268     1.0  0.69630  0.89398  0.94937  1.0000
  C   C1269     1.0  0.70149  0.91594  0.93599  1.0000
  H   H2174     1.0  0.69989  0.95649  0.98411  1.0000
  H   H2175     1.0  0.84501  0.78749  0.63708  1.0000
  H   H2176     1.0  0.69532  0.87655  0.93960  1.0000
  H   H2177     1.0  0.70533  0.91528  0.91622  1.0000
  H   H2178     1.0  0.53770  0.88266  0.55322  1.0000
  H   H2179     1.0  0.65110  0.82308  0.66694  1.0000
  H   H2180     1.0  0.65444  0.91745  0.68602  1.0000
  H   H2181     1.0  0.69922  0.81323  0.99498  1.0000
  H   H2182     1.0  0.84813  0.77815  0.53812  1.0000
  C   C1270     1.0  0.63573  0.93858  0.79927  1.0000
  C   C1271     1.0  0.61255  0.92747  0.79399  1.0000
  C   C1272     1.0  0.60922  0.91344  0.77214  1.0000
  C   C1273     1.0  0.62909  0.91045  0.75527  1.0000
  C   C1274     1.0  0.65231  0.92142  0.76067  1.0000
  C   C1275     1.0  0.65566  0.93535  0.78255  1.0000
  H   H2183     1.0  0.59698  0.92990  0.80676  1.0000
  H   H2184     1.0  0.59126  0.90518  0.76822  1.0000
  H   H2185     1.0  0.66781  0.91923  0.74779  1.0000
  H   H2186     1.0  0.67358  0.94377  0.78635  1.0000
  C   C1276     1.0  0.64955  0.87446  0.56555  1.0000
  C   C1277     1.0  0.63393  0.88615  0.58315  1.0000
  C   C1278     1.0  0.62206  0.87229  0.60212  1.0000
  C   C1279     1.0  0.62589  0.84664  0.60363  1.0000
  C   C1280     1.0  0.64103  0.83494  0.58573  1.0000
  C   C1281     1.0  0.65282  0.84876  0.56677  1.0000
  H   H2187     1.0  0.63129  0.90604  0.58225  1.0000
  H   H2188     1.0  0.61023  0.88147  0.61567  1.0000
  H   H2189     1.0  0.64396  0.81507  0.58669  1.0000
  H   H2190     1.0  0.66485  0.83957  0.55339  1.0000
  H   H2191     1.0  0.84601  0.90193  0.59959  1.0000
  C   C1282     1.0  0.92712  0.93132  0.69919  1.0000
  C   C1283     1.0  0.93935  0.94020  0.67783  1.0000
  C   C1284     1.0  0.93089  0.96210  0.66603  1.0000
  C   C1285     1.0  0.91030  0.97548  0.67552  1.0000
  C   C1286     1.0  0.89867  0.96713  0.69743  1.0000
  C   C1287     1.0  0.90701  0.94510  0.70913  1.0000
  H   H2192     1.0  0.95516  0.93006  0.67028  1.0000
  H   H2193     1.0  0.94015  0.96852  0.64921  1.0000
  H   H2194     1.0  0.88276  0.97720  0.70493  1.0000
  H   H2195     1.0  0.89749  0.93843  0.72571  1.0000
  C   C1288     1.0  0.93230  0.79408  0.61498  1.0000
  C   C1289     1.0  0.92209  0.78725  0.59188  1.0000
  C   C1290     1.0  0.74902  0.78234  0.96881  1.0000
  H   H2196     1.0  0.88731  0.93371  0.60216  1.0000
  H   H2197     1.0  0.92224  0.80041  0.57658  1.0000
  H   H2198     1.0  0.77860  0.77935  0.58546  1.0000
  H   H2199     1.0  0.95554  0.90699  0.59482  1.0000
  H   H2200     1.0  0.55394  0.77981  0.83310  1.0000
  H   H2201     1.0  0.84785  0.86855  0.59881  1.0000
  H   H2202     1.0  0.84801  0.88338  0.62785  1.0000
  C   C1291     1.0  0.54656  0.86883  0.60759  1.0000
  H   H2203     1.0  0.72433  0.00667  0.66603  1.0000
  H   H2204     1.0  0.85029  0.92800  0.63358  1.0000
  H   H2205     1.0  0.90622  0.94073  0.62809  1.0000
  H   H2206     1.0  0.81367  0.99654  0.79599  1.0000
  H   H2207     1.0  0.86385  0.95819  0.63130  1.0000
  C   C1292     1.0  0.95202  0.76612  0.79477  1.0000
  C   C1293     1.0  0.68081  0.79853  0.95121  1.0000
  H   H2208     1.0  0.72971  0.87231  0.68577  1.0000
  N   N91       1.0  0.62974  0.91958  0.89434  1.0000
  C   C1294     1.0  0.65662  0.92270  0.88603  1.0000
  C   C1295     1.0  0.61942  0.94523  0.89928  1.0000
  C   C1296     1.0  0.61578  0.90733  0.87329  1.0000
  C   C1297     1.0  0.62962  0.90343  0.91739  1.0000
  C   C1298     1.0  0.67046  0.89889  0.87763  1.0000
  C   C1299     1.0  0.63051  0.95876  0.92196  1.0000
  C   C1300     1.0  0.58725  0.91176  0.87177  1.0000
  C   C1301     1.0  0.60418  0.89980  0.93063  1.0000
  H   H2209     1.0  0.65784  0.93608  0.87024  1.0000
  H   H2210     1.0  0.66808  0.93099  0.90090  1.0000
  H   H2211     1.0  0.59891  0.94515  0.90252  1.0000
  H   H2212     1.0  0.62202  0.95732  0.88250  1.0000
  H   H2213     1.0  0.62320  0.91363  0.85484  1.0000
  H   H2214     1.0  0.61885  0.88688  0.87366  1.0000
  H   H2215     1.0  0.63633  0.88441  0.91295  1.0000
  H   H2216     1.0  0.64349  0.90989  0.93139  1.0000
  H   H2217     1.0  0.67272  0.88536  0.89310  1.0000
  H   H2218     1.0  0.66130  0.89001  0.86151  1.0000
  H   H2219     1.0  0.68966  0.90393  0.87139  1.0000
  H   H2220     1.0  0.62633  0.94894  0.93971  1.0000
  H   H2221     1.0  0.65097  0.96168  0.92036  1.0000
  H   H2222     1.0  0.62183  0.97749  0.92324  1.0000
  H   H2223     1.0  0.57937  0.89943  0.85731  1.0000
  H   H2224     1.0  0.58307  0.93107  0.86564  1.0000
  H   H2225     1.0  0.57734  0.90764  0.88944  1.0000
  H   H2226     1.0  0.59386  0.88397  0.92253  1.0000
  H   H2227     1.0  0.59210  0.91651  0.93039  1.0000
  H   H2228     1.0  0.60751  0.89588  0.95071  1.0000
  H   H2229     1.0  0.89097  0.86687  0.60544  1.0000
  C   C1302     1.0  0.89212  0.89296  0.65140  1.0000
  H   H2230     1.0  0.56592  0.86123  0.60763  1.0000
  H   H2231     1.0  0.90302  0.90430  0.66467  1.0000
  C   C1303     1.0  0.97628  0.76963  0.80974  1.0000
  H   H2232     1.0  0.57903  0.86550  0.54024  1.0000
  H   H2233     1.0  0.89332  0.86152  0.67688  1.0000
  H   H2234     1.0  0.95574  0.77115  0.77494  1.0000
  H   H2235     1.0  0.73095  0.78936  0.52689  1.0000
  N   N92       1.0  0.53152  0.85929  0.58597  1.0000
  H   H2236     1.0  0.88733  0.85274  0.64543  1.0000
  H   H2237     1.0  0.79753  0.79042  0.55961  1.0000
  H   H2238     1.0  0.77868  0.81142  0.57706  1.0000
  H   H2239     1.0  0.80464  0.80626  0.61439  1.0000
  H   H2240     1.0  0.76161  0.78816  0.98394  1.0000
  H   H2241     1.0  0.54440  0.79598  0.59618  1.0000
  H   H2242     1.0  0.87234  0.89576  0.65712  1.0000
  H   H2243     1.0  0.65608  0.92242  0.65263  1.0000
  H   H2244     1.0  0.92745  0.89924  0.57905  1.0000
  H   H2245     1.0  0.91851  0.86145  0.65523  1.0000
  H   H2246     1.0  0.67128  0.79235  0.96860  1.0000
  C   C1304     1.0  0.93215  0.77676  0.63450  1.0000
  H   H2247     1.0  0.53824  0.86238  0.62562  1.0000
  C   C1305     1.0  0.86756  0.93863  0.63693  1.0000
  H   H2248     1.0  0.80416  0.76627  0.62927  1.0000
  H   H2249     1.0  0.86689  0.77211  0.61745  1.0000
  H   H2250     1.0  0.93677  0.77826  0.80195  1.0000
  H   H2251     1.0  0.88720  0.89337  0.58701  1.0000
  C   C1306     1.0  0.76465  0.78114  0.94459  1.0000
  H   H2252     1.0  0.99244  0.76715  0.79684  1.0000
  C   C1307     1.0  0.57269  0.86465  0.55999  1.0000
  H   H2253     1.0  0.99891  0.79144  0.86693  1.0000
  H   H2254     1.0  0.58154  0.84804  0.56842  1.0000
  H   H2255     1.0  0.93109  0.92956  0.59318  1.0000
  C   C1308     1.0  0.85166  0.78632  0.61739  1.0000
  C   C1309     1.0  0.55044  0.81509  0.59127  1.0000
  H   H2256     1.0  0.72881  0.80704  0.00734  1.0000
  S   S379      1.0  0.56415  0.78187  0.72604  1.0000
  C   C1310     1.0  0.86412  0.81147  0.61183  1.0000
  H   H2257     1.0  0.74710  0.84107  0.99451  1.0000
  H   H2258     1.0  0.71980  0.87300  0.71764  1.0000
  C   C1311     1.0  0.73262  0.82473  0.95976  1.0000
  S   S380      1.0  0.68500  0.86668  0.99131  1.0000
  H   H2259     1.0  0.62727  0.91405  0.66732  1.0000
  H   H2260     1.0  0.84307  0.80426  0.55679  1.0000
  C   C1312     1.0  0.75298  0.83798  0.97494  1.0000
  Fe  Fe192     1.0  0.01339  0.86512  0.67179  1.0000
  H   H2261     1.0  0.71261  0.84651  0.69938  1.0000
  H   H2262     1.0  0.97690  0.78977  0.81402  1.0000
  H   H2263     1.0  0.71581  0.83691  0.96047  1.0000
  H   H2264     1.0  0.75611  0.85667  0.96667  1.0000
  H   H2265     1.0  0.53137  0.90538  0.61764  1.0000
  N   N93       1.0  0.72611  0.79872  0.96801  1.0000
  N   N94       1.0  0.89708  0.90164  0.62502  1.0000
  C   C1313     1.0  0.54862  0.89732  0.60915  1.0000
  H   H2266     1.0  0.82228  0.81642  0.58860  1.0000
  H   H2267     1.0  0.77122  0.82809  0.97435  1.0000
  H   H2268     1.0  0.01078  0.79874  0.83592  1.0000
  C   C1314     1.0  0.88350  0.88621  0.60616  1.0000
  C   C1315     1.0  0.93484  0.90941  0.59529  1.0000
  H   H2269     1.0  0.81162  0.81815  0.00333  1.0000
  H   H2270     1.0  0.87020  0.81359  0.59226  1.0000
  C   C1316     1.0  0.81270  0.79988  0.59632  1.0000
  C   C1317     1.0  0.70648  0.77456  0.00507  1.0000
  C   C1318     1.0  0.71500  0.79968  0.99386  1.0000
  C   C1319     1.0  0.79072  0.79461  0.57866  1.0000
  C   C1320     1.0  0.80164  0.80271  0.01164  1.0000
  H   H2271     1.0  0.68078  0.81317  0.67918  1.0000
  C   C1321     1.0  0.54250  0.77535  0.74994  1.0000
  C   C1322     1.0  0.77411  0.00455  0.79351  1.0000
  C   C1323     1.0  0.54373  0.86434  0.56094  1.0000
  C   C1324     1.0  0.80738  0.77841  0.00418  1.0000
  H   H2272     1.0  0.56446  0.90227  0.62145  1.0000
  C   C1325     1.0  0.85474  0.88533  0.60843  1.0000
  S   S381      1.0  0.00490  0.82489  0.66460  1.0000
  H   H2273     1.0  0.93569  0.90784  0.63530  1.0000
  C   C1326     1.0  0.92487  0.89878  0.62023  1.0000
  H   H2274     1.0  0.56353  0.82073  0.60607  1.0000
  C   C1327     1.0  0.52708  0.83188  0.58968  1.0000
  H   H2275     1.0  0.88123  0.81296  0.62343  1.0000
  H   H2276     1.0  0.93061  0.87891  0.62040  1.0000
  H   H2277     1.0  0.73867  0.82515  0.93988  1.0000
  H   H2278     1.0  0.58025  0.88138  0.56909  1.0000
  H   H2279     1.0  0.69197  0.91754  0.00785  1.0000
  H   H2280     1.0  0.53732  0.81330  0.76108  1.0000
  H   H2281     1.0  0.87222  0.78733  0.55928  1.0000
  C   C1328     1.0  0.85167  0.78561  0.55704  1.0000
  H   H2282     1.0  0.66933  0.89947  0.61802  1.0000
  N   N95       1.0  0.83052  0.77848  0.60061  1.0000
  C   C1329     1.0  0.89040  0.92884  0.62211  1.0000
  C   C1330     1.0  0.89825  0.86555  0.65711  1.0000
  N   N96       1.0  0.68022  0.87519  0.66554  1.0000
  C   C1331     1.0  0.69631  0.89013  0.64784  1.0000
  C   C1332     1.0  0.68929  0.87960  0.69175  1.0000
  C   C1333     1.0  0.65312  0.88294  0.66401  1.0000
  C   C1334     1.0  0.68220  0.84824  0.65845  1.0000
  C   C1335     1.0  0.68794  0.89064  0.62033  1.0000
  C   C1336     1.0  0.71433  0.86699  0.69867  1.0000
  C   C1337     1.0  0.64785  0.91086  0.66769  1.0000
  C   C1338     1.0  0.66860  0.82962  0.67582  1.0000
  H   H2283     1.0  0.69772  0.90974  0.65402  1.0000
  H   H2284     1.0  0.71591  0.88299  0.64780  1.0000
  H   H2285     1.0  0.67510  0.87390  0.70595  1.0000
  H   H2286     1.0  0.69173  0.89978  0.69517  1.0000
  H   H2287     1.0  0.64491  0.87742  0.64598  1.0000
  H   H2288     1.0  0.64174  0.87285  0.67821  1.0000
  H   H2289     1.0  0.67415  0.84523  0.63960  1.0000
  H   H2290     1.0  0.70212  0.84227  0.65642  1.0000
  H   H2291     1.0  0.70136  0.90197  0.60924  1.0000
  H   H2292     1.0  0.68787  0.87197  0.61181  1.0000
  S   S382      1.0  0.83021  0.77388  0.98086  1.0000
  C   C1339     1.0  0.01136  0.78522  0.85156  1.0000
  H   H2293     1.0  0.93990  0.78166  0.65239  1.0000
  C   C1340     1.0  0.79919  0.00593  0.78542  1.0000
  S   S383      1.0  0.89806  0.00068  0.65786  1.0000
  C   C1341     1.0  0.53208  0.79421  0.76446  1.0000
  H   H2294     1.0  0.68013  0.81906  0.95002  1.0000
  C   C1342     1.0  0.74904  0.78046  0.52462  1.0000
  S   S384      1.0  0.69427  0.00819  0.82526  1.0000
  C   C1343     1.0  0.70783  0.78826  0.94954  1.0000
  H   H2295     1.0  0.66974  0.79124  0.93543  1.0000
  H   H2296     1.0  0.87681  0.78468  0.01454  1.0000
  H   H2297     1.0  0.01589  0.82360  0.76259  1.0000
  C   C1344     1.0  0.01688  0.78542  0.75132  1.0000
  H   H2298     1.0  0.58788  0.77243  0.81076  1.0000
  H   H2299     1.0  0.78056  0.76802  0.94748  1.0000
  H   H2300     1.0  0.75360  0.77409  0.92874  1.0000
  H   H2301     1.0  0.70677  0.76769  0.95098  1.0000
  H   H2302     1.0  0.56111  0.76721  0.86374  1.0000
  H   H2303     1.0  0.53031  0.76519  0.85122  1.0000
  H   H2304     1.0  0.68944  0.77742  0.01672  1.0000
