data_image0
_chemical_formula_structural       H3CHCH5C3H5C2H3CHCHFeSFeHFeSCFeSFeS2FeSHFeSFeHS2H2SH3C6H4C2H2NC2H2C3SH2NC7SH13CH4SHCSH5CH5CHCH2CH3C2H4CH2C2H3C4H3SHNH2CHCSH3CH4SFeCHC4H2SHCH2SCHCFeS2FeS2FeCFeS3C3H2C6H6CH2C3H7CH4CHC2HCNSHCH10SC2HCHCHSHCH2CHNCSCHC2HFeH5CH3FeH2CH2C3H2SH2FeHCHNH7C2HCH3CH2C2HCFeSHFeS2FeSFeCSHSC2H3C2HC3H3C4H2CH2SH3NC3H3CHCH4CHCH2CSH3CH5C2H2CH2CH7SCHCH2CHFeS2FeSNFeSFeS3C3HC2H2NHC2H2C4H2CHCNH2CNH3CH6C4H2C2H3CH3CH6CH6C3H4C4H5CSCH2C3H6CHCH2CHFeS2FeS2FeSFeNSH2C6H3CSHCH5C2SC2HCHCH4C2HC3HCH7CSHCHNHC3H2C2H5CH4CHC2H2CHCHCH2CH3CH8C3HNHFeS2FeSCFeSFeS3HSHC2H2C2HCH4C5H3NH2C2NC2H2C2HC2HCHNH3CHC2H2C2H2CHCH4CSH5CH3CH2C2H4C2H7SFeSFeSHNCFeS2FeS2FeSFeS3HC3H8SHCH3C6H4C2HSHCHNC8H12CH11CFeH2C2H2NHC3H4CH3CHCFeSCH3CH3CHCH2CH2SCH2C3HCFeSHFeSCHCSFeS2FeS2FeSFeHS2CH3CH4SCSC6H3CH3C2H5CH3FeNC8H18FeCHC2HNHSC5H2CHC2H2CH5SCH2SC2H9NHCH2CHCH8CH3C4HCHNH9CHCH5C2H3CH2CHCH
_chemical_formula_sum              "H576 C336 Fe48 S96 N24"
_cell_length_a       44.1263
_cell_length_b       44.5037
_cell_length_c       30.7052
_cell_angle_alpha    89.9399
_cell_angle_beta     89.8306
_cell_angle_gamma    120.291

_space_group_name_H-M_alt    "P 1"
_space_group_IT_number       1

loop_
  _space_group_symop_operation_xyz
  'x, y, z'

loop_
  _atom_site_type_symbol
  _atom_site_label
  _atom_site_symmetry_multiplicity
  _atom_site_fract_x
  _atom_site_fract_y
  _atom_site_fract_z
  _atom_site_occupancy
  H   H1        1.0  0.41557  0.04681  0.19308  1.0000
  H   H2        1.0  0.41546  0.04377  0.25103  1.0000
  H   H3        1.0  0.45397  0.16509  0.17242  1.0000
  C   C1        1.0  0.45526  0.98875  0.31041  1.0000
  H   H4        1.0  0.46337  0.13261  0.08590  1.0000
  C   C2        1.0  0.43262  0.05630  0.22222  1.0000
  H   H5        1.0  0.42868  0.10196  0.22730  1.0000
  H   H6        1.0  0.43823  0.98878  0.28516  1.0000
  H   H7        1.0  0.45170  0.04705  0.22153  1.0000
  H   H8        1.0  0.43479  0.10916  0.15046  1.0000
  H   H9        1.0  0.46204  0.10288  0.26042  1.0000
  C   C3        1.0  0.45045  0.09622  0.22712  1.0000
  C   C4        1.0  0.46712  0.16928  0.20435  1.0000
  C   C5        1.0  0.46006  0.10920  0.14930  1.0000
  H   H10       1.0  0.44742  0.15815  0.23096  1.0000
  H   H11       1.0  0.45179  0.08195  0.14007  1.0000
  H   H12       1.0  0.43822  0.17888  0.75294  1.0000
  H   H13       1.0  0.45592  0.25626  0.61779  1.0000
  H   H14       1.0  0.43750  0.23310  0.73895  1.0000
  C   C6        1.0  0.46228  0.20226  0.74378  1.0000
  C   C7        1.0  0.46190  0.23301  0.73601  1.0000
  H   H15       1.0  0.44603  0.20546  0.58413  1.0000
  H   H16       1.0  0.45957  0.17757  0.60772  1.0000
  H   H17       1.0  0.45307  0.28617  0.58159  1.0000
  C   C8        1.0  0.46823  0.20056  0.58609  1.0000
  H   H18       1.0  0.47306  0.19322  0.55347  1.0000
  C   C9        1.0  0.47167  0.27970  0.59743  1.0000
  H   H19       1.0  0.11459  0.59843  0.30661  1.0000
  Fe  Fe1       1.0  0.16851  0.59551  0.09468  1.0000
  S   S1        1.0  0.19485  0.62194  0.15785  1.0000
  Fe  Fe2       1.0  0.43239  0.56567  0.08967  1.0000
  H   H20       1.0  0.45027  0.32365  0.21047  1.0000
  Fe  Fe3       1.0  0.35525  0.54235  0.07304  1.0000
  S   S2        1.0  0.36393  0.59635  0.07153  1.0000
  C   C10       1.0  0.40581  0.36539  0.12590  1.0000
  Fe  Fe4       1.0  0.39834  0.60573  0.12992  1.0000
  S   S3        1.0  0.38625  0.55013  0.13396  1.0000
  Fe  Fe5       1.0  0.11255  0.52638  0.44483  1.0000
  S   S4        1.0  0.15598  0.51363  0.44319  1.0000
  S   S5        1.0  0.05866  0.48603  0.47040  1.0000
  Fe  Fe6       1.0  0.16192  0.60089  0.41324  1.0000
  S   S6        1.0  0.20897  0.59443  0.40972  1.0000
  H   H21       1.0  0.42279  0.33559  0.16211  1.0000
  Fe  Fe7       1.0  0.17110  0.54300  0.37950  1.0000
  S   S7        1.0  0.18135  0.52440  0.31604  1.0000
  Fe  Fe8       1.0  0.18986  0.56618  0.47380  1.0000
  H   H22       1.0  0.21089  0.63578  0.24874  1.0000
  S   S8        1.0  0.12519  0.55134  0.37887  1.0000
  S   S9        1.0  0.14525  0.57692  0.47962  1.0000
  H   H23       1.0  0.98556  0.43510  0.48277  1.0000
  H   H24       1.0  0.03005  0.55629  0.18058  1.0000
  S   S10       1.0  0.38820  0.62568  0.19360  1.0000
  H   H25       1.0  0.24523  0.53633  0.49098  1.0000
  H   H26       1.0  0.41477  0.40462  0.20401  1.0000
  H   H27       1.0  0.06465  0.61457  0.22131  1.0000
  C   C11       1.0  0.19142  0.59454  0.20133  1.0000
  C   C12       1.0  0.17814  0.55895  0.19501  1.0000
  C   C13       1.0  0.17416  0.53735  0.23052  1.0000
  C   C14       1.0  0.18392  0.55127  0.27245  1.0000
  C   C15       1.0  0.19694  0.58681  0.27888  1.0000
  C   C16       1.0  0.20094  0.60840  0.24336  1.0000
  H   H28       1.0  0.17123  0.54802  0.16277  1.0000
  H   H29       1.0  0.16367  0.50978  0.22544  1.0000
  H   H30       1.0  0.20442  0.59778  0.31114  1.0000
  H   H31       1.0  0.39661  0.35307  0.27074  1.0000
  C   C17       1.0  0.99030  0.50565  0.40468  1.0000
  C   C18       1.0  0.27715  0.52832  0.53779  1.0000
  H   H32       1.0  0.20376  0.63302  0.53817  1.0000
  H   H33       1.0  0.12063  0.51134  0.53175  1.0000
  N   N1        1.0  0.08481  0.58253  0.24627  1.0000
  C   C19       1.0  0.02144  0.50850  0.42094  1.0000
  C   C20       1.0  0.01995  0.48306  0.44905  1.0000
  H   H34       1.0  0.45545  0.43178  0.14938  1.0000
  H   H35       1.0  0.04663  0.53051  0.41204  1.0000
  C   C21       1.0  0.98696  0.45490  0.46101  1.0000
  C   C22       1.0  0.27745  0.57536  0.27130  1.0000
  C   C23       1.0  0.05323  0.53916  0.30905  1.0000
  S   S11       1.0  0.12601  0.53956  0.09372  1.0000
  H   H36       1.0  0.39497  0.34497  0.10036  1.0000
  H   H37       1.0  0.10305  0.62073  0.19396  1.0000
  N   N2        1.0  0.27504  0.54557  0.19784  1.0000
  C   C24       1.0  0.29674  0.53550  0.17008  1.0000
  C   C25       1.0  0.26858  0.57080  0.17227  1.0000
  C   C26       1.0  0.24023  0.51428  0.20955  1.0000
  C   C27       1.0  0.29473  0.56155  0.23935  1.0000
  C   C28       1.0  0.30061  0.50492  0.18704  1.0000
  C   C29       1.0  0.44427  0.45484  0.04953  1.0000
  C   C30       1.0  0.21677  0.49386  0.17062  1.0000
  S   S12       1.0  0.30337  0.49372  0.06207  1.0000
  H   H38       1.0  0.28602  0.52859  0.13664  1.0000
  H   H39       1.0  0.06209  0.55724  0.33718  1.0000
  H   H40       1.0  0.24726  0.57377  0.18705  1.0000
  H   H41       1.0  0.25881  0.56057  0.13902  1.0000
  H   H42       1.0  0.24365  0.49587  0.23062  1.0000
  H   H43       1.0  0.22471  0.52207  0.23019  1.0000
  H   H44       1.0  0.28151  0.51145  0.51656  1.0000
  H   H45       1.0  0.38557  0.61174  0.52773  1.0000
  H   H46       1.0  0.27512  0.48029  0.18926  1.0000
  H   H47       1.0  0.31650  0.49982  0.16333  1.0000
  H   H48       1.0  0.44593  0.34307  0.26081  1.0000
  H   H49       1.0  0.26004  0.55473  0.29477  1.0000
  H   H50       1.0  0.05861  0.52130  0.19742  1.0000
  C   C31       1.0  0.43479  0.36280  0.15075  1.0000
  H   H51       1.0  0.19265  0.47069  0.18314  1.0000
  H   H52       1.0  0.22978  0.48429  0.14820  1.0000
  H   H53       1.0  0.20808  0.50956  0.15203  1.0000
  H   H54       1.0  0.32215  0.60667  0.14832  1.0000
  S   S13       1.0  0.22296  0.58029  0.53551  1.0000
  H   H55       1.0  0.29819  0.59780  0.28963  1.0000
  C   C32       1.0  0.97461  0.42188  0.14341  1.0000
  S   S14       1.0  0.44748  0.62236  0.09040  1.0000
  H   H56       1.0  0.08023  0.50877  0.23785  1.0000
  H   H57       1.0  0.29826  0.54220  0.25822  1.0000
  H   H58       1.0  0.99173  0.52558  0.38315  1.0000
  H   H59       1.0  0.32379  0.55800  0.16575  1.0000
  H   H60       1.0  0.45469  0.36523  0.12630  1.0000
  C   C33       1.0  0.05036  0.55716  0.26760  1.0000
  H   H61       1.0  0.39505  0.33133  0.22133  1.0000
  H   H62       1.0  0.07116  0.52876  0.30477  1.0000
  H   H63       1.0  0.26192  0.58528  0.25508  1.0000
  H   H64       1.0  0.07104  0.56714  0.15303  1.0000
  H   H65       1.0  0.09069  0.61990  0.29606  1.0000
  C   C34       1.0  0.30061  0.60751  0.16583  1.0000
  H   H66       1.0  0.31452  0.51093  0.21862  1.0000
  C   C35       1.0  0.42665  0.38996  0.21852  1.0000
  H   H67       1.0  0.12440  0.58203  0.20513  1.0000
  H   H68       1.0  0.97730  0.40713  0.11604  1.0000
  C   C36       1.0  0.10645  0.60981  0.27990  1.0000
  H   H69       1.0  0.05216  0.59382  0.14688  1.0000
  H   H70       1.0  0.09979  0.52502  0.18673  1.0000
  H   H71       1.0  0.12108  0.56411  0.25798  1.0000
  C   C37       1.0  0.14052  0.64176  0.26312  1.0000
  C   C38       1.0  0.39577  0.35469  0.23467  1.0000
  H   H72       1.0  0.29275  0.62313  0.14556  1.0000
  H   H73       1.0  0.03564  0.57053  0.27677  1.0000
  H   H74       1.0  0.38373  0.36096  0.14739  1.0000
  H   H75       1.0  0.32214  0.58261  0.23286  1.0000
  C   C39       1.0  0.08397  0.52821  0.21254  1.0000
  H   H76       1.0  0.03253  0.53629  0.24515  1.0000
  H   H77       1.0  0.37035  0.35288  0.22668  1.0000
  C   C40       1.0  0.07800  0.60059  0.20914  1.0000
  C   C41       1.0  0.47355  0.51260  0.08196  1.0000
  H   H78       1.0  0.41593  0.39056  0.10873  1.0000
  H   H79       1.0  0.17319  0.50483  0.53734  1.0000
  H   H80       1.0  0.00108  0.44503  0.14835  1.0000
  C   C42       1.0  0.25662  0.54241  0.52321  1.0000
  C   C43       1.0  0.44409  0.48528  0.06189  1.0000
  C   C44       1.0  0.05640  0.57756  0.17083  1.0000
  C   C45       1.0  0.10526  0.56567  0.23076  1.0000
  H   H81       1.0  0.18464  0.46244  0.51055  1.0000
  H   H82       1.0  0.15519  0.63452  0.24029  1.0000
  H   H83       1.0  0.31047  0.62152  0.19710  1.0000
  S   S15       1.0  0.04048  0.54131  0.06553  1.0000
  H   H84       1.0  0.02692  0.51693  0.31764  1.0000
  N   N3        1.0  0.45233  0.38881  0.18699  1.0000
  H   H85       1.0  0.36385  0.64477  0.49499  1.0000
  H   H86       1.0  0.42103  0.48744  0.05660  1.0000
  C   C46       1.0  0.46328  0.34596  0.23308  1.0000
  H   H87       1.0  0.97892  0.56851  0.46078  1.0000
  C   C47       1.0  0.23211  0.52567  0.04507  1.0000
  S   S16       1.0  0.47200  0.41179  0.04356  1.0000
  H   H88       1.0  0.23463  0.43981  0.04271  1.0000
  H   H89       1.0  0.28766  0.55074  0.05880  1.0000
  H   H90       1.0  0.44062  0.40509  0.24801  1.0000
  C   C48       1.0  0.26400  0.52634  0.05241  1.0000
  H   H91       1.0  0.13273  0.46514  0.53146  1.0000
  H   H92       1.0  0.23139  0.54954  0.04567  1.0000
  H   H93       1.0  0.97700  0.56512  0.51881  1.0000
  H   H94       1.0  0.20800  0.44417  0.53556  1.0000
  S   S17       1.0  0.13787  0.61322  0.05445  1.0000
  Fe  Fe9       1.0  0.09697  0.55632  0.04917  1.0000
  C   C49       1.0  0.26493  0.49526  0.05176  1.0000
  H   H95       1.0  0.16119  0.42091  0.53865  1.0000
  C   C50       1.0  0.23416  0.46388  0.04326  1.0000
  C   C51       1.0  0.47313  0.42417  0.16552  1.0000
  C   C52       1.0  0.18467  0.44731  0.53929  1.0000
  C   C53       1.0  0.47155  0.46827  0.74060  1.0000
  H   H96       1.0  0.24755  0.51363  0.95567  1.0000
  H   H97       1.0  0.23981  0.50309  0.89824  1.0000
  S   S18       1.0  0.19862  0.59224  0.03734  1.0000
  H   H98       1.0  0.21280  0.49192  0.58052  1.0000
  C   C54       1.0  0.44614  0.56631  0.88424  1.0000
  H   H99       1.0  0.20552  0.48141  0.93743  1.0000
  H   H100      1.0  0.35022  0.51474  0.95561  1.0000
  S   S19       1.0  0.12110  0.54884  0.98853  1.0000
  C   C55       1.0  0.45169  0.47954  0.71722  1.0000
  H   H101      1.0  0.16069  0.46190  0.68636  1.0000
  C   C56       1.0  0.00224  0.50910  0.03878  1.0000
  Fe  Fe10      1.0  0.34972  0.53379  0.65856  1.0000
  S   S20       1.0  0.40671  0.54858  0.65374  1.0000
  S   S21       1.0  0.31573  0.51586  0.59776  1.0000
  Fe  Fe11      1.0  0.35520  0.55022  0.75496  1.0000
  S   S22       1.0  0.41218  0.56727  0.75753  1.0000
  S   S23       1.0  0.32607  0.54813  0.81633  1.0000
  Fe  Fe12      1.0  0.41578  0.59411  0.69465  1.0000
  C   C57       1.0  0.35212  0.46615  0.83879  1.0000
  Fe  Fe13      1.0  0.39862  0.52011  0.71724  1.0000
  S   S24       1.0  0.42308  0.48978  0.74588  1.0000
  S   S25       1.0  0.35982  0.58155  0.69526  1.0000
  S   S26       1.0  0.34056  0.50098  0.71870  1.0000
  C   C58       1.0  0.29168  0.53554  0.57984  1.0000
  C   C59       1.0  0.28595  0.55743  0.60697  1.0000
  C   C60       1.0  0.44560  0.49229  0.92474  1.0000
  H   H102      1.0  0.29672  0.56295  0.63948  1.0000
  H   H103      1.0  0.20543  0.53589  0.95503  1.0000
  C   C61       1.0  0.39791  0.61370  0.92703  1.0000
  C   C62       1.0  0.40937  0.62159  0.88377  1.0000
  C   C63       1.0  0.38718  0.60205  0.84955  1.0000
  C   C64       1.0  0.35360  0.57416  0.85854  1.0000
  C   C65       1.0  0.34212  0.56623  0.90185  1.0000
  C   C66       1.0  0.36416  0.58607  0.93607  1.0000
  H   H104      1.0  0.34617  0.63372  0.64161  1.0000
  H   H105      1.0  0.39613  0.60859  0.81624  1.0000
  H   H106      1.0  0.31650  0.54417  0.90909  1.0000
  H   H107      1.0  0.35523  0.57964  0.96946  1.0000
  H   H108      1.0  0.21931  0.63320  0.66058  1.0000
  H   H109      1.0  0.18792  0.50710  0.69827  1.0000
  C   C67       1.0  0.45654  0.38289  0.79748  1.0000
  H   H110      1.0  0.11831  0.41880  0.57870  1.0000
  H   H111      1.0  0.36199  0.51593  0.86288  1.0000
  C   C68       1.0  0.27459  0.59771  0.83301  1.0000
  C   C69       1.0  0.39999  0.64562  0.58517  1.0000
  C   C70       1.0  0.45527  0.48264  0.67195  1.0000
  H   H112      1.0  0.43175  0.47914  0.95527  1.0000
  H   H113      1.0  0.19264  0.45162  0.60828  1.0000
  H   H114      1.0  0.29624  0.64119  0.92385  1.0000
  H   H115      1.0  0.40439  0.46075  0.88031  1.0000
  H   H116      1.0  0.19890  0.56723  0.84120  1.0000
  H   H117      1.0  0.02751  0.48545  0.00468  1.0000
  H   H118      1.0  0.46043  0.47962  0.91384  1.0000
  C   C71       1.0  0.25762  0.56555  0.86360  1.0000
  H   H119      1.0  0.47373  0.34994  0.82613  1.0000
  H   H120      1.0  0.27719  0.55725  0.86893  1.0000
  H   H121      1.0  0.23618  0.54416  0.84447  1.0000
  H   H122      1.0  0.44240  0.33232  0.91947  1.0000
  C   C72       1.0  0.12716  0.43661  0.60719  1.0000
  H   H123      1.0  0.42900  0.54134  0.94704  1.0000
  C   C73       1.0  0.37491  0.61210  0.56041  1.0000
  C   C74       1.0  0.37096  0.48102  0.93418  1.0000
  H   H124      1.0  0.43953  0.49046  0.65350  1.0000
  C   C75       1.0  0.00292  0.48449  0.01117  1.0000
  N   N4        1.0  0.24352  0.56942  0.90679  1.0000
  S   S27       1.0  0.40027  0.55317  0.02905  1.0000
  H   H125      1.0  0.43961  0.35163  0.85489  1.0000
  C   C76       1.0  0.21638  0.53377  0.92319  1.0000
  H   H126      1.0  0.33168  0.44862  0.86224  1.0000
  H   H127      1.0  0.14739  0.53241  0.57783  1.0000
  H   H128      1.0  0.28356  0.62307  0.84876  1.0000
  H   H129      1.0  0.26097  0.58737  0.97248  1.0000
  H   H130      1.0  0.17009  0.55543  0.88819  1.0000
  H   H131      1.0  0.29812  0.59939  0.81723  1.0000
  H   H132      1.0  0.37170  0.58936  0.57931  1.0000
  H   H133      1.0  0.39933  0.55066  0.92065  1.0000
  H   H134      1.0  0.25652  0.59442  0.80597  1.0000
  H   H135      1.0  0.21613  0.59321  0.93637  1.0000
  S   S28       1.0  0.46267  0.64634  0.67997  1.0000
  C   C77       1.0  0.22573  0.59072  0.90367  1.0000
  C   C78       1.0  0.25044  0.56379  0.55073  1.0000
  H   H136      1.0  0.14947  0.50371  0.64142  1.0000
  C   C79       1.0  0.41692  0.54006  0.91482  1.0000
  H   H137      1.0  0.38498  0.48485  0.96561  1.0000
  C   C80       1.0  0.42007  0.48895  0.88826  1.0000
  H   H138      1.0  0.07633  0.43350  0.59732  1.0000
  S   S29       1.0  0.42637  0.63806  0.96929  1.0000
  H   H139      1.0  0.32428  0.47034  0.97094  1.0000
  C   C81       1.0  0.09380  0.43549  0.62455  1.0000
  H   H140      1.0  0.36671  0.45369  0.82620  1.0000
  H   H141      1.0  0.44865  0.40224  0.80552  1.0000
  C   C82       1.0  0.37715  0.50248  0.85783  1.0000
  H   H142      1.0  0.43576  0.64234  0.87683  1.0000
  N   N5        1.0  0.39625  0.50311  0.89874  1.0000
  C   C83       1.0  0.19413  0.57656  0.87241  1.0000
  S   S30       1.0  0.17973  0.63757  0.93481  1.0000
  C   C84       1.0  0.22866  0.50699  0.92866  1.0000
  H   H143      1.0  0.17918  0.43884  0.02809  1.0000
  C   C85       1.0  0.18801  0.46648  0.58253  1.0000
  C   C86       1.0  0.18165  0.48701  0.67292  1.0000
  H   H144      1.0  0.19359  0.52119  0.90076  1.0000
  Fe  Fe14      1.0  0.16412  0.60470  0.99658  1.0000
  H   H145      1.0  0.46528  0.51980  0.93183  1.0000
  H   H146      1.0  0.07922  0.41226  0.64584  1.0000
  H   H147      1.0  0.43587  0.50146  0.85835  1.0000
  H   H148      1.0  0.33823  0.46922  0.81052  1.0000
  H   H149      1.0  0.18849  0.59763  0.86463  1.0000
  C   C87       1.0  0.20143  0.49404  0.03608  1.0000
  H   H150      1.0  0.35909  0.45281  0.92686  1.0000
  H   H151      1.0  0.20600  0.48601  0.66746  1.0000
  H   H152      1.0  0.13499  0.42296  0.63112  1.0000
  Fe  Fe15      1.0  0.15393  0.53729  0.03379  1.0000
  H   H153      1.0  0.39606  0.51720  0.83123  1.0000
  H   H154      1.0  0.32161  0.63051  0.95867  1.0000
  C   C88       1.0  0.27207  0.58532  0.94066  1.0000
  H   H155      1.0  0.26079  0.58792  0.61399  1.0000
  H   H156      1.0  0.10576  0.49237  0.58386  1.0000
  C   C89       1.0  0.34062  0.48788  0.94408  1.0000
  C   C90       1.0  0.26553  0.57154  0.59242  1.0000
  C   C91       1.0  0.30378  0.62137  0.93011  1.0000
  H   H157      1.0  0.24411  0.61786  0.89374  1.0000
  H   H158      1.0  0.28358  0.56861  0.94694  1.0000
  S   S31       1.0  0.16137  0.49148  0.02300  1.0000
  H   H159      1.0  0.09905  0.45769  0.64561  1.0000
  H   H160      1.0  0.32297  0.48239  0.91589  1.0000
  Fe  Fe16      1.0  0.41177  0.60817  0.03238  1.0000
  H   H161      1.0  0.47207  0.56253  0.70671  1.0000
  C   C92       1.0  0.16983  0.49757  0.63125  1.0000
  H   H162      1.0  0.43526  0.57043  0.85381  1.0000
  N   N6        1.0  0.15767  0.47165  0.59445  1.0000
  H   H163      1.0  0.31932  0.62000  0.90252  1.0000
  H   H164      1.0  0.45847  0.37057  0.95365  1.0000
  H   H165      1.0  0.20567  0.61694  0.60682  1.0000
  H   H166      1.0  0.46015  0.59195  0.90087  1.0000
  H   H167      1.0  0.25171  0.63848  0.62202  1.0000
  H   H168      1.0  0.43400  0.36115  0.78033  1.0000
  H   H169      1.0  0.42116  0.43362  0.03476  1.0000
  C   C93       1.0  0.20270  0.46331  0.03518  1.0000
  C   C94       1.0  0.22676  0.63859  0.62563  1.0000
  H   H170      1.0  0.19225  0.52302  0.62009  1.0000
  C   C95       1.0  0.12947  0.50650  0.56343  1.0000
  H   H171      1.0  0.46896  0.46580  0.77563  1.0000
  H   H172      1.0  0.34805  0.60762  0.55708  1.0000
  H   H173      1.0  0.46595  0.55882  0.87640  1.0000
  C   C96       1.0  0.14877  0.48618  0.55516  1.0000
  H   H174      1.0  0.39823  0.63935  0.62056  1.0000
  H   H175      1.0  0.44979  0.40149  0.89359  1.0000
  C   C97       1.0  0.46571  0.35336  0.93605  1.0000
  C   C98       1.0  0.46517  0.36818  0.83820  1.0000
  H   H176      1.0  0.47344  0.34049  0.96113  1.0000
  C   C99       1.0  0.40668  0.68974  0.53022  1.0000
  Fe  Fe17      1.0  0.41288  0.79480  0.30959  1.0000
  S   S32       1.0  0.39556  0.83437  0.30402  1.0000
  H   H177      1.0  0.26054  0.67082  0.48050  1.0000
  Fe  Fe18      1.0  0.40403  0.79088  0.40839  1.0000
  S   S33       1.0  0.38520  0.82911  0.41037  1.0000
  S   S34       1.0  0.41406  0.77015  0.47038  1.0000
  Fe  Fe19      1.0  0.35374  0.79965  0.35197  1.0000
  S   S35       1.0  0.29893  0.78860  0.33950  1.0000
  Fe  Fe20      1.0  0.42874  0.86062  0.36282  1.0000
  C   C100      1.0  0.25938  0.75118  0.23249  1.0000
  S   S36       1.0  0.36876  0.75847  0.35367  1.0000
  H   H178      1.0  0.15799  0.65540  0.29114  1.0000
  S   S37       1.0  0.46907  0.91732  0.37805  1.0000
  C   C101      1.0  0.35976  0.77212  0.51182  1.0000
  C   C102      1.0  0.41757  0.73713  0.23210  1.0000
  H   H179      1.0  0.37944  0.75788  0.17034  1.0000
  H   H180      1.0  0.34972  0.77210  0.47972  1.0000
  H   H181      1.0  0.17270  0.66516  0.49143  1.0000
  C   C103      1.0  0.26193  0.74940  0.35640  1.0000
  C   C104      1.0  0.26435  0.72153  0.37385  1.0000
  H   H182      1.0  0.25929  0.69649  0.27532  1.0000
  C   C105      1.0  0.20049  0.68683  0.37853  1.0000
  C   C106      1.0  0.19841  0.71487  0.36157  1.0000
  C   C107      1.0  0.22890  0.74588  0.35043  1.0000
  H   H183      1.0  0.28981  0.72409  0.37867  1.0000
  H   H184      1.0  0.17304  0.71261  0.35687  1.0000
  H   H185      1.0  0.22686  0.76728  0.33698  1.0000
  C   C108      1.0  0.45065  0.95681  0.32577  1.0000
  C   C109      1.0  0.38895  0.67512  0.24765  1.0000
  C   C110      1.0  0.39797  0.70907  0.26021  1.0000
  C   C111      1.0  0.27152  0.69690  0.19077  1.0000
  H   H186      1.0  0.42871  0.68623  0.51892  1.0000
  H   H187      1.0  0.39020  0.71357  0.29185  1.0000
  C   C112      1.0  0.29251  0.67437  0.27555  1.0000
  H   H188      1.0  0.24719  0.73768  0.26343  1.0000
  H   H189      1.0  0.21829  0.69516  0.48425  1.0000
  S   S38       1.0  0.44977  0.82384  0.36450  1.0000
  H   H190      1.0  0.26210  0.77736  0.23474  1.0000
  H   H191      1.0  0.37425  0.65365  0.26988  1.0000
  H   H192      1.0  0.42677  0.69232  0.14722  1.0000
  N   N7        1.0  0.29730  0.72242  0.22305  1.0000
  C   C113      1.0  0.23355  0.69010  0.38464  1.0000
  C   C114      1.0  0.29604  0.75566  0.22510  1.0000
  C   C115      1.0  0.33420  0.73032  0.21319  1.0000
  H   H193      1.0  0.27401  0.67330  0.18868  1.0000
  H   H194      1.0  0.40770  0.84914  0.53160  1.0000
  H   H195      1.0  0.41676  0.71823  0.52797  1.0000
  C   C116      1.0  0.35537  0.75868  0.17879  1.0000
  H   H196      1.0  0.46962  0.89856  0.29046  1.0000
  C   C117      1.0  0.27410  0.70951  0.14340  1.0000
  H   H197      1.0  0.24397  0.68645  0.20196  1.0000
  H   H198      1.0  0.30633  0.77144  0.19504  1.0000
  H   H199      1.0  0.31368  0.77283  0.25135  1.0000
  H   H200      1.0  0.32059  0.68188  0.27445  1.0000
  C   C118      1.0  0.39142  0.77245  0.51624  1.0000
  H   H201      1.0  0.28146  0.73711  0.14047  1.0000
  C   C119      1.0  0.28734  0.70583  0.26774  1.0000
  H   H202      1.0  0.43026  0.93252  0.31234  1.0000
  H   H203      1.0  0.24776  0.69491  0.12808  1.0000
  C   C120      1.0  0.41854  0.69681  0.17858  1.0000
  S   S39       1.0  0.42948  0.78034  0.24639  1.0000
  H   H204      1.0  0.35843  0.68244  0.49948  1.0000
  H   H205      1.0  0.42886  0.89470  0.54209  1.0000
  H   H206      1.0  0.34110  0.75525  0.14809  1.0000
  C   C121      1.0  0.39942  0.66883  0.20697  1.0000
  H   H207      1.0  0.36428  0.78501  0.19220  1.0000
  H   H208      1.0  0.23545  0.66863  0.39781  1.0000
  H   H209      1.0  0.24143  0.73742  0.20501  1.0000
  H   H210      1.0  0.44269  0.75231  0.16915  1.0000
  H   H211      1.0  0.13481  0.66069  0.24700  1.0000
  C   C122      1.0  0.42760  0.73079  0.19117  1.0000
  C   C123      1.0  0.27903  0.69212  0.50209  1.0000
  H   H212      1.0  0.30268  0.72532  0.29340  1.0000
  H   H213      1.0  0.33419  0.70632  0.20275  1.0000
  C   C124      1.0  0.19926  0.66839  0.49468  1.0000
  H   H214      1.0  0.28204  0.71720  0.49131  1.0000
  H   H215      1.0  0.43958  0.90076  0.22593  1.0000
  C   C125      1.0  0.20419  0.65811  0.54121  1.0000
  H   H216      1.0  0.35055  0.73932  0.24323  1.0000
  H   H217      1.0  0.25207  0.73253  0.53050  1.0000
  H   H218      1.0  0.30502  0.69430  0.49707  1.0000
  H   H219      1.0  0.29253  0.70464  0.12413  1.0000
  H   H220      1.0  0.38331  0.87093  0.52595  1.0000
  H   H221      1.0  0.38980  0.68279  0.46273  1.0000
  H   H222      1.0  0.20091  0.65075  0.47053  1.0000
  S   S40       1.0  0.16091  0.64866  0.39187  1.0000
  C   C126      1.0  0.47244  0.95647  0.35854  1.0000
  H   H223      1.0  0.27740  0.65285  0.25244  1.0000
  C   C127      1.0  0.37766  0.67350  0.49539  1.0000
  H   H224      1.0  0.28277  0.66386  0.30874  1.0000
  H   H225      1.0  0.44800  0.86591  0.21923  1.0000
  C   C128      1.0  0.46091  0.89466  0.22149  1.0000
  H   H226      1.0  0.40866  0.85180  0.60949  1.0000
  Fe  Fe21      1.0  0.39631  0.84287  0.75731  1.0000
  S   S41       1.0  0.33929  0.80073  0.75579  1.0000
  S   S42       1.0  0.40582  0.89806  0.76272  1.0000
  Fe  Fe22      1.0  0.41981  0.78897  0.74807  1.0000
  S   S43       1.0  0.36516  0.74366  0.74372  1.0000
  N   N8        1.0  0.38982  0.88793  0.62098  1.0000
  Fe  Fe23      1.0  0.35609  0.77919  0.70047  1.0000
  S   S44       1.0  0.32670  0.76501  0.63666  1.0000
  Fe  Fe24      1.0  0.35382  0.76931  0.79965  1.0000
  S   S45       1.0  0.33429  0.74104  0.86475  1.0000
  S   S46       1.0  0.41206  0.82257  0.69994  1.0000
  S   S47       1.0  0.40957  0.81351  0.80565  1.0000
  C   C129      1.0  0.45731  0.92825  0.61726  1.0000
  C   C130      1.0  0.43276  0.71181  0.73122  1.0000
  C   C131      1.0  0.43214  0.68114  0.71811  1.0000
  H   H227      1.0  0.35687  0.89546  0.57490  1.0000
  C   C132      1.0  0.24283  0.72070  0.56301  1.0000
  C   C133      1.0  0.36016  0.67061  0.58672  1.0000
  H   H228      1.0  0.40906  0.71059  0.74294  1.0000
  H   H229      1.0  0.30614  0.83500  0.66683  1.0000
  N   N9        1.0  0.23636  0.68404  0.56578  1.0000
  H   H230      1.0  0.43905  0.72556  0.81859  1.0000
  C   C134      1.0  0.35265  0.76943  0.59072  1.0000
  C   C135      1.0  0.38506  0.77128  0.59517  1.0000
  H   H231      1.0  0.39495  0.77086  0.62721  1.0000
  H   H232      1.0  0.42203  0.96895  0.76780  1.0000
  C   C136      1.0  0.25229  0.67595  0.94222  1.0000
  C   C137      1.0  0.28617  0.69889  0.92587  1.0000
  C   C138      1.0  0.29101  0.71269  0.88350  1.0000
  C   C139      1.0  0.26165  0.70333  0.85750  1.0000
  H   H233      1.0  0.40226  0.69007  0.97093  1.0000
  H   H234      1.0  0.41684  0.72787  0.60651  1.0000
  C   C140      1.0  0.39223  0.69774  0.88695  1.0000
  H   H235      1.0  0.26503  0.71387  0.82492  1.0000
  C   C141      1.0  0.21130  0.72518  0.57480  1.0000
  N   N10       1.0  0.39653  0.67714  0.57666  1.0000
  H   H236      1.0  0.42806  0.89247  0.66844  1.0000
  H   H237      1.0  0.42272  0.92911  0.66595  1.0000
  C   C142      1.0  0.41573  0.77399  0.91587  1.0000
  N   N11       1.0  0.42989  0.72713  0.88768  1.0000
  H   H238      1.0  0.47177  0.75152  0.93512  1.0000
  H   H239      1.0  0.46372  0.90963  0.60176  1.0000
  H   H240      1.0  0.20509  0.67361  0.85376  1.0000
  C   C143      1.0  0.46274  0.68287  0.70189  1.0000
  H   H241      1.0  0.36526  0.84790  0.67049  1.0000
  H   H242      1.0  0.34454  0.67367  0.84808  1.0000
  H   H243      1.0  0.42308  0.76415  0.84867  1.0000
  H   H244      1.0  0.30877  0.70614  0.94625  1.0000
  H   H245      1.0  0.39081  0.67293  0.89661  1.0000
  H   H246      1.0  0.40784  0.65650  0.71921  1.0000
  C   C144      1.0  0.42167  0.70570  0.60666  1.0000
  C   C145      1.0  0.37915  0.93999  0.61885  1.0000
  C   C146      1.0  0.44876  0.72158  0.85016  1.0000
  C   C147      1.0  0.43276  0.76207  0.88123  1.0000
  H   H247      1.0  0.36199  0.67847  0.65808  1.0000
  H   H248      1.0  0.25367  0.69419  0.63316  1.0000
  C   C148      1.0  0.38140  0.91101  0.59389  1.0000
  C   C149      1.0  0.32357  0.85229  0.64049  1.0000
  H   H249      1.0  0.40511  0.96437  0.61924  1.0000
  H   H250      1.0  0.29162  0.70121  0.57058  1.0000
  H   H251      1.0  0.31622  0.87239  0.63461  1.0000
  C   C150      1.0  0.39171  0.86056  0.59365  1.0000
  H   H252      1.0  0.43410  0.78750  0.94314  1.0000
  H   H253      1.0  0.37580  0.70146  0.91121  1.0000
  H   H254      1.0  0.40885  0.79242  0.90066  1.0000
  C   C151      1.0  0.37319  0.69078  0.84284  1.0000
  H   H255      1.0  0.34008  0.65093  0.56478  1.0000
  H   H256      1.0  0.36514  0.88613  0.68362  1.0000
  H   H257      1.0  0.45587  0.94572  0.59270  1.0000
  H   H258      1.0  0.38174  0.67707  0.82010  1.0000
  H   H259      1.0  0.45572  0.70637  0.92719  1.0000
  H   H260      1.0  0.36579  0.83645  0.59157  1.0000
  C   C152      1.0  0.44536  0.93776  0.75241  1.0000
  H   H261      1.0  0.41741  0.69655  0.64084  1.0000
  H   H262      1.0  0.35902  0.69475  0.58070  1.0000
  H   H263      1.0  0.24887  0.66559  0.97489  1.0000
  H   H264      1.0  0.37712  0.71492  0.82732  1.0000
  H   H265      1.0  0.17989  0.65138  0.55994  1.0000
  H   H266      1.0  0.44172  0.71724  0.99938  1.0000
  C   C153      1.0  0.23120  0.67430  0.61356  1.0000
  C   C154      1.0  0.46432  0.74385  0.72995  1.0000
  C   C155      1.0  0.46120  0.72078  0.59750  1.0000
  H   H267      1.0  0.31807  0.83613  0.61091  1.0000
  H   H268      1.0  0.20744  0.67385  0.62659  1.0000
  H   H269      1.0  0.40147  0.92465  0.56814  1.0000
  H   H270      1.0  0.26513  0.65704  0.55472  1.0000
  C   C156      1.0  0.36206  0.86898  0.65558  1.0000
  C   C157      1.0  0.40449  0.77304  0.55794  1.0000
  C   C158      1.0  0.22774  0.68056  0.87394  1.0000
  C   C159      1.0  0.42381  0.90922  0.64514  1.0000
  H   H271      1.0  0.39055  0.75293  0.92881  1.0000
  H   H272      1.0  0.44320  0.69427  0.84980  1.0000
  H   H273      1.0  0.26463  0.73814  0.58504  1.0000
  H   H274      1.0  0.21850  0.75255  0.56811  1.0000
  H   H275      1.0  0.20463  0.72057  0.60993  1.0000
  C   C160      1.0  0.22289  0.66680  0.91631  1.0000
  S   S48       1.0  0.46738  0.78284  0.74793  1.0000
  C   C161      1.0  0.42527  0.71685  0.97180  1.0000
  H   H276      1.0  0.35967  0.94517  0.60289  1.0000
  H   H277      1.0  0.41658  0.73547  0.97992  1.0000
  C   C162      1.0  0.44734  0.72615  0.92951  1.0000
  C   C163      1.0  0.44551  0.96930  0.75675  1.0000
  C   C164      1.0  0.34666  0.65822  0.63346  1.0000
  H   H278      1.0  0.37011  0.93299  0.65295  1.0000
  H   H279      1.0  0.46073  0.78305  0.88037  1.0000
  H   H280      1.0  0.42680  0.65115  0.57645  1.0000
  H   H281      1.0  0.31920  0.65273  0.63599  1.0000
  H   H282      1.0  0.42975  0.77488  0.56132  1.0000
  H   H283      1.0  0.46928  0.70113  0.60237  1.0000
  C   C165      1.0  0.34059  0.77089  0.54899  1.0000
  H   H284      1.0  0.18778  0.70839  0.55500  1.0000
  C   C166      1.0  0.26853  0.68336  0.55041  1.0000
  H   H285      1.0  0.46915  0.73256  0.56462  1.0000
  H   H286      1.0  0.31641  0.77109  0.54519  1.0000
  C   C167      1.0  0.40378  0.86992  0.54579  1.0000
  H   H287      1.0  0.76287  0.30320  0.31805  1.0000
  Fe  Fe25      1.0  0.56193  0.19105  0.30214  1.0000
  S   S49       1.0  0.57500  0.14854  0.29449  1.0000
  S   S50       1.0  0.79192  0.30496  0.42572  1.0000
  Fe  Fe26      1.0  0.54217  0.17186  0.39757  1.0000
  S   S51       1.0  0.55335  0.12799  0.39684  1.0000
  S   S52       1.0  0.52500  0.18335  0.46159  1.0000
  Fe  Fe27      1.0  0.60123  0.16596  0.35926  1.0000
  S   S53       1.0  0.65217  0.16798  0.37228  1.0000
  Fe  Fe28      1.0  0.52587  0.11413  0.33244  1.0000
  N   N12       1.0  0.47777  0.11770  0.19312  1.0000
  S   S54       1.0  0.59229  0.21099  0.36453  1.0000
  H   H288      1.0  0.76237  0.29173  0.26289  1.0000
  H   H289      1.0  0.70245  0.28993  0.31705  1.0000
  C   C168      1.0  0.68479  0.26223  0.16698  1.0000
  C   C169      1.0  0.68995  0.20716  0.38695  1.0000
  C   C170      1.0  0.71999  0.20583  0.39775  1.0000
  C   C171      1.0  0.75095  0.23612  0.40920  1.0000
  C   C172      1.0  0.75247  0.26823  0.40940  1.0000
  C   C173      1.0  0.69110  0.23925  0.38744  1.0000
  H   H290      1.0  0.71931  0.18118  0.39741  1.0000
  H   H291      1.0  0.50859  0.28564  0.25449  1.0000
  H   H292      1.0  0.66799  0.24048  0.37923  1.0000
  C   C174      1.0  0.55232  0.18504  0.50429  1.0000
  S   S55       1.0  0.57448  0.22347  0.24002  1.0000
  H   H293      1.0  0.56565  0.30178  0.13499  1.0000
  C   C175      1.0  0.58634  0.19180  0.49570  1.0000
  H   H294      1.0  0.66453  0.25700  0.50040  1.0000
  H   H295      1.0  0.50428  0.16004  0.23868  1.0000
  H   H296      1.0  0.59593  0.19557  0.46253  1.0000
  H   H297      1.0  0.56064  0.07300  0.46033  1.0000
  H   H298      1.0  0.77392  0.23463  0.41787  1.0000
  C   C176      1.0  0.56974  0.26783  0.18217  1.0000
  C   C177      1.0  0.68132  0.21353  0.25675  1.0000
  S   S56       1.0  0.51047  0.15539  0.33559  1.0000
  C   C178      1.0  0.72253  0.26990  0.39838  1.0000
  C   C179      1.0  0.55789  0.28998  0.16693  1.0000
  H   H299      1.0  0.72358  0.29467  0.39849  1.0000
  C   C180      1.0  0.55860  0.28891  0.50965  1.0000
  H   H300      1.0  0.75143  0.30808  0.49962  1.0000
  C   C181      1.0  0.53573  0.29650  0.19286  1.0000
  H   H301      1.0  0.52958  0.24652  0.28124  1.0000
  H   H302      1.0  0.51080  0.10320  0.22913  1.0000
  H   H303      1.0  0.58664  0.26274  0.16168  1.0000
  H   H304      1.0  0.65636  0.23534  0.29506  1.0000
  C   C182      1.0  0.54249  0.13434  0.17648  1.0000
  C   C183      1.0  0.49287  0.15541  0.20537  1.0000
  H   H305      1.0  0.49611  0.12038  0.09408  1.0000
  C   C184      1.0  0.55950  0.25188  0.22334  1.0000
  C   C185      1.0  0.74533  0.28621  0.29177  1.0000
  C   C186      1.0  0.53760  0.25858  0.24946  1.0000
  H   H306      1.0  0.59936  0.07062  0.46068  1.0000
  C   C187      1.0  0.58384  0.07898  0.48057  1.0000
  H   H307      1.0  0.57473  0.12177  0.53284  1.0000
  H   H308      1.0  0.55898  0.12200  0.17557  1.0000
  H   H309      1.0  0.66306  0.19006  0.23779  1.0000
  H   H310      1.0  0.51546  0.06589  0.50963  1.0000
  H   H311      1.0  0.64165  0.22634  0.24109  1.0000
  H   H312      1.0  0.54167  0.14304  0.14307  1.0000
  H   H313      1.0  0.66788  0.27312  0.15830  1.0000
  C   C188      1.0  0.49882  0.98832  0.37562  1.0000
  S   S57       1.0  0.48645  0.06014  0.30706  1.0000
  H   H314      1.0  0.72377  0.30915  0.19800  1.0000
  C   C189      1.0  0.64997  0.29590  0.28651  1.0000
  H   H315      1.0  0.70720  0.22488  0.24076  1.0000
  N   N13       1.0  0.68973  0.27583  0.24930  1.0000
  H   H316      1.0  0.66846  0.23377  0.17232  1.0000
  C   C190      1.0  0.70848  0.28098  0.20633  1.0000
  C   C191      1.0  0.71595  0.29487  0.28499  1.0000
  C   C192      1.0  0.66602  0.23798  0.26096  1.0000
  H   H317      1.0  0.51525  0.17311  0.18426  1.0000
  H   H318      1.0  0.57063  0.28070  0.48387  1.0000
  C   C193      1.0  0.50333  0.02022  0.36039  1.0000
  C   C194      1.0  0.73593  0.29147  0.52774  1.0000
  H   H319      1.0  0.60046  0.10745  0.48426  1.0000
  H   H320      1.0  0.64384  0.11256  0.53142  1.0000
  H   H321      1.0  0.72843  0.27297  0.20729  1.0000
  H   H322      1.0  0.55621  0.15729  0.19811  1.0000
  H   H323      1.0  0.73505  0.25919  0.30325  1.0000
  C   C195      1.0  0.65675  0.30072  0.49592  1.0000
  H   H324      1.0  0.63404  0.19803  0.52308  1.0000
  H   H325      1.0  0.52372  0.04450  0.37385  1.0000
  H   H326      1.0  0.68382  0.20433  0.28945  1.0000
  H   H327      1.0  0.59022  0.04700  0.52870  1.0000
  C   C196      1.0  0.50596  0.10787  0.19482  1.0000
  H   H328      1.0  0.63485  0.27079  0.30389  1.0000
  C   C197      1.0  0.52572  0.28074  0.23419  1.0000
  C   C198      1.0  0.57239  0.05759  0.52350  1.0000
  H   H329      1.0  0.54601  0.03464  0.51678  1.0000
  H   H330      1.0  0.64572  0.27795  0.22105  1.0000
  C   C199      1.0  0.66741  0.29258  0.24455  1.0000
  H   H331      1.0  0.70175  0.26628  0.13812  1.0000
  C   C200      1.0  0.68141  0.28577  0.50048  1.0000
  H   H332      1.0  0.69644  0.29244  0.46931  1.0000
  C   C201      1.0  0.60806  0.19358  0.53008  1.0000
  H   H333      1.0  0.54257  0.29808  0.49278  1.0000
  H   H334      1.0  0.63676  0.28573  0.47067  1.0000
  C   C202      1.0  0.52001  0.08414  0.53664  1.0000
  H   H335      1.0  0.51583  0.23703  0.51816  1.0000
  H   H336      1.0  0.51585  0.10509  0.52356  1.0000
  H   H337      1.0  0.51593  0.98833  0.40077  1.0000
  C   C203      1.0  0.48154  0.02061  0.32769  1.0000
  H   H338      1.0  0.49738  0.08289  0.17752  1.0000
  H   H339      1.0  0.58044  0.31093  0.52712  1.0000
  H   H340      1.0  0.49997  0.15923  0.11814  1.0000
  H   H341      1.0  0.64242  0.29917  0.52613  1.0000
  H   H342      1.0  0.70701  0.24303  0.48878  1.0000
  H   H343      1.0  0.63101  0.30438  0.27767  1.0000
  H   H344      1.0  0.48209  0.19785  0.20972  1.0000
  H   H345      1.0  0.74932  0.25292  0.50686  1.0000
  C   C204      1.0  0.72536  0.25354  0.51660  1.0000
  C   C205      1.0  0.48156  0.13170  0.11013  1.0000
  C   C206      1.0  0.53603  0.25739  0.53954  1.0000
  H   H346      1.0  0.47468  0.25455  0.53860  1.0000
  N   N14       1.0  0.70617  0.29771  0.53884  1.0000
  H   H347      1.0  0.61784  0.24245  0.88736  1.0000
  Fe  Fe29      1.0  0.55647  0.09721  0.72848  1.0000
  S   S58       1.0  0.61382  0.13755  0.72223  1.0000
  S   S59       1.0  0.54462  0.04158  0.71738  1.0000
  Fe  Fe30      1.0  0.53762  0.15419  0.73989  1.0000
  S   S60       1.0  0.59300  0.19841  0.73447  1.0000
  C   C207      1.0  0.57811  0.29010  0.61946  1.0000
  Fe  Fe31      1.0  0.59604  0.16661  0.67955  1.0000
  S   S61       1.0  0.62301  0.18876  0.61522  1.0000
  Fe  Fe32      1.0  0.60551  0.16543  0.77791  1.0000
  S   S62       1.0  0.63967  0.18298  0.83845  1.0000
  S   S63       1.0  0.53954  0.12466  0.68159  1.0000
  S   S64       1.0  0.54933  0.12294  0.78747  1.0000
  H   H348      1.0  0.65802  0.27616  0.63558  1.0000
  S   S65       1.0  0.49171  0.16191  0.75148  1.0000
  H   H349      1.0  0.54815  0.28669  0.71221  1.0000
  C   C208      1.0  0.56188  0.18169  0.58181  1.0000
  C   C209      1.0  0.59585  0.18836  0.57317  1.0000
  H   H350      1.0  0.55224  0.17771  0.61495  1.0000
  H   H351      1.0  0.59490  0.29675  0.76567  1.0000
  C   C210      1.0  0.52422  0.26314  0.72087  1.0000
  C   C211      1.0  0.52452  0.23193  0.72806  1.0000
  H   H352      1.0  0.70728  0.27989  0.60475  1.0000
  C   C212      1.0  0.50625  0.00218  0.73228  1.0000
  H   H353      1.0  0.53286  0.00157  0.63101  1.0000
  H   H354      1.0  0.54868  0.23151  0.72496  1.0000
  H   H355      1.0  0.51969  0.22215  0.61340  1.0000
  H   H356      1.0  0.51894  0.03383  0.58234  1.0000
  C   C213      1.0  0.70377  0.26907  0.90921  1.0000
  C   C214      1.0  0.68305  0.23442  0.89502  1.0000
  C   C215      1.0  0.66686  0.22688  0.85395  1.0000
  C   C216      1.0  0.67171  0.25429  0.82698  1.0000
  C   C217      1.0  0.69218  0.28890  0.84129  1.0000
  H   H357      1.0  0.71609  0.27457  0.94087  1.0000
  H   H358      1.0  0.67946  0.21331  0.91601  1.0000
  H   H359      1.0  0.65965  0.24876  0.79517  1.0000
  N   N15       1.0  0.51923  0.26422  0.57824  1.0000
  H   H360      1.0  0.57687  0.18087  0.88365  1.0000
  H   H361      1.0  0.57390  0.19850  0.83324  1.0000
  C   C218      1.0  0.49334  0.27426  0.56199  1.0000
  C   C219      1.0  0.49273  0.26354  0.72464  1.0000
  N   N16       1.0  0.57075  0.07595  0.56405  1.0000
  C   C220      1.0  0.54633  0.29347  0.60566  1.0000
  C   C221      1.0  0.54573  0.04913  0.59629  1.0000
  H   H362      1.0  0.49995  0.07066  0.56249  1.0000
  H   H363      1.0  0.52345  0.21377  0.82893  1.0000
  C   C222      1.0  0.56859  0.19829  0.86853  1.0000
  C   C223      1.0  0.63638  0.12400  0.55855  1.0000
  H   H364      1.0  0.58278  0.23014  0.92474  1.0000
  C   C224      1.0  0.58959  0.23449  0.88952  1.0000
  C   C225      1.0  0.54703  0.25512  0.88090  1.0000
  H   H365      1.0  0.54008  0.18614  0.87502  1.0000
  C   C226      1.0  0.59305  0.26779  0.82363  1.0000
  H   H366      1.0  0.61878  0.28069  0.95862  1.0000
  N   N17       1.0  0.58392  0.26284  0.87152  1.0000
  H   H367      1.0  0.53838  0.24333  0.91386  1.0000
  H   H368      1.0  0.57599  0.24425  0.80433  1.0000
  H   H369      1.0  0.51194  0.24734  0.82583  1.0000
  C   C227      1.0  0.70834  0.29644  0.88237  1.0000
  H   H370      1.0  0.54648  0.27978  0.88213  1.0000
  C   C228      1.0  0.65962  0.28241  0.60029  1.0000
  C   C229      1.0  0.60958  0.29635  0.89406  1.0000
  H   H371      1.0  0.58076  0.28645  0.95652  1.0000
  H   H372      1.0  0.47557  0.02545  0.75045  1.0000
  C   C230      1.0  0.50132  0.23169  0.60584  1.0000
  C   C231      1.0  0.49340  0.20145  0.73980  1.0000
  H   H373      1.0  0.59432  0.29126  0.59122  1.0000
  H   H374      1.0  0.61994  0.27215  0.81844  1.0000
  C   C232      1.0  0.51810  0.23151  0.84818  1.0000
  H   H375      1.0  0.53438  0.29609  0.63630  1.0000
  C   C233      1.0  0.54010  0.17978  0.54738  1.0000
  H   H376      1.0  0.57786  0.03329  0.63446  1.0000
  H   H377      1.0  0.67487  0.24861  0.57170  1.0000
  H   H378      1.0  0.55773  0.11423  0.58601  1.0000
  H   H379      1.0  0.63716  0.30432  0.88492  1.0000
  C   C234      1.0  0.60612  0.09565  0.58582  1.0000
  S   S66       1.0  0.48978  0.30088  0.71442  1.0000
  H   H380      1.0  0.56012  0.00860  0.58454  1.0000
  H   H381      1.0  0.63356  0.26475  0.58571  1.0000
  H   H382      1.0  0.57016  0.26612  0.63866  1.0000
  H   H383      1.0  0.50704  0.29919  0.54351  1.0000
  H   H384      1.0  0.54290  0.06204  0.62592  1.0000
  C   C235      1.0  0.60779  0.29605  0.94428  1.0000
  H   H385      1.0  0.63064  0.14390  0.54620  1.0000
  H   H386      1.0  0.71407  0.23594  0.54510  1.0000
  H   H387      1.0  0.65985  0.13796  0.57969  1.0000
  C   C236      1.0  0.55522  0.02187  0.61184  1.0000
  H   H388      1.0  0.49335  0.21471  0.86631  1.0000
  H   H389      1.0  0.56652  0.29724  0.80703  1.0000
  C   C237      1.0  0.59181  0.29824  0.80137  1.0000
  C   C238      1.0  0.68812  0.27681  0.57910  1.0000
  H   H390      1.0  0.48855  0.30174  0.61903  1.0000
  H   H391      1.0  0.61564  0.07787  0.59581  1.0000
  H   H392      1.0  0.51358  0.17368  0.55411  1.0000
  H   H393      1.0  0.60413  0.10813  0.61642  1.0000
  C   C239      1.0  0.55744  0.10064  0.55540  1.0000
  C   C240      1.0  0.47582  0.00138  0.74691  1.0000
  H   H394      1.0  0.59544  0.31251  0.64052  1.0000
  H   H395      1.0  0.75476  0.29898  0.55516  1.0000
  H   H396      1.0  0.69576  0.30997  0.82026  1.0000
  H   H397      1.0  0.55281  0.24671  0.55010  1.0000
  H   H398      1.0  0.49356  0.23710  0.63810  1.0000
  H   H399      1.0  0.66523  0.30954  0.59903  1.0000
  H   H400      1.0  0.92227  0.55803  0.48200  1.0000
  S   S67       1.0  0.78248  0.34274  0.12030  1.0000
  Fe  Fe33      1.0  0.53654  0.35486  0.11156  1.0000
  S   S68       1.0  0.54851  0.41027  0.11633  1.0000
  Fe  Fe34      1.0  0.59256  0.42174  0.07017  1.0000
  S   S69       1.0  0.64491  0.46898  0.08245  1.0000
  H   H401      1.0  0.95234  0.45350  0.15836  1.0000
  N   N18       1.0  0.91068  0.40628  0.12819  1.0000
  C   C241      1.0  0.67117  0.38971  0.51692  1.0000
  Fe  Fe35      1.0  0.79332  0.40769  0.35529  1.0000
  S   S70       1.0  0.83323  0.39078  0.35715  1.0000
  S   S71       1.0  0.77256  0.41512  0.29142  1.0000
  Fe  Fe36      1.0  0.79328  0.41639  0.45419  1.0000
  S   S72       1.0  0.83381  0.40040  0.46322  1.0000
  S   S73       1.0  0.77768  0.43328  0.51626  1.0000
  Fe  Fe37      1.0  0.86187  0.43394  0.40528  1.0000
  S   S74       1.0  0.91919  0.47571  0.39522  1.0000
  Fe  Fe38      1.0  0.80161  0.35890  0.41445  1.0000
  S   S75       1.0  0.50026  0.34348  0.05475  1.0000
  S   S76       1.0  0.82372  0.45329  0.39971  1.0000
  S   S77       1.0  0.75912  0.37228  0.40933  1.0000
  H   H402      1.0  0.66349  0.36016  0.18451  1.0000
  C   C242      1.0  0.95734  0.47730  0.41615  1.0000
  C   C243      1.0  0.86555  0.49835  0.51418  1.0000
  C   C244      1.0  0.95574  0.45192  0.44453  1.0000
  H   H403      1.0  0.71068  0.39457  0.47087  1.0000
  H   H404      1.0  0.93055  0.42995  0.45360  1.0000
  H   H405      1.0  0.67152  0.32809  0.48444  1.0000
  H   H406      1.0  0.65681  0.37391  0.10507  1.0000
  H   H407      1.0  0.70409  0.39301  0.09970  1.0000
  H   H408      1.0  0.85566  0.36808  0.06524  1.0000
  H   H409      1.0  0.92316  0.42651  0.21560  1.0000
  H   H410      1.0  0.87564  0.40389  0.21702  1.0000
  S   S78       1.0  0.82794  0.42507  0.05085  1.0000
  H   H411      1.0  0.50725  0.47959  0.17653  1.0000
  C   C245      1.0  0.87140  0.35625  0.07530  1.0000
  H   H412      1.0  0.92220  0.40030  0.06099  1.0000
  H   H413      1.0  0.65292  0.37147  0.25528  1.0000
  H   H414      1.0  0.73601  0.35079  0.51551  1.0000
  C   C246      1.0  0.78650  0.36749  0.16682  1.0000
  C   C247      1.0  0.78023  0.39526  0.16476  1.0000
  C   C248      1.0  0.77841  0.41124  0.20335  1.0000
  C   C249      1.0  0.78251  0.39946  0.24396  1.0000
  C   C250      1.0  0.79141  0.37346  0.24574  1.0000
  C   C251      1.0  0.79335  0.35747  0.20722  1.0000
  H   H415      1.0  0.77555  0.40360  0.13363  1.0000
  H   H416      1.0  0.77320  0.43241  0.20204  1.0000
  H   H417      1.0  0.79514  0.36449  0.27684  1.0000
  H   H418      1.0  0.49023  0.42364  0.13914  1.0000
  C   C252      1.0  0.50326  0.50931  0.08881  1.0000
  C   C253      1.0  0.74478  0.50291  0.04670  1.0000
  H   H419      1.0  0.86012  0.40331  0.12384  1.0000
  S   S79       1.0  0.51975  0.32383  0.17486  1.0000
  H   H420      1.0  0.86816  0.36398  0.16368  1.0000
  C   C254      1.0  0.97001  0.50739  0.04694  1.0000
  H   H421      1.0  0.91707  0.52178  0.45346  1.0000
  N   N19       1.0  0.68625  0.41640  0.18125  1.0000
  C   C255      1.0  0.71577  0.44604  0.15632  1.0000
  C   C256      1.0  0.68500  0.38316  0.16772  1.0000
  C   C257      1.0  0.69427  0.42297  0.22942  1.0000
  C   C258      1.0  0.65274  0.41592  0.17006  1.0000
  C   C259      1.0  0.72402  0.48306  0.16873  1.0000
  C   C260      1.0  0.68042  0.37467  0.11864  1.0000
  C   C261      1.0  0.68100  0.39089  0.25956  1.0000
  C   C262      1.0  0.61864  0.38587  0.18923  1.0000
  H   H422      1.0  0.74049  0.44537  0.15950  1.0000
  H   H423      1.0  0.71024  0.44364  0.12100  1.0000
  H   H424      1.0  0.79889  0.33643  0.20882  1.0000
  H   H425      1.0  0.70951  0.38383  0.17781  1.0000
  H   H426      1.0  0.72320  0.43790  0.23510  1.0000
  H   H427      1.0  0.68426  0.43962  0.24278  1.0000
  H   H428      1.0  0.65375  0.44021  0.18105  1.0000
  H   H429      1.0  0.64933  0.41543  0.13417  1.0000
  H   H430      1.0  0.74740  0.50224  0.14986  1.0000
  H   H431      1.0  0.70234  0.48762  0.15973  1.0000
  H   H432      1.0  0.73049  0.48905  0.20364  1.0000
  H   H433      1.0  0.95798  0.45005  0.10225  1.0000
  C   C263      1.0  0.89702  0.45633  0.14090  1.0000
  H   H434      1.0  0.90852  0.36649  0.17172  1.0000
  H   H435      1.0  0.89772  0.45457  0.17670  1.0000
  H   H436      1.0  0.87627  0.46265  0.13312  1.0000
  H   H437      1.0  0.69684  0.37813  0.25477  1.0000
  H   H438      1.0  0.61367  0.36012  0.17817  1.0000
  H   H439      1.0  0.59619  0.38837  0.17755  1.0000
  H   H440      1.0  0.61819  0.38696  0.22520  1.0000
  H   H441      1.0  0.92245  0.36929  0.09731  1.0000
  H   H442      1.0  0.92214  0.47852  0.12883  1.0000
  H   H443      1.0  0.86370  0.52966  0.45980  1.0000
  H   H444      1.0  0.82670  0.51217  0.49535  1.0000
  C   C264      1.0  0.70577  0.40089  0.50317  1.0000
  Fe  Fe39      1.0  0.51587  0.40006  0.05632  1.0000
  H   H445      1.0  0.90329  0.46828  0.48755  1.0000
  H   H446      1.0  0.64956  0.37478  0.49496  1.0000
  C   C265      1.0  0.88841  0.42224  0.11756  1.0000
  C   C266      1.0  0.85574  0.52425  0.49460  1.0000
  H   H447      1.0  0.89045  0.42854  0.08220  1.0000
  H   H448      1.0  0.71505  0.52444  0.07440  1.0000
  N   N20       1.0  0.90406  0.51124  0.52171  1.0000
  H   H449      1.0  0.67710  0.34844  0.11371  1.0000
  C   C267      1.0  0.68198  0.47007  0.05970  1.0000
  C   C268      1.0  0.92594  0.53530  0.48529  1.0000
  C   C269      1.0  0.89658  0.38320  0.16785  1.0000
  H   H450      1.0  0.85416  0.47589  0.49128  1.0000
  H   H451      1.0  0.49208  0.40100  0.23618  1.0000
  H   H452      1.0  0.49857  0.38377  0.18702  1.0000
  H   H453      1.0  0.48291  0.45719  0.22392  1.0000
  C   C270      1.0  0.71399  0.50133  0.06139  1.0000
  H   H454      1.0  0.48561  0.34441  0.24725  1.0000
  H   H455      1.0  0.68481  0.39963  0.29403  1.0000
  H   H456      1.0  0.66949  0.31594  0.30874  1.0000
  C   C271      1.0  0.89900  0.40101  0.21178  1.0000
  H   H457      1.0  0.68317  0.31934  0.23077  1.0000
  C   C272      1.0  0.94863  0.43439  0.13283  1.0000
  Fe  Fe40      1.0  0.78640  0.36896  0.05578  1.0000
  S   S80       1.0  0.58331  0.36736  0.06964  1.0000
  C   C273      1.0  0.50352  0.47900  0.07624  1.0000
  H   H458      1.0  0.85695  0.33616  0.10056  1.0000
  H   H459      1.0  0.86681  0.54891  0.51284  1.0000
  H   H460      1.0  0.89997  0.38471  0.23857  1.0000
  C   C274      1.0  0.90866  0.38384  0.09009  1.0000
  H   H461      1.0  0.52045  0.45377  0.20599  1.0000
  H   H462      1.0  0.52621  0.53037  0.10413  1.0000
  H   H463      1.0  0.52655  0.47688  0.08197  1.0000
  C   C275      1.0  0.49707  0.45499  0.19538  1.0000
  H   H464      1.0  0.96746  0.40630  0.17382  1.0000
  C   C276      1.0  0.90903  0.48003  0.52067  1.0000
  H   H465      1.0  0.96927  0.52646  0.06804  1.0000
  H   H466      1.0  0.93670  0.48754  0.52749  1.0000
  C   C277      1.0  0.73387  0.42016  0.53127  1.0000
  H   H467      1.0  0.72894  0.32349  0.27966  1.0000
  H   H468      1.0  0.76939  0.52734  0.04789  1.0000
  S   S81       1.0  0.47441  0.55088  0.10005  1.0000
  C   C278      1.0  0.96593  0.55023  0.48839  1.0000
  H   H469      1.0  0.97316  0.52984  0.48507  1.0000
  H   H470      1.0  0.87357  0.34264  0.04618  1.0000
  C   C279      1.0  0.47387  0.45146  0.05697  1.0000
  C   C280      1.0  0.47806  0.38150  0.21020  1.0000
  C   C281      1.0  0.54876  0.56663  0.68061  1.0000
  H   H471      1.0  0.94155  0.53202  0.57507  1.0000
  C   C282      1.0  0.49588  0.57808  0.72656  1.0000
  Fe  Fe41      1.0  0.84441  0.40897  0.99045  1.0000
  S   S82       1.0  0.73286  0.34040  0.89891  1.0000
  H   H472      1.0  0.73598  0.33862  0.61518  1.0000
  Fe  Fe42      1.0  0.76716  0.36337  0.95904  1.0000
  S   S83       1.0  0.80941  0.41904  0.94733  1.0000
  C   C283      1.0  0.49596  0.59375  0.60606  1.0000
  H   H473      1.0  0.68754  0.42391  0.61888  1.0000
  C   C284      1.0  0.52682  0.60555  0.69911  1.0000
  S   S84       1.0  0.54557  0.33320  0.95035  1.0000
  Fe  Fe43      1.0  0.60122  0.41458  0.73124  1.0000
  S   S85       1.0  0.54446  0.39924  0.73345  1.0000
  S   S86       1.0  0.63112  0.43380  0.79411  1.0000
  Fe  Fe44      1.0  0.59936  0.39414  0.63638  1.0000
  S   S87       1.0  0.54192  0.37706  0.63174  1.0000
  S   S88       1.0  0.62014  0.38225  0.57441  1.0000
  Fe  Fe45      1.0  0.55435  0.42556  0.66856  1.0000
  S   S89       1.0  0.53060  0.45803  0.64525  1.0000
  Fe  Fe46      1.0  0.53680  0.35237  0.69690  1.0000
  H   H474      1.0  0.53464  0.39768  0.83127  1.0000
  S   S90       1.0  0.61261  0.44497  0.66845  1.0000
  S   S91       1.0  0.59277  0.36550  0.69948  1.0000
  C   C285      1.0  0.49914  0.46431  0.67370  1.0000
  H   H475      1.0  0.50283  0.35426  0.88988  1.0000
  H   H476      1.0  0.88896  0.55702  0.58323  1.0000
  H   H477      1.0  0.89766  0.51000  0.59159  1.0000
  C   C286      1.0  0.66432  0.39789  0.55868  1.0000
  H   H478      1.0  0.69468  0.46239  0.91679  1.0000
  H   H479      1.0  0.74114  0.51661  0.95243  1.0000
  H   H480      1.0  0.75468  0.37960  0.58825  1.0000
  H   H481      1.0  0.56673  0.57842  0.70890  1.0000
  S   S92       1.0  0.80404  0.35199  0.99656  1.0000
  C   C287      1.0  0.69246  0.41743  0.58668  1.0000
  S   S93       1.0  0.56119  0.41654  0.01041  1.0000
  C   C288      1.0  0.57035  0.36111  0.90735  1.0000
  C   C289      1.0  0.59840  0.39459  0.91549  1.0000
  C   C290      1.0  0.61707  0.41680  0.88060  1.0000
  C   C291      1.0  0.60805  0.40551  0.83751  1.0000
  C   C292      1.0  0.58018  0.37197  0.82943  1.0000
  C   C293      1.0  0.56131  0.34991  0.86423  1.0000
  H   H482      1.0  0.60569  0.40344  0.94864  1.0000
  H   H483      1.0  0.63810  0.44297  0.88699  1.0000
  H   H484      1.0  0.57277  0.36311  0.79630  1.0000
  C   C294      1.0  0.93875  0.48140  0.02763  1.0000
  H   H485      1.0  0.54854  0.53658  0.62292  1.0000
  H   H486      1.0  0.72797  0.45853  0.94382  1.0000
  H   H487      1.0  0.76169  0.40978  0.86664  1.0000
  C   C295      1.0  0.49696  0.37362  0.90463  1.0000
  C   C296      1.0  0.71199  0.44161  0.02907  1.0000
  H   H488      1.0  0.57389  0.53627  0.66742  1.0000
  H   H489      1.0  0.73758  0.52324  0.89595  1.0000
  H   H490      1.0  0.77267  0.35255  0.57753  1.0000
  H   H491      1.0  0.48902  0.59174  0.75151  1.0000
  H   H492      1.0  0.52018  0.38968  0.92505  1.0000
  C   C297      1.0  0.91534  0.52795  0.56584  1.0000
  H   H493      1.0  0.68369  0.40047  0.94037  1.0000
  H   H494      1.0  0.51868  0.62410  0.68771  1.0000
  H   H495      1.0  0.77380  0.51861  0.91621  1.0000
  Fe  Fe47      1.0  0.54826  0.36099  0.01298  1.0000
  N   N21       1.0  0.72909  0.45419  0.87381  1.0000
  C   C298      1.0  0.72270  0.46948  0.91431  1.0000
  C   C299      1.0  0.70200  0.41589  0.87295  1.0000
  C   C300      1.0  0.72358  0.47193  0.83525  1.0000
  C   C301      1.0  0.76631  0.46101  0.87504  1.0000
  C   C302      1.0  0.74769  0.35207  0.58397  1.0000
  C   C303      1.0  0.69872  0.39557  0.91510  1.0000
  C   C304      1.0  0.72423  0.45770  0.78979  1.0000
  C   C305      1.0  0.77396  0.43543  0.85017  1.0000
  H   H496      1.0  0.57414  0.61487  0.60644  1.0000
  H   H497      1.0  0.74866  0.44344  0.59494  1.0000
  H   H498      1.0  0.70682  0.40221  0.84603  1.0000
  H   H499      1.0  0.67555  0.41207  0.86605  1.0000
  H   H500      1.0  0.69791  0.47096  0.83842  1.0000
  H   H501      1.0  0.74388  0.50003  0.83411  1.0000
  H   H502      1.0  0.78504  0.48760  0.86261  1.0000
  H   H503      1.0  0.77481  0.46091  0.90921  1.0000
  H   H504      1.0  0.51935  0.56217  0.60234  1.0000
  H   H505      1.0  0.68390  0.36723  0.90826  1.0000
  H   H506      1.0  0.89061  0.42818  0.54665  1.0000
  H   H507      1.0  0.70588  0.42936  0.78668  1.0000
  H   H508      1.0  0.75123  0.46483  0.78007  1.0000
  H   H509      1.0  0.71540  0.47028  0.76563  1.0000
  H   H510      1.0  0.54893  0.62062  0.72205  1.0000
  H   H511      1.0  0.80271  0.44562  0.85023  1.0000
  H   H512      1.0  0.76544  0.43158  0.81589  1.0000
  H   H513      1.0  0.70154  0.34351  0.55088  1.0000
  Fe  Fe48      1.0  0.78914  0.42977  0.00874  1.0000
  C   C306      1.0  0.74537  0.50933  0.91929  1.0000
  H   H514      1.0  0.72475  0.40215  0.92823  1.0000
  C   C307      1.0  0.55698  0.44474  0.86916  1.0000
  C   C308      1.0  0.52579  0.41528  0.84450  1.0000
  H   H515      1.0  0.59108  0.57428  0.63425  1.0000
  N   N22       1.0  0.53898  0.59201  0.66187  1.0000
  H   H516      1.0  0.51603  0.61438  0.58488  1.0000
  S   S94       1.0  0.90063  0.42224  0.97683  1.0000
  C   C309      1.0  0.68078  0.44024  0.04268  1.0000
  C   C310      1.0  0.57132  0.62160  0.64060  1.0000
  C   C311      1.0  0.93937  0.45655  0.00036  1.0000
  C   C312      1.0  0.88655  0.45046  0.55324  1.0000
  C   C313      1.0  0.74404  0.47308  0.03108  1.0000
  H   H517      1.0  0.51006  0.46729  0.92019  1.0000
  H   H518      1.0  0.55276  0.46681  0.87572  1.0000
  C   C314      1.0  0.47846  0.41731  0.88645  1.0000
  H   H519      1.0  0.51082  0.45270  0.73729  1.0000
  C   C315      1.0  0.72707  0.42850  0.57298  1.0000
  C   C316      1.0  0.49516  0.46066  0.71898  1.0000
  H   H520      1.0  0.52522  0.54291  0.69341  1.0000
  H   H521      1.0  0.50255  0.56062  0.74465  1.0000
  C   C317      1.0  0.56657  0.55317  0.64895  1.0000
  H   H522      1.0  0.60562  0.31809  0.88366  1.0000
  H   H523      1.0  0.58062  0.45528  0.84788  1.0000
  H   H524      1.0  0.53899  0.32451  0.85754  1.0000
  H   H525      1.0  0.59558  0.62617  0.65764  1.0000
  H   H526      1.0  0.56373  0.43614  0.89955  1.0000
  S   S95       1.0  0.78345  0.47709  0.01190  1.0000
  C   C318      1.0  0.51032  0.57278  0.62889  1.0000
  H   H527      1.0  0.89468  0.45845  0.58739  1.0000
  H   H528      1.0  0.52212  0.42839  0.81589  1.0000
  S   S96       1.0  0.74553  0.37501  0.01927  1.0000
  C   C319      1.0  0.91539  0.56224  0.57313  1.0000
  C   C320      1.0  0.72190  0.33631  0.54557  1.0000
  H   H529      1.0  0.97239  0.43928  0.97104  1.0000
  H   H530      1.0  0.91425  0.48071  0.03368  1.0000
  H   H531      1.0  0.48767  0.54984  0.64413  1.0000
  H   H532      1.0  0.48519  0.60494  0.62940  1.0000
  H   H533      1.0  0.71120  0.41859  0.01641  1.0000
  H   H534      1.0  0.48077  0.43608  0.86081  1.0000
  H   H535      1.0  0.92456  0.57987  0.54467  1.0000
  H   H536      1.0  0.93439  0.57725  0.59931  1.0000
  H   H537      1.0  0.55644  0.31891  0.58887  1.0000
  N   N23       1.0  0.49190  0.39440  0.86941  1.0000
  H   H538      1.0  0.51517  0.43350  0.94389  1.0000
  C   C321      1.0  0.97161  0.45831  0.99219  1.0000
  H   H539      1.0  0.61383  0.32385  0.81181  1.0000
  H   H540      1.0  0.48188  0.47813  0.61536  1.0000
  C   C322      1.0  0.47909  0.47537  0.65039  1.0000
  H   H541      1.0  0.85803  0.44053  0.54983  1.0000
  C   C323      1.0  0.49616  0.43903  0.92784  1.0000
  H   H542      1.0  0.62420  0.32312  0.95633  1.0000
  H   H543      1.0  0.47843  0.39394  0.77360  1.0000
  H   H544      1.0  0.47581  0.43438  0.95258  1.0000
  H   H545      1.0  0.65610  0.41605  0.04098  1.0000
  H   H546      1.0  0.85023  0.48821  0.54496  1.0000
  H   H547      1.0  0.47391  0.57600  0.58458  1.0000
  H   H548      1.0  0.57070  0.89759  0.20178  1.0000
  H   H549      1.0  0.58692  0.92236  0.25154  1.0000
  C   C324      1.0  0.53458  0.91516  0.30448  1.0000
  H   H550      1.0  0.54605  0.94879  0.22129  1.0000
  H   H551      1.0  0.49444  0.85499  0.22291  1.0000
  H   H552      1.0  0.50986  0.82012  0.26553  1.0000
  C   C325      1.0  0.50093  0.86354  0.25741  1.0000
  C   C326      1.0  0.52286  0.84802  0.27495  1.0000
  C   C327      1.0  0.53987  0.92125  0.22316  1.0000
  C   C328      1.0  0.57456  0.92091  0.21979  1.0000
  H   H553      1.0  0.51574  0.90170  0.33172  1.0000
  C   C329      1.0  0.55244  0.95472  0.31234  1.0000
  H   H554      1.0  0.52364  0.84856  0.31111  1.0000
  N   N24       1.0  0.51624  0.90242  0.26130  1.0000
  H   H555      1.0  0.52600  0.90989  0.19202  1.0000
  H   H556      1.0  0.59419  0.94453  0.20188  1.0000
  H   H557      1.0  0.54980  0.86081  0.26166  1.0000
  H   H558      1.0  0.55527  0.90839  0.30942  1.0000
  H   H559      1.0  0.49565  0.93783  0.26116  1.0000
  H   H560      1.0  0.57320  0.96982  0.28788  1.0000
  H   H561      1.0  0.56523  0.96068  0.34479  1.0000
  H   H562      1.0  0.53341  0.96398  0.31336  1.0000
  H   H563      1.0  0.47558  0.84951  0.27545  1.0000
  C   C330      1.0  0.48610  0.90944  0.26069  1.0000
  H   H564      1.0  0.47416  0.90678  0.19029  1.0000
  C   C331      1.0  0.50606  0.97062  0.72779  1.0000
  H   H565      1.0  0.51946  0.76961  0.71482  1.0000
  H   H566      1.0  0.50221  0.74258  0.87757  1.0000
  H   H567      1.0  0.47640  0.74201  0.62115  1.0000
  H   H568      1.0  0.51782  0.71634  0.68860  1.0000
  H   H569      1.0  0.49707  0.77307  0.84326  1.0000
  C   C332      1.0  0.48907  0.74538  0.84842  1.0000
  C   C333      1.0  0.49408  0.71483  0.70090  1.0000
  H   H570      1.0  0.52952  0.97099  0.71659  1.0000
  H   H571      1.0  0.59631  0.67540  0.61794  1.0000
  H   H572      1.0  0.55044  0.65731  0.62801  1.0000
  C   C334      1.0  0.49497  0.74503  0.71549  1.0000
  H   H573      1.0  0.49920  0.73776  0.81985  1.0000
  H   H574      1.0  0.58064  0.66977  0.67271  1.0000
  C   C335      1.0  0.47586  0.93856  0.73799  1.0000
  H   H575      1.0  0.47614  0.91452  0.73452  1.0000
  C   C336      1.0  0.57433  0.65779  0.63982  1.0000
  H   H576      1.0  0.47963  0.94479  0.63903  1.0000
