data_image0
_chemical_formula_structural       CSCH2CSFeSHSH2CH2SHSNCHCHCH2CHCFeSH4CH2CH5C4FeH3CSC4H2CHSH4SH2CH2CH2C3H2C4H2CH2CFeCHSHFeHCHSCH3C2H2Fe2C2H10CH4C2SC2H5FeH2FeH2SH2SH2SHFeCHSH3CH2FeHSH3CH2CH2CHSCHCSC2HCNHCHC4H5C2HC2FeCH6CSCH3FeHC2H3C4HNSHSCH2CH2SCHSC2HCHSH2C3H3CHFeSCH5C2HSH3FeS2FeS2FeSFeS3FeS2FeSFeSHC5SHNH2C6H10C2H2C3H4SHSCS2CHFeSH2CH4C3H6SCH3NC3HC2H8CH4CH4CH3CHCH2C2H3CHSHC2H4FeH2CHC2HC2FeNC5HC2H12C2H6SH3CH3CSCSH4CHSHCHC2HC2H2NC2FeCH2C2H4CH2C2H2CFeCH3CH3CH8SHC3FeHSH4NHCHCH2CH2CS2FeSHFeS2FeS2FeHFeS3HCH2CH3C2H4CH2SHC2HC2H3C5H5CH2C5H2C6H3FeS2FeSFeS2FeHSFeH3CHS2H3CHCH3C6H2NC2H3CHCH8CSCH4CH4NC3H13C2H4CH3FeH3CH8C5H2NH2CHNH2C3SNH3C2H2CHCH2C3HNCH2CHCH2CH4CH2CHCHCSH2SH2C2H4CHC3H2CHCH2C2H3CH3CFeSCH2C3NHCH2CHSHFeS2FeSFeS2HFeSFeS2FeSFeS5H2SHFeSFeSHC7H4C2H3CH3NC6H4FeH2CHFeHCHCHCH7CHC3H3CHNH5C3HCH5CH3CHSH2CH2CSH2CHCH2SH3CHNHCH5CHCH3C3HC2SCH2C2HSC3HCHCH3C3H3CH2C2H4CNH2C2H3CHCNH7NC8H20CHC2HCHC2HCH2FeC2HCH3CNH6C3H3NS2FeSHFeS2FeSHFeSFeS3HFeH2SHFeS2H2CFeHC3SC2HC6H5CHCHCH2CH2SHS2H2C2HC3H6C2HCH2C6SH2NC8H12SH8NC6HCH6NH6C2HCH4CFeHSHFeH4CHC3HCHCHFeHC3HCHCH4SHC5HCHSCH5NH2C2HCH6CH4CNH2C2H2FeH4C2H3SH2CH2C3FeHSNC2HCH2CH7CHCHCH4C2H3CH3CH4SCS2H5CH3SHSC2SFeSH6CSCSNFeH2SHC3HNHCHCH2C3H2C3SH3C2H2C3HC2H3CSCH3CSFeC2H3C2H5FeSC3H2C4SH5NH2CH2CHCH2CHNC8H8CHFeSCH10FeH5CH2FeH4C3H3C3SCSH3CSH4C2H2CHC2H3FeHC2HSHCHSHS2HFeH5C2H5SH2SCH6C4HS2H5FeC2HFeHCHFeC2HCH2SCHSHC2HCHCHCHSCFeCNCNHNH3SC2SH2CH5SCFeH3FeS2FeS2FeSFeS3FeS2FeSFeS2C2HCSH5C6H9SCH3C3H4C2SHSH2SFeSHC2FeC2HC3H3CSHCHCSFeNC4H2C2H2CH7CHCH3CH6CHC2HCH2CH2CSNH3CH2NH14C2H3SHCHCH2C2HCH3CSFeH4C2H7CH3C2HC2H2FeC3H2CHCNC5HCH2CH9CSH4CHNHCH3CHCHCH3CSH2SNC3H5CH6C3FeC2H2CHC2HNH2CH2CHCH2C3H3CH2NS2FeSCFeS2FeS2FeCFeS3C3NC2HC2H2CHC2HSC2H4CH5CHC6H2CHC2H2CHC6H3FeS2FeSFeS2FeHSFeH3CHS2H9C6H2C5SHNC2H4SHNH4NH2CHSH2CHCH7CHC2HCH10FeCH6CH2SH4C3H4NH3C4H6CHCHC2HCHC2HCH2C3HC2HCFeH2CH11CHC2HSH4CH5CH2CH3CHNH2C2H5CHCH3CH3CH2C2H2CSCFeSHFeSFeSHSFeSFeS2FeSFeS3CSHCSHFeSFeSCHC6H4C2HC3H3C7H5CH3C2H3NC2H2CH6SFeH5CH2C3HCH2C2HC2HCHSHSCH6CHFeH6CHSCH2C2HC2HCHCHNCNCHC2H4CH4CH10CSCHCH4CHC3HFeHCH4CSHCH2CH3CHCSH8C3HCHCHCHCH2NH2C2H2NSH6C2H6CH2C3HC2HCHNH9CHCH5CH2CHCS2FeSCFeSCFeSHFeSFeS3CH3SH2SH2CHSHC5H2C6H7CH3Fe2H2CH3CHC6H4CHC2H2CHC2FeC4H2NC5SC2H2SNH8C3H4FeHSH2CHCH3CHFeH3NH2SC2FeCH3C2H2CH5C3H6CHCH2CHC2H3CHCHCH5CHCHCHCNCH4CS2HSH2SHFeHNC2HSHC3HCH4FeH6C2H3CH2CH3SH2CNH3CH2CH3CHNC2SH2CH7CHCNH6CHC
_chemical_formula_sum              "C896 S256 H1536 Fe128 N64"
_cell_length_a       48.785
_cell_length_b       48.6996
_cell_length_c       43.8995
_cell_angle_alpha    84.724
_cell_angle_beta     84.3436
_cell_angle_gamma    92.0577

_space_group_name_H-M_alt    "P 1"
_space_group_IT_number       1

loop_
  _space_group_symop_operation_xyz
  'x, y, z'

loop_
  _atom_site_type_symbol
  _atom_site_label
  _atom_site_symmetry_multiplicity
  _atom_site_fract_x
  _atom_site_fract_y
  _atom_site_fract_z
  _atom_site_occupancy
  C   C1        1.0  0.43511  0.99894  0.28596  1.0000
  S   S1        1.0  0.02322  0.03193  0.17335  1.0000
  C   C2        1.0  0.46521  0.21387  0.22734  1.0000
  H   H1        1.0  0.01548  0.20720  0.17426  1.0000
  H   H2        1.0  0.43572  0.30559  0.40948  1.0000
  C   C3        1.0  0.00324  0.06853  0.07777  1.0000
  S   S2        1.0  0.02168  0.08648  0.10272  1.0000
  Fe  Fe1       1.0  0.03407  0.05512  0.21270  1.0000
  S   S3        1.0  0.07412  0.04372  0.23116  1.0000
  H   H3        1.0  0.39312  0.01933  0.31463  1.0000
  S   S4        1.0  0.49371  0.05721  0.23481  1.0000
  H   H4        1.0  0.44215  0.00601  0.33357  1.0000
  H   H5        1.0  0.42528  0.30023  0.37167  1.0000
  C   C4        1.0  0.45502  0.18630  0.22956  1.0000
  H   H6        1.0  0.03593  0.07372  0.04068  1.0000
  H   H7        1.0  0.05334  0.24260  0.15119  1.0000
  S   S5        1.0  0.45438  0.99838  0.19997  1.0000
  H   H8        1.0  0.28105  0.32222  0.37386  1.0000
  S   S6        1.0  0.44044  0.28638  0.18831  1.0000
  N   N1        1.0  0.46536  0.20324  0.12502  1.0000
  C   C5        1.0  0.47410  0.07378  0.08253  1.0000
  H   H9        1.0  0.47899  0.14668  0.11447  1.0000
  C   C6        1.0  0.44668  0.19306  0.10272  1.0000
  H   H10       1.0  0.11599  0.01282  0.32444  1.0000
  C   C7        1.0  0.07615  0.02912  0.33524  1.0000
  H   H11       1.0  0.45118  0.21852  0.05826  1.0000
  H   H12       1.0  0.43638  0.05547  0.07008  1.0000
  C   C8        1.0  0.05343  0.04134  0.32321  1.0000
  H   H13       1.0  0.38562  0.03085  0.26614  1.0000
  C   C9        1.0  0.45175  0.22426  0.14401  1.0000
  Fe  Fe2       1.0  0.48105  0.03767  0.19382  1.0000
  S   S7        1.0  0.07720  0.02485  0.37528  1.0000
  H   H14       1.0  0.36179  0.29814  0.33264  1.0000
  H   H15       1.0  0.37914  0.29731  0.27773  1.0000
  H   H16       1.0  0.02176  0.15483  0.15007  1.0000
  H   H17       1.0  0.46447  0.08057  0.10359  1.0000
  C   C10       1.0  0.49106  0.21647  0.10702  1.0000
  H   H18       1.0  0.45293  0.16818  0.15829  1.0000
  H   H19       1.0  0.99759  0.17876  0.02370  1.0000
  C   C11       1.0  0.47044  0.05086  0.03604  1.0000
  H   H20       1.0  0.41595  0.20882  0.07341  1.0000
  H   H21       1.0  0.42044  0.19651  0.17265  1.0000
  H   H22       1.0  0.44203  0.28162  0.04258  1.0000
  H   H23       1.0  0.03794  0.12395  0.03327  1.0000
  H   H24       1.0  0.42851  0.18063  0.11477  1.0000
  C   C12       1.0  0.99984  0.05320  0.02699  1.0000
  C   C13       1.0  0.09819  0.02176  0.31525  1.0000
  C   C14       1.0  0.09773  0.02724  0.28333  1.0000
  C   C15       1.0  0.07480  0.03906  0.27128  1.0000
  Fe  Fe3       1.0  0.01011  0.07255  0.15289  1.0000
  H   H25       1.0  0.11513  0.02232  0.26789  1.0000
  H   H26       1.0  0.45170  0.24482  0.13065  1.0000
  H   H27       1.0  0.34869  0.99657  0.34056  1.0000
  C   C16       1.0  0.46345  0.28101  0.04704  1.0000
  S   S8        1.0  0.02479  0.09662  0.18995  1.0000
  C   C17       1.0  0.49363  0.21996  0.22260  1.0000
  C   C18       1.0  0.46966  0.32921  0.33872  1.0000
  C   C19       1.0  0.00271  0.15321  0.13843  1.0000
  C   C20       1.0  0.48941  0.15679  0.13205  1.0000
  H   H28       1.0  0.46380  0.22824  0.16353  1.0000
  H   H29       1.0  0.43303  0.18167  0.23372  1.0000
  C   C21       1.0  0.45818  0.05974  0.06343  1.0000
  H   H30       1.0  0.48609  0.11586  0.30369  1.0000
  S   S9        1.0  0.46829  0.07738  0.17030  1.0000
  H   H31       1.0  0.49234  0.14026  0.15043  1.0000
  H   H32       1.0  0.03500  0.05539  0.28220  1.0000
  H   H33       1.0  0.02723  0.19486  0.06094  1.0000
  H   H34       1.0  0.43386  0.23554  0.08879  1.0000
  S   S10       1.0  0.47443  0.32790  0.22861  1.0000
  H   H35       1.0  0.03400  0.24982  0.11891  1.0000
  H   H36       1.0  0.03863  0.99658  0.09354  1.0000
  C   C22       1.0  0.02931  0.20168  0.08405  1.0000
  H   H37       1.0  0.45113  0.23035  0.23000  1.0000
  H   H38       1.0  0.20349  0.01291  0.46474  1.0000
  C   C23       1.0  0.01501  0.06596  0.04780  1.0000
  H   H39       1.0  0.43298  0.02138  0.27963  1.0000
  H   H40       1.0  0.99818  0.29779  0.10858  1.0000
  C   C24       1.0  0.42431  0.31408  0.39040  1.0000
  C   C25       1.0  0.00032  0.18769  0.23399  1.0000
  C   C26       1.0  0.38020  0.31642  0.28846  1.0000
  H   H41       1.0  0.03596  0.28449  0.07164  1.0000
  H   H42       1.0  0.00652  0.14387  0.23603  1.0000
  C   C27       1.0  0.42196  0.21649  0.15818  1.0000
  C   C28       1.0  0.43660  0.21535  0.07952  1.0000
  C   C29       1.0  0.00065  0.20948  0.09820  1.0000
  C   C30       1.0  0.47310  0.16475  0.22631  1.0000
  H   H43       1.0  0.40744  0.21610  0.14030  1.0000
  H   H44       1.0  0.41496  0.23244  0.17336  1.0000
  C   C31       1.0  0.38998  0.99647  0.31651  1.0000
  H   H45       1.0  0.03893  0.18480  0.09714  1.0000
  H   H46       1.0  0.04367  0.22018  0.07964  1.0000
  C   C32       1.0  0.47167  0.29043  0.07407  1.0000
  Fe  Fe4       1.0  0.43388  0.32674  0.20855  1.0000
  C   C33       1.0  0.05255  0.04593  0.29128  1.0000
  H   H47       1.0  0.49076  0.02030  0.08991  1.0000
  S   S11       1.0  0.45958  0.13048  0.22868  1.0000
  H   H48       1.0  0.00044  0.13714  0.06142  1.0000
  Fe  Fe5       1.0  0.45943  0.31246  0.14619  1.0000
  H   H49       1.0  0.44471  0.00632  0.13303  1.0000
  C   C34       1.0  0.01488  0.28348  0.06596  1.0000
  H   H50       1.0  0.03652  0.04736  0.33867  1.0000
  S   S12       1.0  0.44701  0.30389  0.09971  1.0000
  C   C35       1.0  0.03234  0.24176  0.14345  1.0000
  H   H51       1.0  0.47954  0.31837  0.39710  1.0000
  H   H52       1.0  0.48578  0.23444  0.09164  1.0000
  H   H53       1.0  0.49018  0.00301  0.12734  1.0000
  C   C36       1.0  0.37013  0.31697  0.31943  1.0000
  C   C37       1.0  0.00912  0.27479  0.03765  1.0000
  H   H54       1.0  0.34910  0.00111  0.29967  1.0000
  H   H55       1.0  0.44866  0.00097  0.07711  1.0000
  Fe  Fe6       1.0  0.48272  0.28979  0.20417  1.0000
  Fe  Fe7       1.0  0.48539  0.09758  0.20875  1.0000
  C   C38       1.0  0.47207  0.17906  0.14654  1.0000
  C   C39       1.0  0.38922  0.01639  0.24832  1.0000
  H   H56       1.0  0.37044  0.01637  0.23592  1.0000
  H   H57       1.0  0.40229  0.31405  0.39981  1.0000
  H   H58       1.0  0.03726  0.19822  0.14299  1.0000
  H   H59       1.0  0.40707  0.02483  0.23204  1.0000
  H   H60       1.0  0.02167  0.19302  0.23644  1.0000
  H   H61       1.0  0.99879  0.23147  0.08976  1.0000
  H   H62       1.0  0.00606  0.00414  0.08235  1.0000
  H   H63       1.0  0.45736  0.17823  0.08837  1.0000
  H   H64       1.0  0.48327  0.18624  0.16532  1.0000
  H   H65       1.0  0.47242  0.00855  0.30688  1.0000
  C   C40       1.0  0.02025  0.21182  0.14898  1.0000
  H   H66       1.0  0.46981  0.30717  0.34811  1.0000
  H   H67       1.0  0.00761  0.15094  0.11366  1.0000
  H   H68       1.0  0.01980  0.25558  0.15736  1.0000
  H   H69       1.0  0.45089  0.31107  0.30181  1.0000
  C   C41       1.0  0.48279  0.27078  0.02569  1.0000
  C   C42       1.0  0.45245  0.99681  0.31351  1.0000
  S   S13       1.0  0.42469  0.00760  0.73241  1.0000
  C   C43       1.0  0.05655  0.20213  0.82133  1.0000
  C   C44       1.0  0.99968  0.18160  0.89038  1.0000
  H   H70       1.0  0.46421  0.01826  0.77413  1.0000
  H   H71       1.0  0.07345  0.16168  0.83562  1.0000
  H   H72       1.0  0.17250  0.28121  0.78679  1.0000
  H   H73       1.0  0.10573  0.25206  0.74754  1.0000
  H   H74       1.0  0.45187  0.15686  0.83740  1.0000
  Fe  Fe8       1.0  0.44994  0.01869  0.90150  1.0000
  H   H75       1.0  0.05922  0.14073  0.00064  1.0000
  H   H76       1.0  0.12978  0.24051  0.77452  1.0000
  Fe  Fe9       1.0  0.46731  0.02742  0.96502  1.0000
  H   H77       1.0  0.12542  0.22293  0.74146  1.0000
  H   H78       1.0  0.48418  0.19208  0.00623  1.0000
  S   S14       1.0  0.11321  0.28172  0.88216  1.0000
  H   H79       1.0  0.48495  0.31266  0.82133  1.0000
  H   H80       1.0  0.45786  0.13405  0.77649  1.0000
  S   S15       1.0  0.45508  0.05647  0.92655  1.0000
  H   H81       1.0  0.03513  0.25368  0.80518  1.0000
  H   H82       1.0  0.09714  0.19270  0.77458  1.0000
  S   S16       1.0  0.05158  0.24286  0.93000  1.0000
  H   H83       1.0  0.42831  0.13627  0.80295  1.0000
  Fe  Fe10      1.0  0.06886  0.28119  0.90121  1.0000
  C   C45       1.0  0.46460  0.12631  0.98359  1.0000
  H   H84       1.0  0.03939  0.19251  0.90424  1.0000
  S   S17       1.0  0.03617  0.26439  0.01263  1.0000
  H   H85       1.0  0.11362  0.18919  0.82215  1.0000
  H   H86       1.0  0.42963  0.10744  0.75039  1.0000
  H   H87       1.0  0.15869  0.26869  0.84209  1.0000
  C   C46       1.0  0.42419  0.08516  0.79707  1.0000
  H   H88       1.0  0.42078  0.06308  0.80608  1.0000
  H   H89       1.0  0.05556  0.14481  0.90575  1.0000
  Fe  Fe11      1.0  0.01419  0.24881  0.90483  1.0000
  H   H90       1.0  0.00081  0.32328  0.99682  1.0000
  S   S18       1.0  0.03313  0.28471  0.87308  1.0000
  H   H91       1.0  0.05662  0.28445  0.79847  1.0000
  H   H92       1.0  0.07316  0.25194  0.83812  1.0000
  H   H93       1.0  0.08482  0.18998  0.87235  1.0000
  C   C47       1.0  0.47365  0.15582  0.89773  1.0000
  H   H94       1.0  0.03982  0.20808  0.80690  1.0000
  H   H95       1.0  0.45999  0.01913  0.83084  1.0000
  C   C48       1.0  0.44231  0.01324  0.81964  1.0000
  H   H96       1.0  0.45180  0.15798  0.90354  1.0000
  H   H97       1.0  0.47092  0.11154  0.90535  1.0000
  C   C49       1.0  0.15466  0.29023  0.79789  1.0000
  H   H98       1.0  0.08020  0.02831  0.84786  1.0000
  S   S19       1.0  0.03084  0.09424  0.89164  1.0000
  C   C50       1.0  0.41684  0.00707  0.83688  1.0000
  H   H99       1.0  0.40391  0.07975  0.75590  1.0000
  C   C51       1.0  0.47447  0.08564  0.79443  1.0000
  S   S20       1.0  0.05321  0.30992  0.93525  1.0000
  C   C52       1.0  0.02583  0.17596  0.89911  1.0000
  C   C53       1.0  0.48488  0.13448  0.00641  1.0000
  H   H100      1.0  0.47797  0.31891  0.78234  1.0000
  C   C54       1.0  0.11420  0.23375  0.75976  1.0000
  N   N2        1.0  0.44913  0.09797  0.80925  1.0000
  H   H101      1.0  0.07354  0.00232  0.75451  1.0000
  C   C55       1.0  0.44651  0.08995  0.84348  1.0000
  H   H102      1.0  0.04883  0.20690  0.84489  1.0000
  C   C56       1.0  0.44970  0.12883  0.80102  1.0000
  C   C57       1.0  0.42176  0.00527  0.77270  1.0000
  C   C58       1.0  0.42015  0.09898  0.86155  1.0000
  C   C59       1.0  0.05602  0.26198  0.79575  1.0000
  H   H103      1.0  0.05535  0.00247  0.86511  1.0000
  H   H104      1.0  0.00434  0.21466  0.98334  1.0000
  H   H105      1.0  0.12449  0.22411  0.82299  1.0000
  H   H106      1.0  0.46414  0.09800  0.85445  1.0000
  H   H107      1.0  0.44705  0.06709  0.84831  1.0000
  C   C60       1.0  0.00293  0.19342  0.97609  1.0000
  C   C61       1.0  0.49106  0.17941  0.88960  1.0000
  H   H108      1.0  0.01584  0.11041  0.99204  1.0000
  C   C62       1.0  0.12331  0.29388  0.84363  1.0000
  C   C63       1.0  0.46609  0.14713  0.82063  1.0000
  Fe  Fe12      1.0  0.03258  0.27196  0.96181  1.0000
  C   C64       1.0  0.11649  0.32053  0.79538  1.0000
  H   H109      1.0  0.40189  0.08594  0.85774  1.0000
  H   H110      1.0  0.42236  0.09602  0.88657  1.0000
  H   H111      1.0  0.41630  0.12104  0.85582  1.0000
  H   H112      1.0  0.07242  0.21667  0.76363  1.0000
  H   H113      1.0  0.01368  0.00387  0.80814  1.0000
  H   H114      1.0  0.06180  0.16428  0.79760  1.0000
  C   C65       1.0  0.44466  0.01275  0.78755  1.0000
  S   S21       1.0  0.48533  0.27002  0.93852  1.0000
  C   C66       1.0  0.13968  0.30894  0.78088  1.0000
  H   H115      1.0  0.09257  0.22649  0.87237  1.0000
  H   H116      1.0  0.46988  0.10646  0.97437  1.0000
  H   H117      1.0  0.46372  0.14253  0.96435  1.0000
  Fe  Fe13      1.0  0.01580  0.31069  0.90934  1.0000
  H   H118      1.0  0.05936  0.25992  0.77076  1.0000
  C   C67       1.0  0.07859  0.24861  0.81363  1.0000
  C   C68       1.0  0.14682  0.28314  0.82919  1.0000
  H   H119      1.0  0.47428  0.14915  0.02079  1.0000
  H   H120      1.0  0.47246  0.06275  0.79804  1.0000
  H   H121      1.0  0.11920  0.20265  0.87441  1.0000
  C   C69       1.0  0.09991  0.20713  0.86376  1.0000
  C   C70       1.0  0.09071  0.21419  0.77677  1.0000
  C   C71       1.0  0.42465  0.08634  0.76177  1.0000
  C   C72       1.0  0.03493  0.14893  0.90001  1.0000
  H   H122      1.0  0.09796  0.26112  0.80657  1.0000
  N   N3        1.0  0.08296  0.21856  0.81006  1.0000
  S   S22       1.0  0.01671  0.03072  0.94628  1.0000
  H   H123      1.0  0.09109  0.00079  0.80327  1.0000
  S   S23       1.0  0.45043  0.03125  0.01404  1.0000
  C   C73       1.0  0.10622  0.20950  0.82841  1.0000
  H   H124      1.0  0.03758  0.16077  0.83098  1.0000
  H   H125      1.0  0.43915  0.07156  0.75204  1.0000
  C   C74       1.0  0.01763  0.12722  0.89316  1.0000
  H   H126      1.0  0.40502  0.09515  0.80530  1.0000
  H   H127      1.0  0.05754  0.01373  0.80620  1.0000
  S   S24       1.0  0.47690  0.21201  0.88839  1.0000
  C   C75       1.0  0.05790  0.17051  0.82124  1.0000
  H   H128      1.0  0.00974  0.32153  0.76745  1.0000
  S   S25       1.0  0.14910  0.31478  0.74105  1.0000
  C   C76       1.0  0.49071  0.19306  0.98136  1.0000
  C   C77       1.0  0.07438  0.00592  0.84922  1.0000
  H   H129      1.0  0.02553  0.14028  0.96784  1.0000
  C   C78       1.0  0.03841  0.14004  0.01359  1.0000
  H   H130      1.0  0.02429  0.18747  0.96963  1.0000
  S   S26       1.0  0.41270  0.00973  0.87673  1.0000
  H   H131      1.0  0.00905  0.05143  0.00396  1.0000
  H   H132      1.0  0.44354  0.12298  0.99585  1.0000
  C   C79       1.0  0.39406  0.99909  0.82208  1.0000
  C   C80       1.0  0.48444  0.12949  0.89867  1.0000
  C   C81       1.0  0.49447  0.32066  0.79789  1.0000
  H   H133      1.0  0.48215  0.13683  0.83287  1.0000
  H   H134      1.0  0.99899  0.32554  0.83985  1.0000
  H   H135      1.0  0.47680  0.09100  0.76910  1.0000
  C   C82       1.0  0.01667  0.13331  0.99180  1.0000
  H   H136      1.0  0.08992  0.32113  0.83794  1.0000
  Fe  Fe14      1.0  0.00313  0.05610  0.90570  1.0000
  S   S27       1.0  0.00095  0.02022  0.87712  1.0000
  C   C83       1.0  0.10806  0.31271  0.82679  1.0000
  H   H137      1.0  0.47624  0.26333  0.00503  1.0000
  H   H138      1.0  0.47235  0.19165  0.96836  1.0000
  H   H139      1.0  0.47678  0.16461  0.80547  1.0000
  H   H140      1.0  0.03657  0.99646  0.76111  1.0000
  H   H141      1.0  0.04551  0.32753  0.99979  1.0000
  C   C84       1.0  0.39656  0.99790  0.79006  1.0000
  C   C85       1.0  0.07041  0.99787  0.81671  1.0000
  H   H142      1.0  0.03680  0.16055  0.02221  1.0000
  S   S28       1.0  0.49357  0.02067  0.87970  1.0000
  H   H143      1.0  0.48684  0.11590  0.02265  1.0000
  H   H144      1.0  0.99646  0.29651  0.81859  1.0000
  H   H145      1.0  0.30213  0.42545  0.28387  1.0000
  Fe  Fe15      1.0  0.09822  0.48769  0.39321  1.0000
  S   S29       1.0  0.09948  0.44732  0.37239  1.0000
  S   S30       1.0  0.08310  0.52667  0.36990  1.0000
  Fe  Fe16      1.0  0.10925  0.46153  0.45664  1.0000
  S   S31       1.0  0.11007  0.41906  0.44098  1.0000
  S   S32       1.0  0.11528  0.47240  0.50460  1.0000
  Fe  Fe17      1.0  0.13594  0.43945  0.39932  1.0000
  S   S33       1.0  0.17288  0.41544  0.38393  1.0000
  Fe  Fe18      1.0  0.07379  0.43099  0.41575  1.0000
  S   S34       1.0  0.03619  0.40309  0.41386  1.0000
  S   S35       1.0  0.13715  0.48158  0.41633  1.0000
  S   S36       1.0  0.07056  0.47162  0.43538  1.0000
  Fe  Fe19      1.0  0.35426  0.40445  0.45500  1.0000
  S   S37       1.0  0.35910  0.44853  0.43451  1.0000
  S   S38       1.0  0.35898  0.42433  0.36698  1.0000
  Fe  Fe20      1.0  0.39008  0.43278  0.39979  1.0000
  S   S39       1.0  0.43011  0.45532  0.38017  1.0000
  Fe  Fe21      1.0  0.32747  0.43573  0.40395  1.0000
  S   S40       1.0  0.29366  0.46438  0.39314  1.0000
  H   H146      1.0  0.16804  0.40685  0.46350  1.0000
  C   C86       1.0  0.00690  0.42056  0.40425  1.0000
  C   C87       1.0  0.00756  0.44938  0.39934  1.0000
  C   C88       1.0  0.30779  0.42387  0.30770  1.0000
  C   C89       1.0  0.99582  0.39619  0.31570  1.0000
  C   C90       1.0  0.47244  0.55699  0.03206  1.0000
  S   S41       1.0  0.35259  0.38924  0.50522  1.0000
  H   H147      1.0  0.02658  0.46125  0.39998  1.0000
  N   N4        1.0  0.28590  0.37420  0.31211  1.0000
  H   H148      1.0  0.43945  0.41279  0.42858  1.0000
  H   H149      1.0  0.16847  0.44885  0.47857  1.0000
  C   C91       1.0  0.20619  0.42943  0.38682  1.0000
  C   C92       1.0  0.22787  0.41155  0.38974  1.0000
  C   C93       1.0  0.25475  0.42200  0.39208  1.0000
  C   C94       1.0  0.26013  0.45048  0.39099  1.0000
  C   C95       1.0  0.23844  0.46837  0.38803  1.0000
  C   C96       1.0  0.21151  0.45789  0.38607  1.0000
  H   H150      1.0  0.22371  0.38949  0.39076  1.0000
  H   H151      1.0  0.27125  0.40804  0.39463  1.0000
  H   H152      1.0  0.24249  0.49045  0.38710  1.0000
  H   H153      1.0  0.19496  0.47186  0.38350  1.0000
  H   H154      1.0  0.38030  0.38549  0.32597  1.0000
  H   H155      1.0  0.43796  0.47412  0.13299  1.0000
  H   H156      1.0  0.48849  0.37979  0.33487  1.0000
  H   H157      1.0  0.02755  0.45025  0.07767  1.0000
  H   H158      1.0  0.17474  0.39229  0.50162  1.0000
  H   H159      1.0  0.25671  0.34836  0.36941  1.0000
  C   C97       1.0  0.45908  0.42103  0.41750  1.0000
  C   C98       1.0  0.42719  0.55864  0.27122  1.0000
  H   H160      1.0  0.01992  0.43513  0.20002  1.0000
  H   H161      1.0  0.25337  0.38970  0.34194  1.0000
  C   C99       1.0  0.07735  0.52699  0.33090  1.0000
  C   C100      1.0  0.05388  0.54603  0.28766  1.0000
  C   C101      1.0  0.05845  0.54505  0.31887  1.0000
  H   H162      1.0  0.03926  0.55995  0.27855  1.0000
  H   H163      1.0  0.04738  0.55834  0.33374  1.0000
  H   H164      1.0  0.03085  0.45267  0.49873  1.0000
  H   H165      1.0  0.11587  0.41277  0.50473  1.0000
  S   S42       1.0  0.38771  0.38963  0.42258  1.0000
  H   H166      1.0  0.30123  0.39600  0.34823  1.0000
  S   S43       1.0  0.01157  0.53279  0.17108  1.0000
  C   C102      1.0  0.06406  0.41498  0.31295  1.0000
  S   S44       1.0  0.02044  0.59428  0.19497  1.0000
  S   S45       1.0  0.45411  0.50002  0.19590  1.0000
  C   C103      1.0  0.27867  0.34380  0.36420  1.0000
  H   H167      1.0  0.03385  0.52314  0.09634  1.0000
  Fe  Fe22      1.0  0.02607  0.55009  0.21264  1.0000
  S   S46       1.0  0.06343  0.52977  0.22910  1.0000
  H   H168      1.0  0.48664  0.59500  0.32142  1.0000
  H   H169      1.0  0.41858  0.57931  0.26698  1.0000
  C   C104      1.0  0.46074  0.55978  0.06200  1.0000
  H   H170      1.0  0.02438  0.40322  0.27509  1.0000
  H   H171      1.0  0.48425  0.63084  0.32551  1.0000
  H   H172      1.0  0.01947  0.47195  0.03406  1.0000
  H   H173      1.0  0.35044  0.44894  0.50200  1.0000
  C   C105      1.0  0.09178  0.51000  0.31157  1.0000
  C   C106      1.0  0.08778  0.51153  0.28022  1.0000
  C   C107      1.0  0.06877  0.52946  0.26822  1.0000
  H   H174      1.0  0.10666  0.49632  0.32058  1.0000
  H   H175      1.0  0.09941  0.49874  0.26522  1.0000
  H   H176      1.0  0.17284  0.49902  0.46813  1.0000
  H   H177      1.0  0.05678  0.45800  0.31749  1.0000
  H   H178      1.0  0.49102  0.33356  0.32752  1.0000
  H   H179      1.0  0.29412  0.43711  0.32129  1.0000
  S   S47       1.0  0.32033  0.39271  0.42699  1.0000
  C   C108      1.0  0.30625  0.39399  0.32331  1.0000
  H   H180      1.0  0.49128  0.45654  0.25932  1.0000
  H   H181      1.0  0.42938  0.33400  0.31984  1.0000
  H   H182      1.0  0.28535  0.38965  0.26395  1.0000
  N   N5        1.0  0.21066  0.44102  0.48792  1.0000
  C   C109      1.0  0.18966  0.45831  0.47293  1.0000
  C   C110      1.0  0.21099  0.41380  0.47408  1.0000
  C   C111      1.0  0.23857  0.45621  0.48083  1.0000
  H   H183      1.0  0.28318  0.45258  0.47660  1.0000
  C   C112      1.0  0.48607  0.45428  0.38122  1.0000
  C   C113      1.0  0.18340  0.39679  0.47732  1.0000
  H   H184      1.0  0.99551  0.62981  0.02572  1.0000
  H   H185      1.0  0.02436  0.44766  0.13800  1.0000
  H   H186      1.0  0.19370  0.45949  0.44743  1.0000
  H   H187      1.0  0.00939  0.39312  0.33442  1.0000
  H   H188      1.0  0.22623  0.40002  0.48378  1.0000
  H   H189      1.0  0.21785  0.41737  0.44915  1.0000
  H   H190      1.0  0.23990  0.46876  0.45808  1.0000
  H   H191      1.0  0.46647  0.57529  0.10544  1.0000
  C   C114      1.0  0.20203  0.43742  0.52204  1.0000
  H   H192      1.0  0.25603  0.40526  0.30402  1.0000
  H   H193      1.0  0.43797  0.48427  0.09295  1.0000
  H   H194      1.0  0.20779  0.50026  0.47672  1.0000
  H   H195      1.0  0.45200  0.33415  0.02548  1.0000
  C   C115      1.0  0.47176  0.46937  0.19341  1.0000
  H   H196      1.0  0.00212  0.37289  0.05225  1.0000
  H   H197      1.0  0.47278  0.46287  0.04757  1.0000
  H   H198      1.0  0.06258  0.46172  0.22587  1.0000
  H   H199      1.0  0.99732  0.47971  0.20091  1.0000
  C   C116      1.0  0.39018  0.36572  0.28458  1.0000
  H   H200      1.0  0.41901  0.35124  0.36268  1.0000
  H   H201      1.0  0.02192  0.42436  0.47822  1.0000
  H   H202      1.0  0.00875  0.45805  0.46902  1.0000
  C   C117      1.0  0.25754  0.38507  0.31776  1.0000
  H   H203      1.0  0.43453  0.44347  0.19837  1.0000
  C   C118      1.0  0.45119  0.48318  0.11216  1.0000
  H   H204      1.0  0.01676  0.46359  0.25154  1.0000
  H   H205      1.0  0.43158  0.55084  0.24835  1.0000
  C   C119      1.0  0.29199  0.37146  0.27817  1.0000
  C   C120      1.0  0.46030  0.44290  0.39435  1.0000
  H   H206      1.0  0.23203  0.34602  0.32450  1.0000
  H   H207      1.0  0.00965  0.50215  0.29727  1.0000
  H   H208      1.0  0.42961  0.39714  0.35431  1.0000
  C   C121      1.0  0.48194  0.34068  0.38882  1.0000
  H   H209      1.0  0.29181  0.35697  0.37671  1.0000
  S   S48       1.0  0.46496  0.62678  0.23788  1.0000
  H   H210      1.0  0.47452  0.64418  0.12733  1.0000
  C   C122      1.0  0.00847  0.44406  0.09285  1.0000
  C   C123      1.0  0.45683  0.44410  0.19500  1.0000
  H   H211      1.0  0.21381  0.37637  0.31592  1.0000
  H   H212      1.0  0.46856  0.40509  0.05251  1.0000
  H   H213      1.0  0.32931  0.43250  0.30624  1.0000
  H   H214      1.0  0.06000  0.39821  0.33201  1.0000
  Fe  Fe23      1.0  0.48844  0.59623  0.21099  1.0000
  H   H215      1.0  0.46190  0.54542  0.33945  1.0000
  H   H216      1.0  0.47517  0.39008  0.37065  1.0000
  C   C124      1.0  0.48343  0.40957  0.42630  1.0000
  H   H217      1.0  0.48233  0.39230  0.44380  1.0000
  C   C125      1.0  0.23350  0.36619  0.31039  1.0000
  C   C126      1.0  0.46893  0.38363  0.06322  1.0000
  H   H218      1.0  0.43997  0.55164  0.06939  1.0000
  C   C127      1.0  0.44697  0.39368  0.33692  1.0000
  C   C128      1.0  0.01764  0.43164  0.12363  1.0000
  Fe  Fe24      1.0  0.35450  0.38216  0.39246  1.0000
  N   N6        1.0  0.41543  0.51138  0.30243  1.0000
  C   C129      1.0  0.42118  0.49687  0.27358  1.0000
  C   C130      1.0  0.40596  0.53969  0.29253  1.0000
  C   C131      1.0  0.39246  0.49501  0.32253  1.0000
  C   C132      1.0  0.44167  0.51240  0.31795  1.0000
  C   C133      1.0  0.42582  0.46558  0.27824  1.0000
  H   H219      1.0  0.03424  0.43449  0.34191  1.0000
  C   C134      1.0  0.38059  0.50722  0.35195  1.0000
  C   C135      1.0  0.44310  0.53151  0.34410  1.0000
  H   H220      1.0  0.40407  0.49935  0.25858  1.0000
  H   H221      1.0  0.43989  0.50630  0.25939  1.0000
  H   H222      1.0  0.39955  0.55142  0.31221  1.0000
  H   H223      1.0  0.38701  0.53788  0.28043  1.0000
  H   H224      1.0  0.37475  0.49126  0.30898  1.0000
  H   H225      1.0  0.39930  0.47429  0.33057  1.0000
  H   H226      1.0  0.44632  0.49144  0.32764  1.0000
  H   H227      1.0  0.45973  0.51852  0.30078  1.0000
  H   H228      1.0  0.44117  0.46051  0.29461  1.0000
  H   H229      1.0  0.40619  0.45356  0.28590  1.0000
  H   H230      1.0  0.43370  0.45843  0.25585  1.0000
  H   H231      1.0  0.48413  0.46065  0.12882  1.0000
  C   C136      1.0  0.28787  0.34617  0.32933  1.0000
  C   C137      1.0  0.00656  0.48745  0.31830  1.0000
  H   H232      1.0  0.36310  0.49338  0.36310  1.0000
  H   H233      1.0  0.37196  0.52774  0.34744  1.0000
  H   H234      1.0  0.39569  0.50762  0.36915  1.0000
  H   H235      1.0  0.44487  0.51891  0.36622  1.0000
  H   H236      1.0  0.42544  0.54472  0.34784  1.0000
  H   H237      1.0  0.45887  0.34767  0.29404  1.0000
  S   S49       1.0  0.35360  0.34228  0.37046  1.0000
  H   H238      1.0  0.04147  0.47975  0.27160  1.0000
  H   H239      1.0  0.02639  0.58626  0.04239  1.0000
  H   H240      1.0  0.44666  0.56186  0.28174  1.0000
  C   C138      1.0  0.43410  0.34395  0.37849  1.0000
  H   H241      1.0  0.05239  0.42702  0.23986  1.0000
  H   H242      1.0  0.44254  0.63169  0.14788  1.0000
  H   H243      1.0  0.45785  0.50430  0.11673  1.0000
  C   C139      1.0  0.03155  0.50021  0.09966  1.0000
  S   S50       1.0  0.44902  0.35243  0.16476  1.0000
  C   C140      1.0  0.36960  0.34193  0.33289  1.0000
  S   S51       1.0  0.46897  0.57971  0.17179  1.0000
  H   H244      1.0  0.39695  0.38477  0.27078  1.0000
  H   H245      1.0  0.47576  0.38458  0.08655  1.0000
  H   H246      1.0  0.47612  0.35200  0.40932  1.0000
  H   H247      1.0  0.33011  0.34849  0.27931  1.0000
  C   C141      1.0  0.47065  0.41954  0.19209  1.0000
  H   H248      1.0  0.26568  0.42776  0.45736  1.0000
  S   S52       1.0  0.99891  0.37975  0.20072  1.0000
  H   H249      1.0  0.17997  0.48879  0.50631  1.0000
  C   C142      1.0  0.00076  0.49170  0.10904  1.0000
  H   H250      1.0  0.18700  0.37662  0.46802  1.0000
  C   C143      1.0  0.48895  0.36612  0.04461  1.0000
  C   C144      1.0  0.38042  0.36621  0.31571  1.0000
  H   H251      1.0  0.43912  0.38346  0.31788  1.0000
  C   C145      1.0  0.05749  0.44757  0.24721  1.0000
  C   C146      1.0  0.26438  0.43867  0.47854  1.0000
  H   H252      1.0  0.04081  0.49270  0.07821  1.0000
  H   H253      1.0  0.04413  0.49391  0.11868  1.0000
  N   N7        1.0  0.02213  0.44233  0.29587  1.0000
  C   C147      1.0  0.45859  0.64873  0.14560  1.0000
  C   C148      1.0  0.03345  0.45930  0.26661  1.0000
  Fe  Fe25      1.0  0.00209  0.57616  0.15578  1.0000
  C   C149      1.0  0.04400  0.43852  0.31781  1.0000
  H   H254      1.0  0.00692  0.65800  0.18295  1.0000
  H   H255      1.0  0.08550  0.42299  0.31421  1.0000
  C   C150      1.0  0.32230  0.36700  0.26700  1.0000
  C   C151      1.0  0.18790  0.48822  0.48183  1.0000
  H   H256      1.0  0.02495  0.66036  0.12759  1.0000
  H   H257      1.0  0.45538  0.41453  0.32739  1.0000
  H   H258      1.0  0.02492  0.48835  0.33126  1.0000
  H   H259      1.0  0.06418  0.40599  0.29079  1.0000
  C   C152      1.0  0.01371  0.44299  0.48796  1.0000
  H   H260      1.0  0.07641  0.44716  0.25928  1.0000
  H   H261      1.0  0.24165  0.47132  0.49789  1.0000
  C   C153      1.0  0.46985  0.37780  0.35180  1.0000
  C   C154      1.0  0.99901  0.45791  0.31080  1.0000
  H   H262      1.0  0.45895  0.40014  0.19397  1.0000
  H   H263      1.0  0.32731  0.38591  0.32221  1.0000
  C   C155      1.0  0.47581  0.46462  0.10622  1.0000
  Fe  Fe26      1.0  0.48189  0.53837  0.19066  1.0000
  C   C156      1.0  0.47576  0.57307  0.08248  1.0000
  H   H264      1.0  0.48713  0.34482  0.05638  1.0000
  H   H265      1.0  0.32401  0.36357  0.24222  1.0000
  H   H266      1.0  0.44777  0.37393  0.06673  1.0000
  C   C157      1.0  0.48499  0.48156  0.05219  1.0000
  H   H267      1.0  0.46739  0.44423  0.10083  1.0000
  H   H268      1.0  0.00234  0.64278  0.26114  1.0000
  H   H269      1.0  0.48719  0.47156  0.36375  1.0000
  C   C158      1.0  0.38969  0.34087  0.27080  1.0000
  H   H270      1.0  0.33589  0.38534  0.26910  1.0000
  H   H271      1.0  0.23488  0.36292  0.28563  1.0000
  H   H272      1.0  0.46752  0.64798  0.16796  1.0000
  H   H273      1.0  0.01214  0.50697  0.04307  1.0000
  H   H274      1.0  0.03536  0.41839  0.11905  1.0000
  H   H275      1.0  0.04339  0.65623  0.17867  1.0000
  H   H276      1.0  0.30947  0.33946  0.32698  1.0000
  H   H277      1.0  0.26541  0.42346  0.49860  1.0000
  S   S53       1.0  0.01266  0.59341  0.10634  1.0000
  H   H278      1.0  0.03881  0.33746  0.03854  1.0000
  C   C159      1.0  0.45117  0.33104  0.31220  1.0000
  C   C160      1.0  0.00655  0.57584  0.04971  1.0000
  C   C161      1.0  0.00943  0.41547  0.28803  1.0000
  Fe  Fe27      1.0  0.48993  0.35141  0.18356  1.0000
  H   H279      1.0  0.27580  0.33006  0.31925  1.0000
  S   S54       1.0  0.39427  0.34162  0.23065  1.0000
  H   H280      1.0  0.43103  0.35681  0.39815  1.0000
  H   H281      1.0  0.46999  0.49813  0.05407  1.0000
  H   H282      1.0  0.46904  0.65990  0.03115  1.0000
  H   H283      1.0  0.48384  0.62767  0.02849  1.0000
  N   N8        1.0  0.46346  0.34790  0.36382  1.0000
  H   H284      1.0  0.27974  0.35369  0.27136  1.0000
  C   C162      1.0  0.00317  0.48677  0.03829  1.0000
  H   H285      1.0  0.99852  0.48763  0.13458  1.0000
  C   C163      1.0  0.99770  0.43555  0.20137  1.0000
  H   H286      1.0  0.99891  0.42679  0.08200  1.0000
  H   H287      1.0  0.00100  0.41806  0.13688  1.0000
  C   C164      1.0  0.47725  0.66155  0.23250  1.0000
  H   H288      1.0  0.99535  0.41819  0.02755  1.0000
  H   H289      1.0  0.49465  0.46890  0.29692  1.0000
  C   C165      1.0  0.35833  0.44165  0.52327  1.0000
  S   S55       1.0  0.38574  0.41386  0.66487  1.0000
  S   S56       1.0  0.32491  0.40548  0.73029  1.0000
  Fe  Fe28      1.0  0.42446  0.42386  0.68643  1.0000
  S   S57       1.0  0.46059  0.39627  0.68946  1.0000
  H   H290      1.0  0.06519  0.40846  0.92715  1.0000
  Fe  Fe29      1.0  0.17240  0.41495  0.70191  1.0000
  S   S58       1.0  0.17917  0.37514  0.68101  1.0000
  S   S59       1.0  0.20678  0.44667  0.70465  1.0000
  Fe  Fe30      1.0  0.10991  0.40576  0.70894  1.0000
  S   S60       1.0  0.11172  0.36553  0.68802  1.0000
  S   S61       1.0  0.07052  0.42511  0.72576  1.0000
  Fe  Fe31      1.0  0.14598  0.35742  0.71752  1.0000
  H   H291      1.0  0.06798  0.42174  0.79122  1.0000
  Fe  Fe32      1.0  0.14432  0.38701  0.65352  1.0000
  S   S62       1.0  0.14535  0.37861  0.60370  1.0000
  S   S63       1.0  0.14218  0.39633  0.74105  1.0000
  S   S64       1.0  0.13959  0.42816  0.67180  1.0000
  H   H292      1.0  0.03360  0.65212  0.80174  1.0000
  C   C166      1.0  0.01391  0.37201  0.69866  1.0000
  H   H293      1.0  0.46138  0.33047  0.96843  1.0000
  H   H294      1.0  0.44011  0.36785  0.01799  1.0000
  C   C167      1.0  0.13722  0.40501  0.57649  1.0000
  H   H295      1.0  0.24353  0.42721  0.60379  1.0000
  H   H296      1.0  0.40559  0.46158  0.83368  1.0000
  H   H297      1.0  0.27571  0.35983  0.62072  1.0000
  C   C168      1.0  0.13875  0.43276  0.58225  1.0000
  C   C169      1.0  0.04474  0.40718  0.91964  1.0000
  H   H298      1.0  0.14535  0.43841  0.60371  1.0000
  H   H299      1.0  0.26050  0.39045  0.65862  1.0000
  H   H300      1.0  0.06294  0.35640  0.61456  1.0000
  H   H301      1.0  0.06868  0.35081  0.01419  1.0000
  C   C170      1.0  0.03416  0.38208  0.91135  1.0000
  H   H302      1.0  0.06995  0.41721  0.65531  1.0000
  H   H303      1.0  0.07141  0.49993  0.74899  1.0000
  S   S65       1.0  0.04140  0.46103  0.93158  1.0000
  H   H304      1.0  0.48135  0.61309  0.86918  1.0000
  C   C171      1.0  0.47004  0.44163  0.76255  1.0000
  C   C172      1.0  0.27915  0.45291  0.78948  1.0000
  H   H305      1.0  0.01346  0.35177  0.69033  1.0000
  C   C173      1.0  0.05694  0.43614  0.58176  1.0000
  C   C174      1.0  0.26636  0.40839  0.64138  1.0000
  H   H306      1.0  0.13331  0.47480  0.56444  1.0000
  H   H307      1.0  0.45786  0.40052  0.90003  1.0000
  H   H308      1.0  0.32478  0.46526  0.75175  1.0000
  C   C175      1.0  0.06885  0.37875  0.61012  1.0000
  C   C176      1.0  0.23969  0.41533  0.62656  1.0000
  C   C177      1.0  0.37370  0.45112  0.57257  1.0000
  C   C178      1.0  0.37792  0.42302  0.57906  1.0000
  C   C179      1.0  0.37183  0.40423  0.55799  1.0000
  H   H309      1.0  0.44987  0.36522  0.96096  1.0000
  H   H310      1.0  0.01557  0.43139  0.65109  1.0000
  H   H311      1.0  0.00016  0.43747  0.58407  1.0000
  H   H312      1.0  0.38581  0.41573  0.60027  1.0000
  H   H313      1.0  0.37482  0.38247  0.56328  1.0000
  C   C180      1.0  0.30665  0.36759  0.58159  1.0000
  H   H314      1.0  0.46887  0.40616  0.00015  1.0000
  H   H315      1.0  0.35624  0.47260  0.85523  1.0000
  C   C181      1.0  0.13206  0.45333  0.55995  1.0000
  C   C182      1.0  0.03853  0.38321  0.70731  1.0000
  C   C183      1.0  0.03945  0.40964  0.71727  1.0000
  C   C184      1.0  0.04817  0.47228  0.78448  1.0000
  C   C185      1.0  0.00746  0.38014  0.90249  1.0000
  H   H316      1.0  0.47497  0.59982  0.97385  1.0000
  H   H317      1.0  0.05675  0.37138  0.70611  1.0000
  C   C186      1.0  0.29232  0.41690  0.72202  1.0000
  C   C187      1.0  0.28910  0.44382  0.70920  1.0000
  C   C188      1.0  0.26266  0.45294  0.70477  1.0000
  C   C189      1.0  0.23942  0.43482  0.71172  1.0000
  C   C190      1.0  0.24267  0.40769  0.72379  1.0000
  C   C191      1.0  0.26902  0.39892  0.72941  1.0000
  H   H318      1.0  0.26024  0.47393  0.69529  1.0000
  H   H319      1.0  0.22482  0.39361  0.72932  1.0000
  H   H320      1.0  0.27132  0.37808  0.73941  1.0000
  Fe  Fe33      1.0  0.40400  0.47717  0.70793  1.0000
  S   S66       1.0  0.40144  0.43385  0.73041  1.0000
  S   S67       1.0  0.41807  0.51354  0.73180  1.0000
  Fe  Fe34      1.0  0.38852  0.45860  0.64683  1.0000
  S   S68       1.0  0.37900  0.47491  0.59949  1.0000
  Fe  Fe35      1.0  0.36308  0.42891  0.70666  1.0000
  S   S69       1.0  0.36372  0.47321  0.68761  1.0000
  S   S70       1.0  0.42897  0.46752  0.66488  1.0000
  Fe  Fe36      1.0  0.45663  0.51746  0.89783  1.0000
  H   H321      1.0  0.31187  0.38286  0.56134  1.0000
  S   S71       1.0  0.42160  0.49869  0.87573  1.0000
  Fe  Fe37      1.0  0.47200  0.53360  0.95967  1.0000
  H   H322      1.0  0.47519  0.49673  0.75092  1.0000
  H   H323      1.0  0.40404  0.46703  0.77728  1.0000
  H   H324      1.0  0.47971  0.45413  0.68006  1.0000
  C   C192      1.0  0.28342  0.37753  0.60379  1.0000
  H   H325      1.0  0.05208  0.64028  0.90187  1.0000
  S   S72       1.0  0.46059  0.55842  0.91741  1.0000
  S   S73       1.0  0.46398  0.49280  0.94172  1.0000
  H   H326      1.0  0.29489  0.36933  0.67762  1.0000
  H   H327      1.0  0.04233  0.45940  0.76630  1.0000
  H   H328      1.0  0.27704  0.46366  0.76652  1.0000
  C   C193      1.0  0.07293  0.41304  0.83924  1.0000
  H   H329      1.0  0.28823  0.43264  0.78668  1.0000
  C   C194      1.0  0.36412  0.46040  0.54452  1.0000
  H   H330      1.0  0.44314  0.34504  0.79644  1.0000
  H   H331      1.0  0.01771  0.65523  0.98125  1.0000
  H   H332      1.0  0.30679  0.45785  0.70323  1.0000
  C   C195      1.0  0.42085  0.50870  0.77154  1.0000
  C   C196      1.0  0.43171  0.53025  0.78648  1.0000
  C   C197      1.0  0.43316  0.52707  0.81843  1.0000
  C   C198      1.0  0.42318  0.50248  0.83553  1.0000
  C   C199      1.0  0.41297  0.48074  0.82050  1.0000
  C   C200      1.0  0.41215  0.48374  0.78854  1.0000
  H   H333      1.0  0.43862  0.54960  0.77338  1.0000
  H   H334      1.0  0.44102  0.54394  0.82998  1.0000
  N   N9        1.0  0.32659  0.47305  0.79950  1.0000
  C   C201      1.0  0.33965  0.49527  0.81592  1.0000
  C   C202      1.0  0.33280  0.48133  0.76543  1.0000
  H   H335      1.0  0.08826  0.46961  0.86634  1.0000
  H   H336      1.0  0.00132  0.56262  0.00499  1.0000
  H   H337      1.0  0.25793  0.44888  0.80112  1.0000
  C   C203      1.0  0.32188  0.50916  0.75324  1.0000
  H   H338      1.0  0.09114  0.43223  0.62268  1.0000
  C   C204      1.0  0.34135  0.48878  0.85059  1.0000
  H   H339      1.0  0.36100  0.50098  0.80535  1.0000
  H   H340      1.0  0.32829  0.51464  0.81342  1.0000
  H   H341      1.0  0.47020  0.48334  0.80381  1.0000
  H   H342      1.0  0.35555  0.48244  0.75884  1.0000
  H   H343      1.0  0.44047  0.38112  0.79858  1.0000
  H   H344      1.0  0.20863  0.41581  0.56580  1.0000
  H   H345      1.0  0.48570  0.39209  0.96885  1.0000
  H   H346      1.0  0.33250  0.52685  0.76207  1.0000
  C   C205      1.0  0.45479  0.36519  0.79119  1.0000
  S   S74       1.0  0.45291  0.54000  0.00731  1.0000
  C   C206      1.0  0.44850  0.34669  0.97778  1.0000
  H   H347      1.0  0.02045  0.42537  0.84309  1.0000
  H   H348      1.0  0.32639  0.51182  0.72780  1.0000
  H   H349      1.0  0.48639  0.38865  0.80889  1.0000
  H   H350      1.0  0.07342  0.42323  0.86071  1.0000
  C   C207      1.0  0.06925  0.46081  0.64979  1.0000
  H   H351      1.0  0.08011  0.50502  0.78647  1.0000
  H   H352      1.0  0.45993  0.36946  0.76598  1.0000
  H   H353      1.0  0.33149  0.36975  0.67318  1.0000
  H   H354      1.0  0.31305  0.35168  0.64759  1.0000
  N   N10       1.0  0.29089  0.40236  0.61984  1.0000
  C   C208      1.0  0.31500  0.39723  0.63840  1.0000
  C   C209      1.0  0.29886  0.42641  0.59604  1.0000
  C   C210      1.0  0.30176  0.45486  0.60851  1.0000
  H   H355      1.0  0.33465  0.39719  0.62320  1.0000
  H   H356      1.0  0.31807  0.41434  0.65307  1.0000
  H   H357      1.0  0.28431  0.42806  0.57808  1.0000
  H   H358      1.0  0.31901  0.42317  0.58303  1.0000
  H   H359      1.0  0.27141  0.42510  0.65564  1.0000
  H   H360      1.0  0.31694  0.45511  0.62571  1.0000
  H   H361      1.0  0.30958  0.47042  0.58921  1.0000
  H   H362      1.0  0.28168  0.46178  0.61845  1.0000
  H   H363      1.0  0.22733  0.42880  0.64119  1.0000
  H   H364      1.0  0.08544  0.38276  0.62487  1.0000
  H   H365      1.0  0.23988  0.42460  0.54168  1.0000
  H   H366      1.0  0.30764  0.41676  0.83024  1.0000
  H   H367      1.0  0.03775  0.33690  0.80534  1.0000
  C   C211      1.0  0.04646  0.34481  0.01446  1.0000
  C   C212      1.0  0.12921  0.39797  0.54833  1.0000
  H   H368      1.0  0.09229  0.40183  0.83591  1.0000
  H   H369      1.0  0.36238  0.44928  0.80746  1.0000
  H   H370      1.0  0.04663  0.36427  0.91212  1.0000
  H   H371      1.0  0.34950  0.50754  0.85997  1.0000
  C   C213      1.0  0.32787  0.42631  0.83396  1.0000
  H   H372      1.0  0.46178  0.45473  0.74386  1.0000
  H   H373      1.0  0.20339  0.45749  0.53215  1.0000
  H   H374      1.0  0.02328  0.46149  0.62563  1.0000
  Fe  Fe38      1.0  0.01069  0.49422  0.92882  1.0000
  H   H375      1.0  0.04285  0.46109  0.86259  1.0000
  H   H376      1.0  0.26591  0.38188  0.58987  1.0000
  H   H377      1.0  0.32555  0.43632  0.85557  1.0000
  C   C214      1.0  0.48858  0.61317  0.95647  1.0000
  H   H378      1.0  0.29945  0.34825  0.57269  1.0000
  H   H379      1.0  0.06765  0.47885  0.63302  1.0000
  H   H380      1.0  0.07732  0.42808  0.57451  1.0000
  H   H381      1.0  0.05573  0.39718  0.84202  1.0000
  H   H382      1.0  0.44119  0.63227  0.98447  1.0000
  H   H383      1.0  0.33924  0.43300  0.78584  1.0000
  H   H384      1.0  0.22709  0.39626  0.62446  1.0000
  H   H385      1.0  0.04262  0.42752  0.56649  1.0000
  C   C215      1.0  0.36200  0.41349  0.53008  1.0000
  C   C216      1.0  0.31303  0.37036  0.66021  1.0000
  C   C217      1.0  0.33999  0.44576  0.80563  1.0000
  C   C218      1.0  0.48691  0.39373  0.99377  1.0000
  C   C219      1.0  0.47951  0.40176  0.90352  1.0000
  H   H386      1.0  0.09184  0.44394  0.80509  1.0000
  H   H387      1.0  0.01962  0.42352  0.80295  1.0000
  N   N11       1.0  0.04884  0.45458  0.81442  1.0000
  H   H388      1.0  0.49192  0.49095  0.00281  1.0000
  H   H389      1.0  0.01571  0.44479  0.72757  1.0000
  C   C220      1.0  0.08153  0.48179  0.84594  1.0000
  H   H390      1.0  0.32553  0.36296  0.59284  1.0000
  N   N12       1.0  0.48471  0.36539  0.01109  1.0000
  H   H391      1.0  0.09245  0.47563  0.76672  1.0000
  H   H392      1.0  0.47649  0.62314  0.93889  1.0000
  C   C221      1.0  0.07030  0.43309  0.63528  1.0000
  C   C222      1.0  0.02163  0.43822  0.82069  1.0000
  C   C223      1.0  0.29594  0.47105  0.80862  1.0000
  S   S75       1.0  0.01398  0.53390  0.95050  1.0000
  N   N13       1.0  0.04797  0.42653  0.61501  1.0000
  H   H393      1.0  0.05188  0.46036  0.66824  1.0000
  H   H394      1.0  0.29925  0.51006  0.75832  1.0000
  H   H395      1.0  0.03986  0.49113  0.83749  1.0000
  C   C224      1.0  0.44525  0.63115  0.00882  1.0000
  C   C225      1.0  0.12238  0.41850  0.52613  1.0000
  H   H396      1.0  0.42681  0.33842  0.97990  1.0000
  H   H397      1.0  0.06769  0.63999  0.79201  1.0000
  C   C226      1.0  0.07486  0.48891  0.77150  1.0000
  H   H398      1.0  0.21702  0.39597  0.53452  1.0000
  C   C227      1.0  0.12385  0.44624  0.53184  1.0000
  H   H399      1.0  0.08843  0.46406  0.66096  1.0000
  H   H400      1.0  0.03398  0.38780  0.64092  1.0000
  C   C228      1.0  0.03115  0.37000  0.00195  1.0000
  C   C229      1.0  0.21819  0.41720  0.54161  1.0000
  C   C230      1.0  0.05192  0.47228  0.84048  1.0000
  H   H401      1.0  0.03208  0.48783  0.78659  1.0000
  N   N14       1.0  0.00005  0.36667  0.00441  1.0000
  C   C231      1.0  0.07105  0.43394  0.81097  1.0000
  H   H402      1.0  0.46782  0.42015  0.75633  1.0000
  H   H403      1.0  0.10474  0.33486  0.78220  1.0000
  C   C232      1.0  0.47351  0.64393  0.01497  1.0000
  H   H404      1.0  0.02803  0.38943  0.60164  1.0000
  C   C233      1.0  0.01266  0.62313  0.89318  1.0000
  H   H405      1.0  0.32085  0.48314  0.86327  1.0000
  H   H406      1.0  0.07673  0.47706  0.58400  1.0000
  C   C234      1.0  0.02878  0.43048  0.91872  1.0000
  H   H407      1.0  0.01999  0.42617  0.99387  1.0000
  H   H408      1.0  0.08131  0.50343  0.85206  1.0000
  H   H409      1.0  0.07712  0.38241  0.58559  1.0000
  H   H410      1.0  0.44346  0.60896  0.01773  1.0000
  C   C235      1.0  0.03063  0.64432  0.89989  1.0000
  H   H411      1.0  0.04022  0.47789  0.57862  1.0000
  H   H412      1.0  0.34191  0.40908  0.83746  1.0000
  C   C236      1.0  0.01529  0.42433  0.71987  1.0000
  H   H413      1.0  0.06503  0.47152  0.54795  1.0000
  C   C237      1.0  0.05968  0.46751  0.57320  1.0000
  H   H414      1.0  0.47737  0.43293  0.58208  1.0000
  C   C238      1.0  0.45585  0.35349  0.00977  1.0000
  S   S76       1.0  0.02593  0.59127  0.88510  1.0000
  H   H415      1.0  0.09733  0.48145  0.82620  1.0000
  H   H416      1.0  0.29117  0.46318  0.83318  1.0000
  S   S77       1.0  0.47815  0.34595  0.89990  1.0000
  H   H417      1.0  0.12806  0.37651  0.54376  1.0000
  H   H418      1.0  0.28704  0.49180  0.80743  1.0000
  C   C239      1.0  0.04316  0.39557  0.61742  1.0000
  C   C240      1.0  0.02126  0.43866  0.62639  1.0000
  H   H419      1.0  0.04156  0.36354  0.77422  1.0000
  H   H420      1.0  0.47984  0.44526  0.90933  1.0000
  H   H421      1.0  0.45720  0.44289  0.78462  1.0000
  H   H422      1.0  0.47559  0.42246  0.62209  1.0000
  C   C241      1.0  0.48040  0.36640  0.80922  1.0000
  H   H423      1.0  0.48910  0.45642  0.60849  1.0000
  C   C242      1.0  0.49262  0.48144  0.80531  1.0000
  C   C243      1.0  0.00266  0.42893  0.90820  1.0000
  C   C244      1.0  0.48836  0.43470  0.60282  1.0000
  H   H424      1.0  0.47329  0.35935  0.83373  1.0000
  H   H425      1.0  0.01989  0.36851  0.80859  1.0000
  C   C245      1.0  0.02654  0.35304  0.79270  1.0000
  H   H426      1.0  0.47791  0.46060  0.85006  1.0000
  C   C246      1.0  0.05574  0.65463  0.80541  1.0000
  H   H427      1.0  0.46396  0.66239  0.95226  1.0000
  H   H428      1.0  0.03975  0.37542  0.97759  1.0000
  C   C247      1.0  0.00213  0.34006  0.77823  1.0000
  C   C248      1.0  0.49477  0.37792  0.90374  1.0000
  H   H429      1.0  0.36088  0.48213  0.53936  1.0000
  H   H430      1.0  0.46348  0.66024  0.86825  1.0000
  H   H431      1.0  0.18003  0.43033  0.52648  1.0000
  C   C249      1.0  0.49351  0.41281  0.68722  1.0000
  H   H432      1.0  0.03783  0.38732  0.01475  1.0000
  H   H433      1.0  0.00348  0.34604  0.96268  1.0000
  H   H434      1.0  0.05778  0.64796  0.82984  1.0000
  C   C250      1.0  0.49192  0.42711  0.90889  1.0000
  Fe  Fe39      1.0  0.00076  0.55332  0.90621  1.0000
  S   S78       1.0  0.00172  0.51397  0.88313  1.0000
  C   C251      1.0  0.48409  0.65674  0.87444  1.0000
  H   H435      1.0  0.99696  0.42144  0.53058  1.0000
  H   H436      1.0  0.99774  0.35476  0.75874  1.0000
  C   C252      1.0  0.99609  0.43211  0.60918  1.0000
  C   C253      1.0  0.99824  0.41980  0.00214  1.0000
  C   C254      1.0  0.49416  0.63007  0.87496  1.0000
  N   N15       1.0  0.49257  0.65598  0.98746  1.0000
  H   H437      1.0  0.99611  0.47134  0.83808  1.0000
  C   C255      1.0  0.99539  0.45508  0.82209  1.0000
  H   H438      1.0  0.99660  0.39496  0.96437  1.0000
  H   H439      1.0  0.42824  0.64136  0.02147  1.0000
  C   C256      1.0  0.00149  0.78619  0.08448  1.0000
  H   H440      1.0  0.16734  0.93691  0.47470  1.0000
  S   S79       1.0  0.09919  0.94783  0.37271  1.0000
  H   H441      1.0  0.02886  0.68776  0.18828  1.0000
  Fe  Fe40      1.0  0.11232  0.96005  0.45619  1.0000
  S   S80       1.0  0.11482  0.91830  0.43874  1.0000
  S   S81       1.0  0.12117  0.97069  0.50331  1.0000
  Fe  Fe41      1.0  0.13751  0.94112  0.39648  1.0000
  S   S82       1.0  0.17394  0.91893  0.37642  1.0000
  Fe  Fe42      1.0  0.07652  0.92869  0.41655  1.0000
  S   S83       1.0  0.04066  0.89896  0.41427  1.0000
  S   S84       1.0  0.99683  0.79814  0.16895  1.0000
  H   H442      1.0  0.45915  0.90622  0.45727  1.0000
  Fe  Fe43      1.0  0.35389  0.90485  0.45607  1.0000
  S   S85       1.0  0.35785  0.94855  0.43458  1.0000
  Fe  Fe44      1.0  0.35644  0.88116  0.39448  1.0000
  S   S86       1.0  0.36031  0.92269  0.36756  1.0000
  S   S87       1.0  0.35505  0.84045  0.37443  1.0000
  Fe  Fe45      1.0  0.39003  0.93315  0.40096  1.0000
  S   S88       1.0  0.42840  0.95956  0.38450  1.0000
  Fe  Fe46      1.0  0.32772  0.93447  0.40307  1.0000
  S   S89       1.0  0.29527  0.96361  0.38928  1.0000
  S   S90       1.0  0.38880  0.89053  0.42519  1.0000
  S   S91       1.0  0.32099  0.89187  0.42730  1.0000
  S   S92       1.0  0.35093  0.89051  0.50663  1.0000
  S   S93       1.0  0.44966  0.84884  0.17062  1.0000
  H   H443      1.0  0.13235  0.93793  0.26043  1.0000
  H   H444      1.0  0.40739  0.97769  0.24314  1.0000
  S   S94       1.0  0.44309  0.78215  0.19214  1.0000
  H   H445      1.0  0.20728  0.89258  0.45384  1.0000
  Fe  Fe47      1.0  0.46149  0.80970  0.15091  1.0000
  S   S95       1.0  0.44963  0.80317  0.10366  1.0000
  Fe  Fe48      1.0  0.43486  0.82176  0.21353  1.0000
  S   S96       1.0  0.39372  0.83372  0.23503  1.0000
  H   H446      1.0  0.04334  0.95156  0.31045  1.0000
  C   C257      1.0  0.08104  0.91772  0.25478  1.0000
  C   C258      1.0  0.37118  0.83829  0.33717  1.0000
  C   C259      1.0  0.36974  0.81294  0.32462  1.0000
  C   C260      1.0  0.37898  0.81107  0.29367  1.0000
  C   C261      1.0  0.38985  0.83454  0.27509  1.0000
  C   C262      1.0  0.39224  0.85978  0.28786  1.0000
  C   C263      1.0  0.38307  0.86164  0.31898  1.0000
  H   H447      1.0  0.36051  0.79486  0.33858  1.0000
  H   H448      1.0  0.37651  0.79170  0.28376  1.0000
  H   H449      1.0  0.40001  0.87807  0.27330  1.0000
  H   H450      1.0  0.38432  0.88123  0.32854  1.0000
  C   C264      1.0  0.01087  0.91501  0.40382  1.0000
  C   C265      1.0  0.01104  0.94346  0.39547  1.0000
  H   H451      1.0  0.03793  0.74939  0.17080  1.0000
  H   H452      1.0  0.05657  0.88992  0.30878  1.0000
  H   H453      1.0  0.42030  0.93536  0.25777  1.0000
  C   C266      1.0  0.47481  0.70340  0.09646  1.0000
  H   H454      1.0  0.03006  0.95586  0.39405  1.0000
  H   H455      1.0  0.02730  0.90236  0.33048  1.0000
  H   H456      1.0  0.44184  0.90187  0.39133  1.0000
  N   N16       1.0  0.46030  0.92531  0.49983  1.0000
  C   C267      1.0  0.20716  0.93163  0.38168  1.0000
  C   C268      1.0  0.21378  0.95996  0.37873  1.0000
  C   C269      1.0  0.24099  0.96950  0.38085  1.0000
  C   C270      1.0  0.26153  0.95080  0.38650  1.0000
  C   C271      1.0  0.25467  0.92248  0.39054  1.0000
  C   C272      1.0  0.22756  0.91294  0.38790  1.0000
  H   H457      1.0  0.19813  0.97450  0.37395  1.0000
  H   H458      1.0  0.35359  0.96746  0.31904  1.0000
  H   H459      1.0  0.27019  0.90799  0.39572  1.0000
  H   H460      1.0  0.22226  0.89104  0.39085  1.0000
  Fe  Fe49      1.0  0.48504  0.78660  0.20873  1.0000
  H   H461      1.0  0.19257  0.98638  0.44290  1.0000
  H   H462      1.0  0.04085  0.75758  0.12975  1.0000
  C   C273      1.0  0.35862  0.98981  0.31875  1.0000
  H   H463      1.0  0.40607  0.71191  0.12223  1.0000
  Fe  Fe50      1.0  0.09666  0.98708  0.39550  1.0000
  H   H464      1.0  0.01016  0.97593  0.18600  1.0000
  C   C274      1.0  0.45699  0.94234  0.20033  1.0000
  H   H465      1.0  0.03202  0.93191  0.17695  1.0000
  C   C275      1.0  0.39416  0.98661  0.26149  1.0000
  H   H466      1.0  0.45883  0.89828  0.19940  1.0000
  C   C276      1.0  0.42937  0.88334  0.49066  1.0000
  H   H467      1.0  0.03006  0.95370  0.07782  1.0000
  H   H468      1.0  0.48305  0.95532  0.13754  1.0000
  H   H469      1.0  0.06083  0.91221  0.33894  1.0000
  H   H470      1.0  0.45572  0.72624  0.24393  1.0000
  H   H471      1.0  0.06337  0.89678  0.21888  1.0000
  H   H472      1.0  0.00110  0.72745  0.08984  1.0000
  H   H473      1.0  0.22884  0.99192  0.44764  1.0000
  C   C277      1.0  0.46026  0.91450  0.39257  1.0000
  H   H474      1.0  0.05483  0.72678  0.14714  1.0000
  C   C278      1.0  0.45951  0.94326  0.38881  1.0000
  C   C279      1.0  0.46506  0.78229  0.04950  1.0000
  C   C280      1.0  0.47291  0.78754  0.07831  1.0000
  H   H475      1.0  0.47901  0.84051  0.05431  1.0000
  H   H476      1.0  0.48713  0.94625  0.46204  1.0000
  H   H477      1.0  0.44478  0.78752  0.04344  1.0000
  C   C281      1.0  0.04804  0.93386  0.29661  1.0000
  H   H478      1.0  0.25893  0.97021  0.49433  1.0000
  N   N17       1.0  0.07389  0.94051  0.27490  1.0000
  H   H479      1.0  0.11860  0.91101  0.50282  1.0000
  H   H480      1.0  0.24168  0.91641  0.46866  1.0000
  H   H481      1.0  0.48408  0.91277  0.09149  1.0000
  H   H482      1.0  0.01848  0.69182  0.25951  1.0000
  H   H483      1.0  0.09557  0.92591  0.23452  1.0000
  C   C282      1.0  0.01931  0.77455  0.03382  1.0000
  C   C283      1.0  0.23780  0.93863  0.47004  1.0000
  C   C284      1.0  0.48498  0.90193  0.39808  1.0000
  H   H484      1.0  0.44877  0.96517  0.44942  1.0000
  C   C285      1.0  0.44663  0.72658  0.13474  1.0000
  H   H485      1.0  0.45930  0.74604  0.12857  1.0000
  H   H486      1.0  0.38901  0.94268  0.30335  1.0000
  H   H487      1.0  0.33286  0.91805  0.30252  1.0000
  H   H488      1.0  0.43116  0.67305  0.12023  1.0000
  H   H489      1.0  0.21707  0.98123  0.50505  1.0000
  C   C286      1.0  0.43111  0.95338  0.46298  1.0000
  H   H490      1.0  0.41128  0.89575  0.48668  1.0000
  H   H491      1.0  0.45723  0.97021  0.03302  1.0000
  H   H492      1.0  0.47631  0.70240  0.17526  1.0000
  C   C287      1.0  0.42875  0.93759  0.27996  1.0000
  H   H493      1.0  0.43470  0.94193  0.20272  1.0000
  S   S97       1.0  0.47515  0.82387  0.23415  1.0000
  H   H494      1.0  0.23938  0.94706  0.44556  1.0000
  H   H495      1.0  0.24613  0.99145  0.37803  1.0000
  C   C288      1.0  0.44480  0.67628  0.13860  1.0000
  H   H496      1.0  0.43929  0.96568  0.08421  1.0000
  H   H497      1.0  0.19214  0.94124  0.44223  1.0000
  C   C289      1.0  0.12596  0.95276  0.27718  1.0000
  S   S98       1.0  0.01078  0.87620  0.18282  1.0000
  H   H498      1.0  0.04946  0.68643  0.13267  1.0000
  H   H499      1.0  0.06486  0.98368  0.27139  1.0000
  C   C290      1.0  0.46943  0.71021  0.23768  1.0000
  H   H500      1.0  0.43900  0.96920  0.14200  1.0000
  C   C291      1.0  0.02778  0.67927  0.13974  1.0000
  H   H501      1.0  0.01621  0.94809  0.11619  1.0000
  H   H502      1.0  0.46755  0.93723  0.04957  1.0000
  S   S99       1.0  0.13740  0.98257  0.41518  1.0000
  H   H503      1.0  0.45003  0.94676  0.27589  1.0000
  H   H504      1.0  0.41079  0.74840  0.12217  1.0000
  H   H505      1.0  0.43072  0.67890  0.15968  1.0000
  C   C292      1.0  0.01001  0.93211  0.18311  1.0000
  H   H506      1.0  0.46980  0.91075  0.13105  1.0000
  N   N18       1.0  0.48178  0.97634  0.09184  1.0000
  H   H507      1.0  0.48741  0.88841  0.27507  1.0000
  C   C293      1.0  0.47204  0.92392  0.10878  1.0000
  H   H508      1.0  0.09024  0.97506  0.24234  1.0000
  H   H509      1.0  0.42743  0.73220  0.09116  1.0000
  H   H510      1.0  0.45800  0.69932  0.08187  1.0000
  H   H511      1.0  0.43903  0.72686  0.15954  1.0000
  H   H512      1.0  0.17197  0.89509  0.44780  1.0000
  C   C294      1.0  0.18853  0.93141  0.46620  1.0000
  H   H513      1.0  0.05394  0.72857  0.09255  1.0000
  C   C295      1.0  0.43718  0.94465  0.49615  1.0000
  H   H514      1.0  0.04184  0.72196  0.05706  1.0000
  H   H515      1.0  0.21564  0.90531  0.51590  1.0000
  H   H516      1.0  0.03782  0.91359  0.24071  1.0000
  C   C296      1.0  0.47504  0.95790  0.03893  1.0000
  C   C297      1.0  0.01641  0.99021  0.09838  1.0000
  C   C298      1.0  0.20752  0.99153  0.45916  1.0000
  H   H517      1.0  0.01190  0.91517  0.51186  1.0000
  C   C299      1.0  0.04202  0.71339  0.08137  1.0000
  C   C300      1.0  0.99980  0.96752  0.02734  1.0000
  S   S100      1.0  0.99567  0.74233  0.23806  1.0000
  C   C301      1.0  0.01247  0.95932  0.09387  1.0000
  H   H518      1.0  0.00513  0.79384  0.10602  1.0000
  H   H519      1.0  0.43022  0.91635  0.29116  1.0000
  C   C302      1.0  0.99961  0.68662  0.24983  1.0000
  C   C303      1.0  0.42136  0.72944  0.11630  1.0000
  H   H520      1.0  0.48537  0.87965  0.40145  1.0000
  S   S101      1.0  0.07165  0.96812  0.43834  1.0000
  C   C304      1.0  0.04942  0.96744  0.23244  1.0000
  C   C305      1.0  0.02628  0.67009  0.17445  1.0000
  C   C306      1.0  0.47206  0.96754  0.19896  1.0000
  H   H521      1.0  0.02976  0.93110  0.28408  1.0000
  C   C307      1.0  0.20383  0.97206  0.48921  1.0000
  H   H522      1.0  0.05619  0.95493  0.21348  1.0000
  C   C308      1.0  0.05676  0.90210  0.24252  1.0000
  H   H523      1.0  0.18237  0.97386  0.49996  1.0000
  H   H524      1.0  0.04451  0.78932  0.06703  1.0000
  H   H525      1.0  0.42478  0.93559  0.45090  1.0000
  C   C309      1.0  0.45682  0.90034  0.48247  1.0000
  C   C310      1.0  0.00884  0.72575  0.14786  1.0000
  C   C311      1.0  0.02378  0.78375  0.06229  1.0000
  H   H526      1.0  0.05293  0.69380  0.08082  1.0000
  H   H527      1.0  0.00956  0.99412  0.12242  1.0000
  H   H528      1.0  0.45724  0.97520  0.32044  1.0000
  C   C312      1.0  0.45964  0.68245  0.24060  1.0000
  H   H529      1.0  0.99551  0.74181  0.13834  1.0000
  H   H530      1.0  0.02845  0.96079  0.24293  1.0000
  C   C313      1.0  0.20549  0.92539  0.51690  1.0000
  C   C314      1.0  0.47065  0.91761  0.19797  1.0000
  H   H531      1.0  0.42719  0.87373  0.51471  1.0000
  H   H532      1.0  0.18067  0.88800  0.48612  1.0000
  H   H533      1.0  0.00287  0.69213  0.08350  1.0000
  H   H534      1.0  0.04808  0.98888  0.22178  1.0000
  C   C315      1.0  0.26268  0.95047  0.48446  1.0000
  N   N19       1.0  0.20949  0.94215  0.48592  1.0000
  H   H535      1.0  0.26968  0.93520  0.50210  1.0000
  H   H536      1.0  0.09221  0.96185  0.30957  1.0000
  C   C316      1.0  0.09714  0.94515  0.29443  1.0000
  C   C317      1.0  0.04857  0.90803  0.31972  1.0000
  H   H537      1.0  0.41652  0.95065  0.32456  1.0000
  H   H538      1.0  0.27997  0.95548  0.46604  1.0000
  H   H539      1.0  0.41774  0.93553  0.50874  1.0000
  C   C318      1.0  0.48590  0.70238  0.15127  1.0000
  H   H540      1.0  0.42881  0.86625  0.47558  1.0000
  C   C319      1.0  0.40955  0.95372  0.30120  1.0000
  N   N20       1.0  0.46360  0.70169  0.12989  1.0000
  H   H541      1.0  0.41355  0.96730  0.46363  1.0000
  H   H542      1.0  0.14137  0.95225  0.29426  1.0000
  H   H543      1.0  0.09220  0.90162  0.26771  1.0000
  H   H544      1.0  0.43836  0.67719  0.24920  1.0000
  H   H545      1.0  0.00520  0.91776  0.05971  1.0000
  H   H546      1.0  0.48337  0.98167  0.38612  1.0000
  H   H547      1.0  0.05168  0.88196  0.25630  1.0000
  N   N21       1.0  0.28666  0.86596  0.31817  1.0000
  C   C320      1.0  0.29164  0.83742  0.33271  1.0000
  C   C321      1.0  0.29184  0.86510  0.28380  1.0000
  C   C322      1.0  0.25681  0.87156  0.32671  1.0000
  C   C323      1.0  0.30565  0.88648  0.33047  1.0000
  C   C324      1.0  0.28415  0.83211  0.36785  1.0000
  C   C325      1.0  0.32151  0.85889  0.27162  1.0000
  C   C326      1.0  0.24627  0.89909  0.31325  1.0000
  C   C327      1.0  0.31089  0.91523  0.31210  1.0000
  H   H548      1.0  0.28009  0.82128  0.32202  1.0000
  H   H549      1.0  0.31373  0.83264  0.32861  1.0000
  H   H550      1.0  0.28693  0.88454  0.27087  1.0000
  H   H551      1.0  0.27777  0.84921  0.27602  1.0000
  H   H552      1.0  0.24317  0.85470  0.32008  1.0000
  H   H553      1.0  0.25248  0.87166  0.35201  1.0000
  H   H554      1.0  0.29807  0.88999  0.35446  1.0000
  H   H555      1.0  0.32628  0.87780  0.33228  1.0000
  H   H556      1.0  0.29323  0.84818  0.38061  1.0000
  H   H557      1.0  0.26151  0.82996  0.37398  1.0000
  H   H558      1.0  0.29270  0.81223  0.37611  1.0000
  H   H559      1.0  0.32646  0.83725  0.27832  1.0000
  H   H560      1.0  0.32370  0.86146  0.24607  1.0000
  H   H561      1.0  0.33705  0.87317  0.27923  1.0000
  H   H562      1.0  0.24843  0.90160  0.28781  1.0000
  H   H563      1.0  0.25599  0.91700  0.32260  1.0000
  H   H564      1.0  0.22384  0.89960  0.32066  1.0000
  H   H565      1.0  0.30722  0.93155  0.32800  1.0000
  H   H566      1.0  0.29794  0.91968  0.29320  1.0000
  H   H567      1.0  0.45074  0.92610  0.10276  1.0000
  C   C328      1.0  0.18743  0.89994  0.46373  1.0000
  H   H568      1.0  0.47351  0.88579  0.48632  1.0000
  C   C329      1.0  0.03730  0.74045  0.14844  1.0000
  C   C330      1.0  0.48335  0.77041  0.02840  1.0000
  H   H569      1.0  0.12743  0.97407  0.26569  1.0000
  C   C331      1.0  0.99762  0.95709  0.18807  1.0000
  H   H570      1.0  0.01438  0.89550  0.47965  1.0000
  C   C332      1.0  0.48713  0.95139  0.11303  1.0000
  C   C333      1.0  0.48377  0.95939  0.38933  1.0000
  H   H571      1.0  0.35549  0.95022  0.50443  1.0000
  C   C334      1.0  0.07063  0.96745  0.25600  1.0000
  H   H572      1.0  0.10001  0.92629  0.30989  1.0000
  H   H573      1.0  0.01974  0.97692  0.03224  1.0000
  Fe  Fe51      1.0  0.49043  0.84863  0.18971  1.0000
  C   C335      1.0  0.48706  0.94047  0.48718  1.0000
  C   C336      1.0  0.99947  0.90370  0.49700  1.0000
  H   H574      1.0  0.48224  0.72478  0.08786  1.0000
  C   C337      1.0  0.49336  0.97342  0.05910  1.0000
  H   H575      1.0  0.48961  0.96075  0.49663  1.0000
  H   H576      1.0  0.47744  0.87542  0.06175  1.0000
  H   H577      1.0  0.99958  0.72121  0.17208  1.0000
  C   C338      1.0  0.45157  0.98229  0.09290  1.0000
  N   N22       1.0  0.00762  0.70051  0.13041  1.0000
  H   H578      1.0  0.44769  0.99190  0.26589  1.0000
  H   H579      1.0  0.01052  0.90281  0.11500  1.0000
  H   H580      1.0  0.44122  0.96414  0.50665  1.0000
  H   H581      1.0  0.48686  0.91470  0.30067  1.0000
  H   H582      1.0  0.48925  0.66477  0.07938  1.0000
  H   H583      1.0  0.02834  0.68221  0.02542  1.0000
  C   C339      1.0  0.49202  0.85957  0.05462  1.0000
  C   C340      1.0  0.01201  0.70842  0.09611  1.0000
  C   C341      1.0  0.43710  0.98690  0.12471  1.0000
  H   H584      1.0  0.41473  0.98910  0.12279  1.0000
  H   H585      1.0  0.39666  0.98956  0.33943  1.0000
  H   H586      1.0  0.37451  0.97397  0.26310  1.0000
  N   N23       1.0  0.40721  0.98398  0.29126  1.0000
  S   S102      1.0  0.39219  0.90905  0.66517  1.0000
  S   S103      1.0  0.32686  0.89883  0.71989  1.0000
  Fe  Fe52      1.0  0.42763  0.91680  0.69271  1.0000
  S   S104      1.0  0.46101  0.88647  0.69832  1.0000
  H   H587      1.0  0.43895  0.90763  0.54319  1.0000
  Fe  Fe53      1.0  0.17397  0.91181  0.69968  1.0000
  S   S105      1.0  0.18161  0.87266  0.67784  1.0000
  S   S106      1.0  0.20743  0.94282  0.70759  1.0000
  Fe  Fe54      1.0  0.11179  0.90106  0.70702  1.0000
  S   S107      1.0  0.11424  0.86092  0.68594  1.0000
  H   H588      1.0  0.06641  0.90897  0.91863  1.0000
  Fe  Fe55      1.0  0.14931  0.85356  0.71436  1.0000
  S   S108      1.0  0.15790  0.81178  0.73630  1.0000
  Fe  Fe56      1.0  0.14599  0.88355  0.65124  1.0000
  S   S109      1.0  0.14624  0.87452  0.60180  1.0000
  S   S110      1.0  0.14452  0.89190  0.73858  1.0000
  S   S111      1.0  0.14073  0.92455  0.66994  1.0000
  H   H589      1.0  0.03510  0.68691  0.90876  1.0000
  Fe  Fe57      1.0  0.39862  0.95349  0.64695  1.0000
  H   H590      1.0  0.44625  0.87945  0.78850  1.0000
  H   H591      1.0  0.48004  0.97003  0.82630  1.0000
  S   S112      1.0  0.05991  0.80636  0.92291  1.0000
  H   H592      1.0  0.44522  0.68901  0.99676  1.0000
  Fe  Fe58      1.0  0.06823  0.77194  0.89326  1.0000
  S   S113      1.0  0.10990  0.76380  0.87015  1.0000
  S   S114      1.0  0.40092  0.92865  0.73345  1.0000
  H   H593      1.0  0.08051  0.86140  0.63253  1.0000
  H   H594      1.0  0.26572  0.94515  0.61523  1.0000
  C   C342      1.0  0.49329  0.89963  0.70629  1.0000
  Fe  Fe59      1.0  0.36587  0.92494  0.70408  1.0000
  H   H595      1.0  0.45402  0.95574  0.55323  1.0000
  C   C343      1.0  0.14007  0.90146  0.57437  1.0000
  C   C344      1.0  0.13158  0.89506  0.54619  1.0000
  C   C345      1.0  0.02921  0.92923  0.90917  1.0000
  S   S115      1.0  0.47322  0.83922  0.91688  1.0000
  C   C346      1.0  0.14314  0.92905  0.58031  1.0000
  C   C347      1.0  0.00740  0.98182  0.81396  1.0000
  H   H596      1.0  0.15002  0.93412  0.60185  1.0000
  C   C348      1.0  0.14345  0.80007  0.77363  1.0000
  C   C349      1.0  0.12064  0.81200  0.78843  1.0000
  C   C350      1.0  0.10990  0.80131  0.81840  1.0000
  C   C351      1.0  0.12254  0.77929  0.83355  1.0000
  C   C352      1.0  0.14560  0.76802  0.81882  1.0000
  C   C353      1.0  0.15569  0.77803  0.78887  1.0000
  H   H597      1.0  0.11108  0.82902  0.77661  1.0000
  H   H598      1.0  0.09199  0.81002  0.82974  1.0000
  H   H599      1.0  0.15535  0.75096  0.83039  1.0000
  H   H600      1.0  0.17329  0.76879  0.77754  1.0000
  H   H601      1.0  0.42132  0.92542  0.79692  1.0000
  C   C354      1.0  0.47244  0.89462  0.92111  1.0000
  H   H602      1.0  0.01601  0.89769  0.77794  1.0000
  C   C355      1.0  0.48777  0.95437  0.84287  1.0000
  H   H603      1.0  0.03828  0.87298  0.79319  1.0000
  C   C356      1.0  0.21512  0.93889  0.54469  1.0000
  H   H604      1.0  0.45022  0.89158  0.92372  1.0000
  H   H605      1.0  0.47174  0.93846  0.92365  1.0000
  C   C357      1.0  0.00287  0.92597  0.89961  1.0000
  H   H606      1.0  0.07283  0.95113  0.85728  1.0000
  H   H607      1.0  0.30004  0.97421  0.62959  1.0000
  S   S116      1.0  0.39716  0.97006  0.59735  1.0000
  H   H608      1.0  0.02029  0.74179  0.80767  1.0000
  S   S117      1.0  0.04767  0.77056  0.00699  1.0000
  S   S118      1.0  0.05101  0.73864  0.92956  1.0000
  H   H609      1.0  0.03456  0.95676  0.55771  1.0000
  H   H610      1.0  0.27960  0.87674  0.58211  1.0000
  C   C358      1.0  0.38508  0.94773  0.57190  1.0000
  C   C359      1.0  0.37438  0.95888  0.54518  1.0000
  H   H611      1.0  0.04412  0.69656  0.98884  1.0000
  C   C360      1.0  0.08148  0.69454  0.84578  1.0000
  C   C361      1.0  0.37610  0.90170  0.55716  1.0000
  C   C362      1.0  0.38609  0.91910  0.57774  1.0000
  H   H612      1.0  0.44919  0.85183  0.81721  1.0000
  H   H613      1.0  0.02691  0.68494  0.84202  1.0000
  H   H614      1.0  0.37674  0.87953  0.56187  1.0000
  H   H615      1.0  0.39468  0.91035  0.59803  1.0000
  H   H616      1.0  0.12175  0.68190  0.85750  1.0000
  H   H617      1.0  0.32378  0.91546  0.57613  1.0000
  C   C363      1.0  0.03974  0.88165  0.70199  1.0000
  C   C364      1.0  0.04168  0.90758  0.71308  1.0000
  H   H618      1.0  0.05503  0.69174  0.77578  1.0000
  C   C365      1.0  0.02938  0.96519  0.82936  1.0000
  H   H619      1.0  0.30679  0.95470  0.71479  1.0000
  H   H620      1.0  0.05740  0.86896  0.70067  1.0000
  C   C366      1.0  0.29387  0.91175  0.71709  1.0000
  C   C367      1.0  0.28959  0.94008  0.71464  1.0000
  C   C368      1.0  0.26284  0.94947  0.71241  1.0000
  C   C369      1.0  0.24049  0.93062  0.71178  1.0000
  C   C370      1.0  0.24488  0.90236  0.71397  1.0000
  C   C371      1.0  0.27140  0.89296  0.71710  1.0000
  S   S119      1.0  0.43652  0.95985  0.67087  1.0000
  H   H621      1.0  0.22779  0.88772  0.71347  1.0000
  H   H622      1.0  0.27466  0.87103  0.71895  1.0000
  N   N24       1.0  0.20474  0.86335  0.81121  1.0000
  C   C372      1.0  0.19857  0.83988  0.79246  1.0000
  C   C373      1.0  0.17966  0.86657  0.83343  1.0000
  C   C374      1.0  0.22900  0.85775  0.82922  1.0000
  C   C375      1.0  0.21173  0.88901  0.78953  1.0000
  C   C376      1.0  0.22298  0.83046  0.77142  1.0000
  C   C377      1.0  0.15436  0.87811  0.81906  1.0000
  C   C378      1.0  0.22649  0.83074  0.85086  1.0000
  C   C379      1.0  0.21695  0.91598  0.80444  1.0000
  H   H623      1.0  0.18967  0.82138  0.80742  1.0000
  H   H624      1.0  0.18244  0.84561  0.77714  1.0000
  H   H625      1.0  0.18453  0.87970  0.85180  1.0000
  H   H626      1.0  0.17247  0.84627  0.84604  1.0000
  H   H627      1.0  0.24843  0.85759  0.81362  1.0000
  H   H628      1.0  0.23256  0.87481  0.84382  1.0000
  H   H629      1.0  0.23103  0.88645  0.77462  1.0000
  H   H630      1.0  0.19620  0.89255  0.77277  1.0000
  H   H631      1.0  0.23113  0.84694  0.75342  1.0000
  H   H632      1.0  0.23987  0.82261  0.78443  1.0000
  H   H633      1.0  0.21553  0.81310  0.75918  1.0000
  H   H634      1.0  0.13719  0.87892  0.83753  1.0000
  S   S120      1.0  0.02913  0.77508  0.87050  1.0000
  H   H635      1.0  0.47336  0.89812  0.53739  1.0000
  H   H636      1.0  0.24572  0.82860  0.86231  1.0000
  H   H637      1.0  0.22403  0.81220  0.83833  1.0000
  H   H638      1.0  0.20927  0.83092  0.86933  1.0000
  H   H639      1.0  0.23896  0.91853  0.80863  1.0000
  H   H640      1.0  0.20390  0.91737  0.82624  1.0000
  H   H641      1.0  0.21174  0.93378  0.78865  1.0000
  H   H642      1.0  0.27091  0.93336  0.65349  1.0000
  N   N25       1.0  0.44761  0.92097  0.83402  1.0000
  C   C380      1.0  0.43128  0.93264  0.86056  1.0000
  C   C381      1.0  0.47782  0.92475  0.83815  1.0000
  C   C382      1.0  0.44008  0.89048  0.83610  1.0000
  C   C383      1.0  0.44010  0.93551  0.80429  1.0000
  C   C384      1.0  0.39959  0.92906  0.86193  1.0000
  C   C385      1.0  0.07054  0.95484  0.61403  1.0000
  H   H643      1.0  0.15852  0.89943  0.80793  1.0000
  C   C386      1.0  0.00557  0.67357  0.98590  1.0000
  H   H644      1.0  0.43739  0.92357  0.88292  1.0000
  H   H645      1.0  0.43566  0.95525  0.86004  1.0000
  H   H646      1.0  0.45301  0.94765  0.75606  1.0000
  H   H647      1.0  0.26519  0.90604  0.56220  1.0000
  H   H648      1.0  0.44435  0.88022  0.85886  1.0000
  H   H649      1.0  0.25954  0.97139  0.71070  1.0000
  N   N26       1.0  0.29793  0.91576  0.61911  1.0000
  H   H650      1.0  0.43433  0.95691  0.80757  1.0000
  H   H651      1.0  0.39013  0.94246  0.87890  1.0000
  H   H652      1.0  0.39178  0.93546  0.83959  1.0000
  H   H653      1.0  0.39224  0.90756  0.87004  1.0000
  H   H654      1.0  0.04882  0.96118  0.65943  1.0000
  H   H655      1.0  0.47980  0.95241  0.77970  1.0000
  C   C387      1.0  0.07425  0.74235  0.77318  1.0000
  C   C388      1.0  0.27036  0.92647  0.63011  1.0000
  H   H656      1.0  0.08053  0.91618  0.56797  1.0000
  C   C389      1.0  0.24486  0.90644  0.63242  1.0000
  H   H657      1.0  0.32718  0.85181  0.63531  1.0000
  H   H658      1.0  0.48133  0.95942  0.86659  1.0000
  H   H659      1.0  0.47437  0.89556  0.01037  1.0000
  H   H660      1.0  0.02201  0.94340  0.82972  1.0000
  C   C390      1.0  0.28454  0.89686  0.56859  1.0000
  Fe  Fe60      1.0  0.03900  0.77334  0.95740  1.0000
  H   H661      1.0  0.32197  0.96996  0.59441  1.0000
  S   S121      1.0  0.07276  0.92045  0.72446  1.0000
  H   H662      1.0  0.28399  0.87252  0.63028  1.0000
  Fe  Fe61      1.0  0.01916  0.80718  0.90313  1.0000
  H   H663      1.0  0.04921  0.86307  0.90674  1.0000
  H   H664      1.0  0.07032  0.67747  0.86107  1.0000
  H   H665      1.0  0.07429  0.91303  0.80450  1.0000
  H   H666      1.0  0.08113  0.76449  0.76851  1.0000
  C   C391      1.0  0.04596  0.90651  0.91139  1.0000
  H   H667      1.0  0.08831  0.68401  0.78381  1.0000
  C   C392      1.0  0.02394  0.69224  0.00288  1.0000
  C   C393      1.0  0.45430  0.87420  0.81101  1.0000
  C   C394      1.0  0.07052  0.91803  0.82866  1.0000
  H   H668      1.0  0.29727  0.93826  0.57431  1.0000
  C   C395      1.0  0.06708  0.87513  0.61961  1.0000
  H   H669      1.0  0.05294  0.74037  0.76685  1.0000
  C   C396      1.0  0.03621  0.88046  0.90478  1.0000
  H   H670      1.0  0.47492  0.71283  0.98749  1.0000
  Fe  Fe62      1.0  0.40760  0.97166  0.71002  1.0000
  H   H671      1.0  0.04952  0.91041  0.83844  1.0000
  C   C397      1.0  0.01833  0.92349  0.71560  1.0000
  C   C398      1.0  0.32789  0.87312  0.62372  1.0000
  C   C399      1.0  0.07388  0.90533  0.62541  1.0000
  H   H672      1.0  0.06088  0.97212  0.60156  1.0000
  C   C400      1.0  0.47821  0.67415  0.96483  1.0000
  H   H673      1.0  0.08374  0.71123  0.86128  1.0000
  C   C401      1.0  0.03589  0.70586  0.83352  1.0000
  H   H674      1.0  0.99782  0.87401  0.82972  1.0000
  H   H675      1.0  0.09830  0.95385  0.82500  1.0000
  H   H676      1.0  0.48958  0.94566  0.54874  1.0000
  H   H677      1.0  0.08499  0.90595  0.84197  1.0000
  S   S122      1.0  0.37002  0.96929  0.68415  1.0000
  H   H678      1.0  0.22612  0.91798  0.63839  1.0000
  C   C402      1.0  0.30105  0.88701  0.63404  1.0000
  C   C403      1.0  0.46153  0.69723  0.97853  1.0000
  C   C404      1.0  0.06073  0.96262  0.78154  1.0000
  C   C405      1.0  0.06689  0.68454  0.79507  1.0000
  C   C406      1.0  0.31916  0.96531  0.61974  1.0000
  H   H679      1.0  0.24538  0.88976  0.65132  1.0000
  C   C407      1.0  0.30183  0.91738  0.58450  1.0000
  H   H680      1.0  0.41764  0.88677  0.83467  1.0000
  S   S123      1.0  0.48721  0.76287  0.94111  1.0000
  C   C408      1.0  0.00784  0.94514  0.61318  1.0000
  H   H681      1.0  0.13977  0.97153  0.56284  1.0000
  H   H682      1.0  0.09923  0.73513  0.80938  1.0000
  H   H683      1.0  0.48130  0.94161  0.70808  1.0000
  H   H684      1.0  0.08316  0.94829  0.66103  1.0000
  H   H685      1.0  0.01325  0.85176  0.68439  1.0000
  N   N27       1.0  0.05869  0.96905  0.81471  1.0000
  H   H686      1.0  0.04512  0.90567  0.57143  1.0000
  H   H687      1.0  0.01472  0.70918  0.79118  1.0000
  C   C409      1.0  0.05960  0.92279  0.57566  1.0000
  C   C410      1.0  0.07683  0.73294  0.80729  1.0000
  H   H688      1.0  0.09249  0.95632  0.60398  1.0000
  C   C411      1.0  0.13740  0.95017  0.55820  1.0000
  H   H689      1.0  0.29666  0.89178  0.54719  1.0000
  H   H690      1.0  0.33029  0.87136  0.59861  1.0000
  H   H691      1.0  0.08808  0.73079  0.75783  1.0000
  H   H692      1.0  0.24205  0.89740  0.61074  1.0000
  H   H693      1.0  0.47703  0.87679  0.80880  1.0000
  H   H694      1.0  0.37365  0.98105  0.54055  1.0000
  C   C412      1.0  0.07593  0.94907  0.83212  1.0000
  H   H695      1.0  0.05640  0.97810  0.73421  1.0000
  H   H696      1.0  0.46529  0.92899  0.57855  1.0000
  H   H697      1.0  0.01882  0.90325  0.61907  1.0000
  H   H698      1.0  0.12316  0.69936  0.81972  1.0000
  C   C413      1.0  0.05477  0.94775  0.55280  1.0000
  N   N28       1.0  0.05753  0.92712  0.60946  1.0000
  H   H699      1.0  0.07151  0.96398  0.55179  1.0000
  H   H700      1.0  0.01957  0.94348  0.72438  1.0000
  C   C414      1.0  0.48461  0.92113  0.92131  1.0000
  C   C415      1.0  0.01467  0.87184  0.69300  1.0000
  H   H701      1.0  0.06787  0.74884  0.82156  1.0000
  H   H702      1.0  0.07158  0.87148  0.59508  1.0000
  Fe  Fe63      1.0  0.01070  0.99450  0.91935  1.0000
  H   H703      1.0  0.20166  0.95586  0.55095  1.0000
  H   H704      1.0  0.29987  0.88716  0.65948  1.0000
  H   H705      1.0  0.03518  0.71748  0.85430  1.0000
  H   H706      1.0  0.00363  0.68453  0.96293  1.0000
  C   C416      1.0  0.00975  0.87708  0.89563  1.0000
  C   C417      1.0  0.48460  0.87694  0.00259  1.0000
  H   H707      1.0  0.21305  0.92325  0.56498  1.0000
  H   H708      1.0  0.09635  0.90929  0.61873  1.0000
  H   H709      1.0  0.07122  0.90600  0.65073  1.0000
  S   S124      1.0  0.04206  0.96166  0.91731  1.0000
  H   H710      1.0  0.05555  0.94090  0.52927  1.0000
  H   H711      1.0  0.49109  0.91826  0.81838  1.0000
  C   C418      1.0  0.32015  0.93411  0.62957  1.0000
  H   H712      1.0  0.33662  0.97626  0.62866  1.0000
  H   H713      1.0  0.34638  0.88383  0.63063  1.0000
  C   C419      1.0  0.46782  0.93814  0.55428  1.0000
  C   C420      1.0  0.36506  0.91285  0.53067  1.0000
  C   C421      1.0  0.07003  0.96187  0.64763  1.0000
  Fe  Fe64      1.0  0.01111  0.74452  0.90941  1.0000
  H   H714      1.0  0.04600  0.94525  0.77864  1.0000
  S   S125      1.0  0.48761  0.71209  0.88015  1.0000
  N   N29       1.0  0.06523  0.70433  0.81956  1.0000
  C   C422      1.0  0.45993  0.91584  0.53357  1.0000
  C   C423      1.0  0.02807  0.92348  0.62363  1.0000
  H   H715      1.0  0.02766  0.96854  0.85411  1.0000
  C   C424      1.0  0.02102  0.67070  0.90384  1.0000
  H   H716      1.0  0.34103  0.92818  0.62083  1.0000
  H   H717      1.0  0.08166  0.95546  0.77436  1.0000
  C   C425      1.0  0.46228  0.93825  0.77644  1.0000
  H   H718      1.0  0.31971  0.93171  0.65512  1.0000
  H   H719      1.0  0.12917  0.87370  0.54155  1.0000
  H   H720      1.0  0.02684  0.92197  0.64911  1.0000
  H   H721      1.0  0.14690  0.86454  0.80241  1.0000
  H   H722      1.0  0.10942  0.66415  0.82736  1.0000
  H   H723      1.0  0.04551  0.86839  0.62799  1.0000
  H   H724      1.0  0.01504  0.71256  0.00589  1.0000
  C   C426      1.0  0.01558  0.71928  0.81268  1.0000
  H   H725      1.0  0.47020  0.91823  0.77060  1.0000
  C   C427      1.0  0.01796  0.87532  0.78405  1.0000
  H   H726      1.0  0.49350  0.68427  0.94630  1.0000
  C   C428      1.0  0.11058  0.68456  0.83663  1.0000
  H   H727      1.0  0.45108  0.70828  0.95995  1.0000
  H   H728      1.0  0.00290  0.94713  0.01854  1.0000
  H   H729      1.0  0.48622  0.93027  0.62906  1.0000
  H   H730      1.0  0.01710  0.96625  0.60789  1.0000
  C   C429      1.0  0.12857  0.94377  0.53016  1.0000
  C   C430      1.0  0.36421  0.94148  0.52467  1.0000
  H   H731      1.0  0.09128  0.99474  0.85930  1.0000
  H   H732      1.0  0.44838  0.86294  0.98205  1.0000
  H   H733      1.0  0.07871  0.98325  0.64781  1.0000
  C   C431      1.0  0.48893  0.87197  0.91772  1.0000
  H   H734      1.0  0.48312  0.91107  0.85825  1.0000
  H   H735      1.0  0.49392  0.88311  0.97874  1.0000
  H   H736      1.0  0.99774  0.93886  0.59316  1.0000
  C   C432      1.0  0.46164  0.85489  0.99972  1.0000
  H   H737      1.0  0.47701  0.76629  0.00634  1.0000
  H   H738      1.0  0.01869  0.86404  0.76325  1.0000
  H   H739      1.0  0.37878  0.99227  0.77867  1.0000
  H   H740      1.0  0.00029  0.84152  0.81525  1.0000
  S   S126      1.0  0.99708  0.84479  0.88672  1.0000
  C   C433      1.0  0.05635  0.98646  0.75692  1.0000
  S   S127      1.0  0.99745  0.77691  0.94008  1.0000
  S   S128      1.0  0.45758  0.98950  0.94205  1.0000
  H   H741      1.0  0.37431  0.99418  0.83533  1.0000
  H   H742      1.0  0.47003  0.83555  0.99193  1.0000
  H   H743      1.0  0.00141  0.97252  0.79328  1.0000
  H   H744      1.0  0.23686  0.94663  0.54100  1.0000
  H   H745      1.0  0.48721  0.95515  0.01673  1.0000
  C   C434      1.0  0.12568  0.91618  0.52417  1.0000
  H   H746      1.0  0.44795  0.85025  0.02145  1.0000
  H   H747      1.0  0.18327  0.91989  0.52349  1.0000
  H   H748      1.0  0.53603  0.03677  0.33316  1.0000
  S   S129      1.0  0.52304  0.04038  0.16801  1.0000
  H   H749      1.0  0.57715  0.16662  0.33246  1.0000
  S   S130      1.0  0.52841  0.10436  0.18525  1.0000
  C   C435      1.0  0.59006  0.11953  0.24012  1.0000
  C   C436      1.0  0.90092  0.02753  0.24951  1.0000
  S   S131      1.0  0.52256  0.09631  0.09800  1.0000
  Fe  Fe65      1.0  0.53536  0.06206  0.20769  1.0000
  S   S132      1.0  0.57525  0.04902  0.22523  1.0000
  H   H750      1.0  0.58335  0.16066  0.28040  1.0000
  H   H751      1.0  0.54896  0.16461  0.27401  1.0000
  H   H752      1.0  0.91482  0.09960  0.29033  1.0000
  H   H753      1.0  0.53638  0.02109  0.10603  1.0000
  H   H754      1.0  0.50590  0.29691  0.10040  1.0000
  H   H755      1.0  0.89527  0.07566  0.27210  1.0000
  C   C437      1.0  0.50555  0.12399  0.29003  1.0000
  S   S133      1.0  0.96659  0.06621  0.17465  1.0000
  C   C438      1.0  0.85032  0.31310  0.33278  1.0000
  S   S134      1.0  0.92890  0.27412  0.19282  1.0000
  N   N30       1.0  0.99508  0.20585  0.13285  1.0000
  Fe  Fe66      1.0  0.94723  0.30472  0.15416  1.0000
  H   H756      1.0  0.50081  0.20229  0.09117  1.0000
  H   H757      1.0  0.54009  0.27838  0.06292  1.0000
  S   S135      1.0  0.95700  0.31384  0.23933  1.0000
  H   H758      1.0  0.95007  0.12797  0.02565  1.0000
  C   C439      1.0  0.98192  0.27370  0.03022  1.0000
  C   C440      1.0  0.94516  0.17359  0.22879  1.0000
  C   C441      1.0  0.55216  0.03966  0.28534  1.0000
  H   H759      1.0  0.96862  0.11969  0.07627  1.0000
  N   N31       1.0  0.55840  0.12274  0.29074  1.0000
  H   H760      1.0  0.58868  0.11471  0.21603  1.0000
  C   C442      1.0  0.95391  0.20154  0.22787  1.0000
  H   H761      1.0  0.53643  0.07444  0.04028  1.0000
  C   C443      1.0  0.51173  0.19838  0.21965  1.0000
  H   H762      1.0  0.59473  0.09394  0.35080  1.0000
  H   H763      1.0  0.50150  0.16410  0.05296  1.0000
  C   C444      1.0  0.56095  0.11576  0.25776  1.0000
  C   C445      1.0  0.53025  0.11202  0.30524  1.0000
  C   C446      1.0  0.57908  0.02795  0.32811  1.0000
  H   H764      1.0  0.55377  0.09402  0.25644  1.0000
  H   H765      1.0  0.97716  0.10485  0.02644  1.0000
  C   C447      1.0  0.88683  0.02331  0.32029  1.0000
  C   C448      1.0  0.51867  0.27906  0.05851  1.0000
  C   C449      1.0  0.55395  0.03469  0.31707  1.0000
  S   S136      1.0  0.95252  0.11783  0.23288  1.0000
  H   H766      1.0  0.53675  0.16929  0.05861  1.0000
  H   H767      1.0  0.50580  0.24374  0.14020  1.0000
  H   H768      1.0  0.83552  0.30147  0.34953  1.0000
  C   C450      1.0  0.57570  0.03868  0.26461  1.0000
  C   C451      1.0  0.50149  0.17089  0.22104  1.0000
  H   H769      1.0  0.50559  0.14682  0.28918  1.0000
  H   H770      1.0  0.54096  0.15584  0.33734  1.0000
  C   C452      1.0  0.90424  0.07879  0.29372  1.0000
  C   C453      1.0  0.96052  0.28106  0.05128  1.0000
  C   C454      1.0  0.96623  0.28947  0.07977  1.0000
  H   H771      1.0  0.87990  0.03208  0.25882  1.0000
  C   C455      1.0  0.92545  0.05726  0.30193  1.0000
  C   C456      1.0  0.94495  0.22152  0.13130  1.0000
  H   H772      1.0  0.59869  0.14098  0.23902  1.0000
  H   H773      1.0  0.52685  0.11543  0.32989  1.0000
  H   H774      1.0  0.55903  0.08665  0.34930  1.0000
  C   C457      1.0  0.96114  0.04550  0.06609  1.0000
  S   S137      1.0  0.50730  0.25408  0.22140  1.0000
  C   C458      1.0  0.97639  0.05796  0.08698  1.0000
  H   H775      1.0  0.62177  0.02046  0.31576  1.0000
  H   H776      1.0  0.96486  0.17205  0.13247  1.0000
  H   H777      1.0  0.53286  0.04527  0.27710  1.0000
  C   C459      1.0  0.50234  0.07904  0.07425  1.0000
  S   S138      1.0  0.99328  0.24334  0.23093  1.0000
  Fe  Fe67      1.0  0.96950  0.27885  0.21175  1.0000
  C   C460      1.0  0.49933  0.28952  0.07976  1.0000
  C   C461      1.0  0.55774  0.16622  0.32119  1.0000
  H   H778      1.0  0.61886  0.03011  0.25967  1.0000
  H   H779      1.0  0.83999  0.29022  0.29553  1.0000
  H   H780      1.0  0.93944  0.28005  0.04558  1.0000
  C   C462      1.0  0.87280  0.32071  0.28074  1.0000
  C   C463      1.0  0.56209  0.15367  0.29019  1.0000
  H   H781      1.0  0.60087  0.11998  0.30133  1.0000
  H   H782      1.0  0.57159  0.12130  0.35400  1.0000
  H   H783      1.0  0.54738  0.12848  0.24387  1.0000
  H   H784      1.0  0.52840  0.08917  0.30506  1.0000
  H   H785      1.0  0.51552  0.15453  0.21806  1.0000
  Fe  Fe68      1.0  0.98085  0.02735  0.19845  1.0000
  S   S139      1.0  0.58227  0.02753  0.36759  1.0000
  C   C464      1.0  0.96412  0.15268  0.23144  1.0000
  C   C465      1.0  0.97277  0.04318  0.03602  1.0000
  C   C466      1.0  0.95855  0.21613  0.31141  1.0000
  H   H786      1.0  0.93001  0.01639  0.34972  1.0000
  H   H787      1.0  0.91930  0.27362  0.36785  1.0000
  C   C467      1.0  0.60059  0.03097  0.27562  1.0000
  C   C468      1.0  0.60223  0.02534  0.30732  1.0000
  C   C469      1.0  0.98152  0.20865  0.23075  1.0000
  C   C470      1.0  0.99349  0.29088  0.08697  1.0000
  S   S140      1.0  0.93895  0.29855  0.10551  1.0000
  H   H788      1.0  0.97050  0.22523  0.16821  1.0000
  H   H789      1.0  0.58388  0.08766  0.29851  1.0000
  H   H790      1.0  0.91120  0.04631  0.23628  1.0000
  H   H791      1.0  0.97302  0.03749  0.31757  1.0000
  H   H792      1.0  0.52317  0.19140  0.02985  1.0000
  N   N32       1.0  0.91595  0.02711  0.30485  1.0000
  H   H793      1.0  0.93248  0.06303  0.32401  1.0000
  H   H794      1.0  0.87206  0.03507  0.30721  1.0000
  C   C471      1.0  0.51454  0.07055  0.04665  1.0000
  H   H795      1.0  0.53373  0.20301  0.21592  1.0000
  H   H796      1.0  0.92370  0.16815  0.22714  1.0000
  C   C472      1.0  0.58065  0.10833  0.30689  1.0000
  H   H797      1.0  0.94019  0.03778  0.07320  1.0000
  C   C473      1.0  0.95714  0.27623  0.32322  1.0000
  H   H798      1.0  0.95077  0.21453  0.28877  1.0000
  H   H799      1.0  0.88758  0.07949  0.31274  1.0000
  C   C474      1.0  0.95381  0.30779  0.32208  1.0000
  H   H800      1.0  0.93921  0.21748  0.22557  1.0000
  N   N33       1.0  0.93087  0.25860  0.32363  1.0000
  C   C475      1.0  0.52212  0.16983  0.04071  1.0000
  C   C476      1.0  0.93741  0.22927  0.33348  1.0000
  C   C477      1.0  0.90962  0.26884  0.34684  1.0000
  C   C478      1.0  0.92181  0.26181  0.29165  1.0000
  C   C479      1.0  0.93423  0.01130  0.32546  1.0000
  C   C480      1.0  0.96567  0.01576  0.31679  1.0000
  C   C481      1.0  0.88437  0.24951  0.35876  1.0000
  C   C482      1.0  0.89748  0.24305  0.28476  1.0000
  H   H801      1.0  0.60463  0.10490  0.24977  1.0000
  H   H802      1.0  0.52105  0.21029  0.14161  1.0000
  H   H803      1.0  0.91883  0.21517  0.33660  1.0000
  H   H804      1.0  0.94527  0.22802  0.35655  1.0000
  H   H805      1.0  0.96705  0.06000  0.10994  1.0000
  H   H806      1.0  0.90155  0.28859  0.33744  1.0000
  H   H807      1.0  0.91575  0.28326  0.28587  1.0000
  H   H808      1.0  0.93927  0.25927  0.27389  1.0000
  C   C483      1.0  0.97360  0.22577  0.14270  1.0000
  H   H809      1.0  0.88554  0.03186  0.34308  1.0000
  Fe  Fe69      1.0  0.98191  0.08751  0.21330  1.0000
  S   S141      1.0  0.87547  0.31128  0.24298  1.0000
  C   C484      1.0  0.57584  0.10262  0.34222  1.0000
  H   H810      1.0  0.97682  0.17557  0.16893  1.0000
  H   H811      1.0  0.89016  0.23130  0.37345  1.0000
  H   H812      1.0  0.87266  0.24289  0.34027  1.0000
  H   H813      1.0  0.86994  0.26096  0.37363  1.0000
  H   H814      1.0  0.87774  0.25358  0.28808  1.0000
  H   H815      1.0  0.89562  0.22262  0.29810  1.0000
  H   H816      1.0  0.90054  0.23861  0.26030  1.0000
  H   H817      1.0  0.89785  0.01184  0.23315  1.0000
  H   H818      1.0  0.96196  0.19475  0.32102  1.0000
  H   H819      1.0  0.50464  0.11737  0.26665  1.0000
  Fe  Fe70      1.0  0.91767  0.31140  0.21714  1.0000
  H   H820      1.0  0.97205  0.27277  0.30314  1.0000
  H   H821      1.0  0.98049  0.24743  0.13447  1.0000
  H   H822      1.0  0.94621  0.22052  0.10608  1.0000
  H   H823      1.0  0.55125  0.18777  0.31700  1.0000
  H   H824      1.0  0.93238  0.23942  0.13647  1.0000
  C   C485      1.0  0.91894  0.01563  0.27400  1.0000
  H   H825      1.0  0.93353  0.20298  0.14357  1.0000
  H   H826      1.0  0.94369  0.06132  0.28447  1.0000
  Fe  Fe71      1.0  0.51174  0.08189  0.14813  1.0000
  H   H827      1.0  0.53124  0.23603  0.11059  1.0000
  H   H828      1.0  0.97893  0.22742  0.30824  1.0000
  H   H829      1.0  0.94042  0.01914  0.26309  1.0000
  H   H830      1.0  0.51032  0.16484  0.12240  1.0000
  C   C486      1.0  0.97829  0.13564  0.05829  1.0000
  C   C487      1.0  0.51330  0.22704  0.12636  1.0000
  C   C488      1.0  0.85298  0.30662  0.30230  1.0000
  H   H831      1.0  0.94072  0.31553  0.30428  1.0000
  H   H832      1.0  0.97650  0.00310  0.33381  1.0000
  H   H833      1.0  0.96799  0.27048  0.34394  1.0000
  C   C489      1.0  0.97281  0.12708  0.02640  1.0000
  C   C490      1.0  0.99180  0.15984  0.23367  1.0000
  C   C491      1.0  0.98355  0.17708  0.14382  1.0000
  S   S142      1.0  0.99237  0.04790  0.23933  1.0000
  C   C492      1.0  0.49862  0.05645  0.02759  1.0000
  S   S143      1.0  0.50218  0.31366  0.16069  1.0000
  H   H834      1.0  0.96863  0.15534  0.06279  1.0000
  H   H835      1.0  0.94506  0.31392  0.34466  1.0000
  H   H836      1.0  0.53407  0.12932  0.03066  1.0000
  C   C493      1.0  0.51045  0.26991  0.03135  1.0000
  S   S144      1.0  0.98892  0.30696  0.17136  1.0000
  H   H837      1.0  0.97442  0.31857  0.31667  1.0000
  H   H838      1.0  0.98471  0.19785  0.08744  1.0000
  H   H839      1.0  0.97228  0.00887  0.29401  1.0000
  H   H840      1.0  0.99166  0.13359  0.14847  1.0000
  C   C494      1.0  0.52833  0.00115  0.09924  1.0000
  C   C495      1.0  0.49648  0.00095  0.10260  1.0000
  H   H841      1.0  0.53723  0.99997  0.07521  1.0000
  H   H842      1.0  0.52494  0.10346  0.98757  1.0000
  C   C496      1.0  0.85328  0.01754  0.73932  1.0000
  H   H843      1.0  0.95119  0.32870  0.00649  1.0000
  C   C497      1.0  0.94844  0.32777  0.75304  1.0000
  C   C498      1.0  0.97233  0.13932  0.97133  1.0000
  H   H844      1.0  0.72504  0.31178  0.81647  1.0000
  H   H845      1.0  0.51869  0.08214  0.79363  1.0000
  H   H846      1.0  0.72511  0.29279  0.78467  1.0000
  Fe  Fe72      1.0  0.95711  0.01405  0.89811  1.0000
  H   H847      1.0  0.93667  0.31119  0.79917  1.0000
  C   C499      1.0  0.98222  0.15985  0.88385  1.0000
  C   C500      1.0  0.96096  0.30190  0.85051  1.0000
  H   H848      1.0  0.95169  0.14843  0.97413  1.0000
  S   S145      1.0  0.51763  0.28506  0.86937  1.0000
  H   H849      1.0  0.53266  0.18298  0.96761  1.0000
  C   C501      1.0  0.69138  0.30205  0.73548  1.0000
  H   H850      1.0  0.85212  0.01876  0.71407  1.0000
  S   S146      1.0  0.95802  0.05257  0.92281  1.0000
  H   H851      1.0  0.95572  0.09617  0.98377  1.0000
  S   S147      1.0  0.52645  0.09380  0.88986  1.0000
  S   S148      1.0  0.54513  0.24223  0.91939  1.0000
  H   H852      1.0  0.55238  0.15731  0.00745  1.0000
  Fe  Fe73      1.0  0.55677  0.28308  0.89201  1.0000
  H   H853      1.0  0.93564  0.31204  0.74337  1.0000
  H   H854      1.0  0.97769  0.11598  0.88001  1.0000
  H   H855      1.0  0.65603  0.27749  0.84575  1.0000
  H   H856      1.0  0.95520  0.10897  0.94450  1.0000
  H   H857      1.0  0.55757  0.15007  0.94438  1.0000
  C   C502      1.0  0.51201  0.17195  0.97138  1.0000
  C   C503      1.0  0.59102  0.28901  0.80852  1.0000
  H   H858      1.0  0.58356  0.26843  0.81779  1.0000
  H   H859      1.0  0.50821  0.11621  0.79775  1.0000
  H   H860      1.0  0.96978  0.29170  0.87080  1.0000
  H   H861      1.0  0.55174  0.14804  0.87623  1.0000
  H   H862      1.0  0.68869  0.30856  0.71104  1.0000
  S   S149      1.0  0.54239  0.30817  0.93022  1.0000
  H   H863      1.0  0.83665  0.03823  0.79856  1.0000
  H   H864      1.0  0.97732  0.26683  0.00848  1.0000
  S   S150      1.0  0.51225  0.02931  0.94821  1.0000
  C   C504      1.0  0.95646  0.31556  0.78430  1.0000
  H   H865      1.0  0.67885  0.27952  0.79422  1.0000
  H   H866      1.0  0.57029  0.12831  0.97543  1.0000
  H   H867      1.0  0.96192  0.16407  0.87715  1.0000
  H   H868      1.0  0.85304  0.02937  0.83241  1.0000
  H   H869      1.0  0.67524  0.28557  0.74322  1.0000
  H   H870      1.0  0.53369  0.29921  0.80100  1.0000
  C   C505      1.0  0.51930  0.17659  0.88236  1.0000
  C   C506      1.0  0.98809  0.17397  0.00283  1.0000
  C   C507      1.0  0.94486  0.01697  0.78306  1.0000
  C   C508      1.0  0.94308  0.01709  0.81518  1.0000
  H   H871      1.0  0.98720  0.09937  0.95767  1.0000
  S   S151      1.0  0.98868  0.21567  0.88660  1.0000
  S   S152      1.0  0.53487  0.25723  0.00491  1.0000
  H   H872      1.0  0.95532  0.03409  0.76850  1.0000
  H   H873      1.0  0.95205  0.03427  0.82534  1.0000
  H   H874      1.0  0.49989  0.21422  0.97463  1.0000
  H   H875      1.0  0.96050  0.31953  0.96880  1.0000
  H   H876      1.0  0.59201  0.27989  0.76131  1.0000
  Fe  Fe74      1.0  0.50252  0.30807  0.90912  1.0000
  C   C509      1.0  0.98475  0.31414  0.82675  1.0000
  C   C510      1.0  0.55506  0.12978  0.95826  1.0000
  H   H877      1.0  0.65209  0.30295  0.79592  1.0000
  Fe  Fe75      1.0  0.52701  0.26779  0.95564  1.0000
  H   H878      1.0  0.49713  0.32456  0.00100  1.0000
  C   C511      1.0  0.67076  0.29530  0.83798  1.0000
  H   H879      1.0  0.94753  0.31805  0.85903  1.0000
  Fe  Fe76      1.0  0.97167  0.02501  0.96186  1.0000
  C   C512      1.0  0.59598  0.29546  0.77660  1.0000
  C   C513      1.0  0.52994  0.15018  0.88244  1.0000
  H   H880      1.0  0.53282  0.19474  0.87599  1.0000
  C   C514      1.0  0.52527  0.12367  0.97340  1.0000
  H   H881      1.0  0.81246  0.01769  0.76345  1.0000
  H   H882      1.0  0.99121  0.19466  0.95564  1.0000
  S   S153      1.0  0.59781  0.29872  0.86773  1.0000
  C   C515      1.0  0.59752  0.30855  0.82838  1.0000
  H   H883      1.0  0.56019  0.11388  0.94222  1.0000
  S   S154      1.0  0.95288  0.02753  0.01057  1.0000
  H   H884      1.0  0.94847  0.28571  0.84126  1.0000
  C   C516      1.0  0.72182  0.31393  0.79166  1.0000
  C   C517      1.0  0.50242  0.09420  0.80504  1.0000
  H   H885      1.0  0.66206  0.31323  0.84882  1.0000
  C   C518      1.0  0.67321  0.29971  0.80248  1.0000
  H   H886      1.0  0.96493  0.29505  0.78041  1.0000
  C   C519      1.0  0.82704  0.00190  0.75611  1.0000
  H   H887      1.0  0.51283  0.12000  0.95419  1.0000
  C   C520      1.0  0.53137  0.14950  0.01731  1.0000
  H   H888      1.0  0.69059  0.29026  0.84695  1.0000
  S   S155      1.0  0.99358  0.27509  0.93894  1.0000
  C   C521      1.0  0.51580  0.30000  0.78737  1.0000
  Fe  Fe77      1.0  0.50420  0.24677  0.90051  1.0000
  C   C522      1.0  0.60718  0.32153  0.76446  1.0000
  N   N34       1.0  0.51300  0.14558  0.99219  1.0000
  C   C523      1.0  0.96757  0.10910  0.96442  1.0000
  N   N35       1.0  0.69301  0.32277  0.78751  1.0000
  H   H889      1.0  0.87030  0.99958  0.79454  1.0000
  N   N36       1.0  0.98807  0.14356  0.99859  1.0000
  H   H890      1.0  0.50580  0.27893  0.79065  1.0000
  H   H891      1.0  0.50714  0.16697  0.94825  1.0000
  H   H892      1.0  0.85434  0.03924  0.74513  1.0000
  S   S156      1.0  0.93271  0.99707  0.72953  1.0000
  C   C524      1.0  0.99105  0.13262  0.88559  1.0000
  C   C525      1.0  0.51252  0.12657  0.89044  1.0000
  S   S157      1.0  0.92242  0.99712  0.87387  1.0000
  H   H893      1.0  0.50832  0.04944  0.00674  1.0000
  H   H894      1.0  0.81804  0.01798  0.83147  1.0000
  C   C526      1.0  0.68787  0.32723  0.75411  1.0000
  H   H895      1.0  0.52275  0.30409  0.76249  1.0000
  H   H896      1.0  0.71220  0.29376  0.73601  1.0000
  H   H897      1.0  0.96651  0.18066  0.00674  1.0000
  H   H898      1.0  0.76437  0.32071  0.77148  1.0000
  H   H899      1.0  0.98317  0.15014  0.94989  1.0000
  S   S158      1.0  0.61653  0.32756  0.72470  1.0000
  C   C527      1.0  0.83812  0.02161  0.81724  1.0000
  Fe  Fe78      1.0  0.49958  0.05610  0.90811  1.0000
  H   H900      1.0  0.50334  0.08949  0.83006  1.0000
  H   H901      1.0  0.87290  0.00791  0.74353  1.0000
  H   H902      1.0  0.82107  0.41525  0.32685  1.0000
  Fe  Fe79      1.0  0.59922  0.48916  0.38693  1.0000
  S   S159      1.0  0.59913  0.44764  0.36855  1.0000
  S   S160      1.0  0.58200  0.52714  0.36390  1.0000
  Fe  Fe80      1.0  0.61490  0.46637  0.44966  1.0000
  S   S161      1.0  0.61529  0.42306  0.43665  1.0000
  S   S162      1.0  0.62278  0.47955  0.49615  1.0000
  Fe  Fe81      1.0  0.63788  0.44180  0.39211  1.0000
  S   S163      1.0  0.67342  0.41692  0.37461  1.0000
  Fe  Fe82      1.0  0.57687  0.43280  0.41455  1.0000
  S   S164      1.0  0.53918  0.40408  0.42171  1.0000
  S   S165      1.0  0.64005  0.48490  0.40653  1.0000
  S   S166      1.0  0.57440  0.47450  0.43152  1.0000
  Fe  Fe83      1.0  0.84656  0.41342  0.45098  1.0000
  S   S167      1.0  0.85189  0.45512  0.42436  1.0000
  S   S168      1.0  0.86746  0.42230  0.36276  1.0000
  Fe  Fe84      1.0  0.88954  0.43827  0.40037  1.0000
  S   S169      1.0  0.92821  0.46541  0.38878  1.0000
  Fe  Fe85      1.0  0.82916  0.43570  0.38917  1.0000
  S   S170      1.0  0.79811  0.46075  0.36520  1.0000
  S   S171      1.0  0.49698  0.55413  0.23253  1.0000
  C   C528      1.0  0.50913  0.42046  0.41263  1.0000
  C   C529      1.0  0.51046  0.44331  0.39066  1.0000
  H   H903      1.0  0.49581  0.49215  0.26320  1.0000
  C   C530      1.0  0.95860  0.44791  0.39308  1.0000
  S   S172      1.0  0.82068  0.39524  0.41770  1.0000
  H   H904      1.0  0.96844  0.44961  0.13901  1.0000
  H   H905      1.0  0.53029  0.45225  0.38061  1.0000
  H   H906      1.0  0.77590  0.37124  0.34990  1.0000
  H   H907      1.0  0.93932  0.40722  0.39509  1.0000
  H   H908      1.0  0.54543  0.53211  0.08550  1.0000
  C   C531      1.0  0.70765  0.42990  0.37378  1.0000
  C   C532      1.0  0.71507  0.45751  0.36390  1.0000
  C   C533      1.0  0.74290  0.46681  0.36144  1.0000
  C   C534      1.0  0.76328  0.44882  0.36990  1.0000
  C   C535      1.0  0.75569  0.42145  0.38079  1.0000
  C   C536      1.0  0.72806  0.41188  0.38201  1.0000
  H   H909      1.0  0.69947  0.47146  0.35721  1.0000
  H   H910      1.0  0.74864  0.48799  0.35289  1.0000
  H   H911      1.0  0.77119  0.40742  0.38732  1.0000
  H   H912      1.0  0.72242  0.39045  0.38955  1.0000
  H   H913      1.0  0.91095  0.56733  0.24025  1.0000
  H   H914      1.0  0.96542  0.49249  0.06467  1.0000
  H   H915      1.0  0.92746  0.37620  0.49837  1.0000
  H   H916      1.0  0.85397  0.49291  0.34691  1.0000
  H   H917      1.0  0.99340  0.41955  0.27191  1.0000
  S   S173      1.0  0.98485  0.54461  0.24033  1.0000
  C   C537      1.0  0.55252  0.41263  0.32612  1.0000
  H   H918      1.0  0.54648  0.41077  0.35130  1.0000
  H   H919      1.0  0.53662  0.44616  0.18190  1.0000
  H   H920      1.0  0.51847  0.65264  0.21534  1.0000
  C   C538      1.0  0.57945  0.52892  0.32421  1.0000
  C   C539      1.0  0.59907  0.52380  0.27219  1.0000
  C   C540      1.0  0.60006  0.51910  0.30413  1.0000
  H   H921      1.0  0.61547  0.51694  0.25664  1.0000
  H   H922      1.0  0.61731  0.50894  0.31319  1.0000
  H   H923      1.0  0.93401  0.43351  0.46886  1.0000
  H   H924      1.0  0.63465  0.42134  0.49540  1.0000
  C   C541      1.0  0.63853  0.42799  0.51738  1.0000
  C   C542      1.0  0.50918  0.40649  0.27084  1.0000
  S   S174      1.0  0.52301  0.54187  0.16278  1.0000
  H   H925      1.0  0.76001  0.47267  0.45856  1.0000
  S   S175      1.0  0.53063  0.60384  0.18550  1.0000
  H   H926      1.0  0.86504  0.45658  0.49528  1.0000
  H   H927      1.0  0.85274  0.38192  0.25970  1.0000
  S   S176      1.0  0.52098  0.60171  0.09790  1.0000
  Fe  Fe86      1.0  0.53762  0.56021  0.20365  1.0000
  S   S177      1.0  0.57663  0.54386  0.22036  1.0000
  H   H928      1.0  0.81900  0.45176  0.28209  1.0000
  C   C543      1.0  0.99521  0.57567  0.08034  1.0000
  C   C544      1.0  0.83635  0.43784  0.28415  1.0000
  Fe  Fe87      1.0  0.97759  0.58727  0.21916  1.0000
  C   C545      1.0  0.57277  0.61547  0.33485  1.0000
  C   C546      1.0  0.56228  0.64718  0.27158  1.0000
  H   H929      1.0  0.91817  0.43744  0.20428  1.0000
  C   C547      1.0  0.55735  0.54240  0.31235  1.0000
  C   C548      1.0  0.55618  0.54673  0.28050  1.0000
  C   C549      1.0  0.57722  0.53779  0.26034  1.0000
  H   H930      1.0  0.54130  0.54981  0.32791  1.0000
  H   H931      1.0  0.53938  0.55756  0.27157  1.0000
  H   H932      1.0  0.74982  0.38870  0.26907  1.0000
  C   C550      1.0  0.95524  0.54915  0.06837  1.0000
  S   S178      1.0  0.94018  0.49335  0.20057  1.0000
  H   H933      1.0  0.73678  0.49606  0.41555  1.0000
  C   C551      1.0  0.77762  0.40861  0.29834  1.0000
  H   H934      1.0  0.93528  0.53897  0.07567  1.0000
  C   C552      1.0  0.95820  0.41907  0.39657  1.0000
  S   S179      1.0  0.88621  0.39807  0.43017  1.0000
  Fe  Fe88      1.0  0.51168  0.58464  0.14743  1.0000
  N   N37       1.0  0.91387  0.52978  0.31223  1.0000
  C   C553      1.0  0.92368  0.54029  0.34085  1.0000
  C   C554      1.0  0.88352  0.52200  0.31928  1.0000
  C   C555      1.0  0.91759  0.55336  0.28712  1.0000
  C   C556      1.0  0.93091  0.50572  0.30389  1.0000
  H   H935      1.0  0.93870  0.38925  0.45900  1.0000
  H   H936      1.0  0.58211  0.60666  0.27632  1.0000
  C   C557      1.0  0.95006  0.47207  0.48069  1.0000
  C   C558      1.0  0.79602  0.36283  0.34255  1.0000
  H   H937      1.0  0.90986  0.55622  0.34958  1.0000
  H   H938      1.0  0.92283  0.52337  0.35985  1.0000
  C   C559      1.0  0.52184  0.61948  0.29805  1.0000
  H   H939      1.0  0.87176  0.54057  0.32424  1.0000
  H   H940      1.0  0.90672  0.57171  0.29470  1.0000
  H   H941      1.0  0.93963  0.56031  0.28207  1.0000
  H   H942      1.0  0.95123  0.51325  0.29173  1.0000
  H   H943      1.0  0.93565  0.49330  0.32518  1.0000
  H   H944      1.0  0.82218  0.35510  0.30252  1.0000
  H   H945      1.0  0.55026  0.47995  0.52177  1.0000
  C   C560      1.0  0.99055  0.65883  0.25067  1.0000
  H   H946      1.0  0.53723  0.45629  0.49784  1.0000
  C   C561      1.0  0.91809  0.48478  0.28422  1.0000
  H   H947      1.0  0.99139  0.65819  0.04769  1.0000
  H   H948      1.0  0.74920  0.47677  0.51494  1.0000
  H   H949      1.0  0.95021  0.35305  0.06643  1.0000
  C   C562      1.0  0.75060  0.39297  0.29333  1.0000
  H   H950      1.0  0.69191  0.40703  0.48505  1.0000
  H   H951      1.0  0.74686  0.37356  0.30870  1.0000
  H   H952      1.0  0.92368  0.46625  0.13734  1.0000
  H   H953      1.0  0.49786  0.52027  0.08493  1.0000
  H   H954      1.0  0.79169  0.37977  0.24935  1.0000
  H   H955      1.0  0.51828  0.36892  0.37324  1.0000
  C   C563      1.0  0.94038  0.43694  0.20360  1.0000
  H   H956      1.0  0.51897  0.43875  0.31951  1.0000
  C   C564      1.0  0.51422  0.58113  0.04304  1.0000
  C   C565      1.0  0.69396  0.41480  0.46042  1.0000
  H   H957      1.0  0.80771  0.41276  0.24402  1.0000
  C   C566      1.0  0.71017  0.45672  0.50436  1.0000
  H   H958      1.0  0.69190  0.49861  0.47053  1.0000
  H   H959      1.0  0.54984  0.43155  0.10134  1.0000
  C   C567      1.0  0.90813  0.54783  0.25574  1.0000
  H   H960      1.0  0.96853  0.53984  0.32607  1.0000
  H   H961      1.0  0.96018  0.62048  0.06970  1.0000
  C   C568      1.0  0.95627  0.46165  0.20228  1.0000
  S   S180      1.0  0.83315  0.40464  0.50162  1.0000
  N   N38       1.0  0.54158  0.64371  0.29984  1.0000
  H   H962      1.0  0.90922  0.46618  0.29893  1.0000
  H   H963      1.0  0.74446  0.41107  0.47878  1.0000
  H   H964      1.0  0.90470  0.35310  0.27288  1.0000
  C   C569      1.0  0.98193  0.41086  0.20225  1.0000
  H   H965      1.0  0.71722  0.52525  0.42383  1.0000
  H   H966      1.0  0.87804  0.50837  0.36895  1.0000
  N   N39       1.0  0.80395  0.39401  0.29142  1.0000
  H   H967      1.0  0.53258  0.59995  0.29662  1.0000
  H   H968      1.0  0.94274  0.48278  0.45972  1.0000
  H   H969      1.0  0.53495  0.58938  0.03568  1.0000
  H   H970      1.0  0.98175  0.38311  0.40567  1.0000
  H   H971      1.0  0.54395  0.39395  0.31720  1.0000
  H   H972      1.0  0.77742  0.42556  0.46309  1.0000
  H   H973      1.0  0.94396  0.61842  0.03537  1.0000
  H   H974      1.0  0.99133  0.33888  0.04586  1.0000
  H   H975      1.0  0.88603  0.54137  0.25702  1.0000
  H   H976      1.0  0.93416  0.47429  0.50002  1.0000
  H   H977      1.0  0.57533  0.41279  0.32317  1.0000
  H   H978      1.0  0.59411  0.61860  0.32332  1.0000
  H   H979      1.0  0.85191  0.44863  0.29623  1.0000
  H   H980      1.0  0.51099  0.38419  0.27793  1.0000
  C   C570      1.0  0.95913  0.36822  0.04722  1.0000
  C   C571      1.0  0.51433  0.44548  0.18569  1.0000
  H   H981      1.0  0.98581  0.39794  0.47085  1.0000
  H   H982      1.0  0.98916  0.49489  0.33308  1.0000
  H   H983      1.0  0.98871  0.51023  0.10403  1.0000
  S   S181      1.0  0.95222  0.61766  0.24425  1.0000
  H   H984      1.0  0.51007  0.37360  0.04786  1.0000
  C   C572      1.0  0.55596  0.64126  0.32880  1.0000
  H   H985      1.0  0.84567  0.39772  0.30490  1.0000
  C   C573      1.0  0.80871  0.39224  0.25724  1.0000
  H   H986      1.0  0.74593  0.45051  0.43394  1.0000
  H   H987      1.0  0.95847  0.38857  0.05671  1.0000
  C   C574      1.0  0.98228  0.40542  0.40231  1.0000
  C   C575      1.0  0.98492  0.46085  0.20153  1.0000
  H   H988      1.0  0.51232  0.48903  0.18918  1.0000
  C   C576      1.0  0.95319  0.41154  0.20369  1.0000
  H   H989      1.0  0.90269  0.49295  0.26938  1.0000
  H   H990      1.0  0.50735  0.61015  0.34734  1.0000
  H   H991      1.0  0.76277  0.43507  0.49906  1.0000
  C   C577      1.0  0.80232  0.36514  0.30725  1.0000
  S   S182      1.0  0.95890  0.57222  0.17875  1.0000
  Fe  Fe89      1.0  0.86094  0.38331  0.39437  1.0000
  H   H992      1.0  0.67372  0.45330  0.46223  1.0000
  H   H993      1.0  0.69759  0.45101  0.42960  1.0000
  H   H994      1.0  0.96054  0.56210  0.11313  1.0000
  H   H995      1.0  0.96955  0.48303  0.48450  1.0000
  C   C578      1.0  0.87593  0.49994  0.34661  1.0000
  C   C579      1.0  0.96958  0.56216  0.08965  1.0000
  H   H996      1.0  0.56320  0.59642  0.32813  1.0000
  H   H997      1.0  0.53600  0.45893  0.12200  1.0000
  H   H998      1.0  0.58046  0.66038  0.27558  1.0000
  H   H999      1.0  0.92925  0.47962  0.09797  1.0000
  H   H1000     1.0  0.88851  0.48160  0.34496  1.0000
  H   H1001     1.0  0.72791  0.50532  0.47197  1.0000
  H   H1002     1.0  0.94639  0.49577  0.12712  1.0000
  C   C580      1.0  0.99239  0.56243  0.02851  1.0000
  H   H1003     1.0  0.89897  0.36562  0.32701  1.0000
  H   H1004     1.0  0.77545  0.41398  0.32245  1.0000
  H   H1005     1.0  0.54141  0.64304  0.34965  1.0000
  C   C581      1.0  0.82711  0.41018  0.30297  1.0000
  C   C582      1.0  0.95464  0.63287  0.04886  1.0000
  H   H1006     1.0  0.84638  0.43471  0.26101  1.0000
  C   C583      1.0  0.93960  0.47586  0.11926  1.0000
  C   C584      1.0  0.54065  0.51095  0.07927  1.0000
  H   H1007     1.0  0.84293  0.38795  0.22211  1.0000
  H   H1008     1.0  0.73303  0.40612  0.29921  1.0000
  Fe  Fe90      1.0  0.97233  0.34160  0.19712  1.0000
  C   C585      1.0  0.71693  0.50233  0.42675  1.0000
  C   C586      1.0  0.71278  0.49249  0.46143  1.0000
  C   C587      1.0  0.96341  0.45597  0.11530  1.0000
  H   H1009     1.0  0.87448  0.51435  0.29933  1.0000
  H   H1010     1.0  0.57084  0.65909  0.32882  1.0000
  C   C588      1.0  0.69475  0.44649  0.45493  1.0000
  H   H1011     1.0  0.77804  0.42879  0.28414  1.0000
  C   C589      1.0  0.51913  0.45431  0.07766  1.0000
  N   N40       1.0  0.54690  0.44453  0.27701  1.0000
  C   C590      1.0  0.57778  0.44948  0.27000  1.0000
  C   C591      1.0  0.54121  0.43942  0.31154  1.0000
  C   C592      1.0  0.53362  0.47059  0.26581  1.0000
  C   C593      1.0  0.53813  0.42030  0.26055  1.0000
  C   C594      1.0  0.58851  0.45886  0.23621  1.0000
  H   H1012     1.0  0.95210  0.35851  0.47552  1.0000
  C   C595      1.0  0.88601  0.34932  0.32003  1.0000
  H   H1013     1.0  0.58562  0.46531  0.28421  1.0000
  H   H1014     1.0  0.58879  0.43048  0.27616  1.0000
  C   C596      1.0  0.98026  0.47577  0.06360  1.0000
  H   H1015     1.0  0.54987  0.45702  0.32274  1.0000
  H   H1016     1.0  0.54262  0.48859  0.27594  1.0000
  H   H1017     1.0  0.53791  0.47495  0.24044  1.0000
  H   H1018     1.0  0.53898  0.42632  0.23548  1.0000
  H   H1019     1.0  0.55317  0.40368  0.26240  1.0000
  H   H1020     1.0  0.58320  0.48038  0.22938  1.0000
  H   H1021     1.0  0.61140  0.45885  0.23372  1.0000
  H   H1022     1.0  0.58116  0.44485  0.21991  1.0000
  H   H1023     1.0  0.92035  0.41653  0.51966  1.0000
  C   C597      1.0  0.96574  0.65196  0.23919  1.0000
  S   S183      1.0  0.93198  0.34169  0.17662  1.0000
  H   H1024     1.0  0.96910  0.45822  0.05485  1.0000
  H   H1025     1.0  0.95985  0.55533  0.36085  1.0000
  H   H1026     1.0  0.95482  0.43695  0.10671  1.0000
  H   H1027     1.0  0.94083  0.39257  0.20477  1.0000
  C   C598      1.0  0.74505  0.45484  0.45845  1.0000
  H   H1028     1.0  0.98389  0.48538  0.39126  1.0000
  N   N41       1.0  0.71622  0.46211  0.46993  1.0000
  H   H1029     1.0  0.78686  0.35181  0.29779  1.0000
  C   C599      1.0  0.51317  0.34672  0.38005  1.0000
  H   H1030     1.0  0.71204  0.40628  0.44785  1.0000
  H   H1031     1.0  0.57388  0.61119  0.36000  1.0000
  H   H1032     1.0  0.95482  0.57396  0.32511  1.0000
  C   C600      1.0  0.96663  0.54912  0.03779  1.0000
  H   H1033     1.0  0.93484  0.47710  0.26862  1.0000
  C   C601      1.0  0.75766  0.43020  0.47608  1.0000
  H   H1034     1.0  0.69968  0.49514  0.41443  1.0000
  C   C602      1.0  0.88943  0.34207  0.28957  1.0000
  H   H1035     1.0  0.94508  0.36757  0.02906  1.0000
  H   H1036     1.0  0.59017  0.62649  0.24021  1.0000
  H   H1037     1.0  0.68818  0.46020  0.51130  1.0000
  C   C603      1.0  0.51047  0.50253  0.09148  1.0000
  S   S184      1.0  0.51732  0.38998  0.18210  1.0000
  H   H1038     1.0  0.92119  0.53278  0.24448  1.0000
  H   H1039     1.0  0.67560  0.40643  0.45060  1.0000
  S   S185      1.0  0.86408  0.34004  0.38078  1.0000
  N   N42       1.0  0.98893  0.46729  0.09504  1.0000
  C   C604      1.0  0.83549  0.37869  0.24568  1.0000
  C   C605      1.0  0.57337  0.62068  0.25893  1.0000
  C   C606      1.0  0.95345  0.55297  0.33759  1.0000
  H   H1040     1.0  0.83181  0.35608  0.24512  1.0000
  H   H1041     1.0  0.56717  0.44776  0.51584  1.0000
  H   H1042     1.0  0.49731  0.41560  0.28973  1.0000
  H   H1043     1.0  0.96875  0.44114  0.45444  1.0000
  H   H1044     1.0  0.94019  0.64825  0.05708  1.0000
  C   C607      1.0  0.95409  0.44156  0.47530  1.0000
  H   H1045     1.0  0.55532  0.49723  0.09013  1.0000
  H   H1046     1.0  0.50975  0.50166  0.11701  1.0000
  H   H1047     1.0  0.54473  0.51160  0.05404  1.0000
  H   H1048     1.0  0.97901  0.38248  0.50897  1.0000
  H   H1049     1.0  0.49647  0.40755  0.25116  1.0000
  H   H1050     1.0  0.51167  0.62224  0.27638  1.0000
  C   C608      1.0  0.86659  0.33457  0.34171  1.0000
  C   C609      1.0  0.54715  0.45763  0.51942  1.0000
  C   C610      1.0  0.53078  0.44256  0.10731  1.0000
  Fe  Fe91      1.0  0.96992  0.53021  0.19766  1.0000
  C   C611      1.0  0.98908  0.43586  0.51270  1.0000
  C   C612      1.0  0.96984  0.39574  0.49096  1.0000
  H   H1051     1.0  0.53708  0.46202  0.06122  1.0000
  H   H1052     1.0  0.55719  0.60921  0.24846  1.0000
  C   C613      1.0  0.98341  0.46305  0.39401  1.0000
  H   H1053     1.0  0.71294  0.43485  0.51254  1.0000
  C   C614      1.0  0.94535  0.37929  0.48060  1.0000
  C   C615      1.0  0.50246  0.58391  0.07298  1.0000
  H   H1054     1.0  0.81262  0.37298  0.35364  1.0000
  N   N43       1.0  0.96343  0.42355  0.50172  1.0000
  H   H1055     1.0  0.99113  0.37562  0.30792  1.0000
  H   H1056     1.0  0.55314  0.65824  0.25194  1.0000
  C   C616      1.0  0.98927  0.36099  0.03794  1.0000
  H   H1057     1.0  0.98161  0.45949  0.29614  1.0000
  H   H1058     1.0  0.99029  0.44664  0.33300  1.0000
  C   C617      1.0  0.49943  0.42023  0.18687  1.0000
  H   H1059     1.0  0.52427  0.64600  0.03859  1.0000
  C   C618      1.0  0.86686  0.44617  0.51779  1.0000
  H   H1060     1.0  0.97589  0.40396  0.32502  1.0000
  H   H1061     1.0  0.79504  0.34068  0.35151  1.0000
  C   C619      1.0  0.98128  0.64650  0.03099  1.0000
  C   C620      1.0  0.50056  0.46989  0.18941  1.0000
  C   C621      1.0  0.50205  0.47146  0.27213  1.0000
  H   H1062     1.0  0.52419  0.34123  0.40061  1.0000
  H   H1063     1.0  0.52163  0.33418  0.36181  1.0000
  H   H1064     1.0  0.53466  0.33720  0.02964  1.0000
  C   C622      1.0  0.49888  0.61394  0.32488  1.0000
  H   H1065     1.0  0.51590  0.42715  0.12077  1.0000
  H   H1066     1.0  0.50997  0.43649  0.06737  1.0000
  N   N44       1.0  0.49826  0.47614  0.08169  1.0000
  S   S186      1.0  0.89111  0.39975  0.65877  1.0000
  S   S187      1.0  0.82626  0.38887  0.71529  1.0000
  Fe  Fe92      1.0  0.92690  0.40445  0.68634  1.0000
  S   S188      1.0  0.96021  0.37390  0.68660  1.0000
  C   C623      1.0  0.75308  0.44938  0.61774  1.0000
  Fe  Fe93      1.0  0.67327  0.41907  0.70276  1.0000
  S   S189      1.0  0.67616  0.37878  0.68189  1.0000
  S   S190      1.0  0.70901  0.44069  0.72137  1.0000
  Fe  Fe94      1.0  0.61434  0.42685  0.68675  1.0000
  S   S191      1.0  0.61308  0.38764  0.66402  1.0000
  S   S192      1.0  0.57863  0.45494  0.68758  1.0000
  Fe  Fe95      1.0  0.63301  0.36989  0.70476  1.0000
  C   C624      1.0  0.82981  0.49885  0.82083  1.0000
  Fe  Fe96      1.0  0.65585  0.40055  0.64338  1.0000
  S   S193      1.0  0.67000  0.39538  0.59392  1.0000
  S   S194      1.0  0.63163  0.40845  0.72915  1.0000
  S   S195      1.0  0.65564  0.44148  0.66268  1.0000
  C   C625      1.0  0.55448  0.45670  0.78655  1.0000
  C   C626      1.0  0.52352  0.45426  0.68154  1.0000
  C   C627      1.0  0.57555  0.41351  0.60543  1.0000
  N   N45       1.0  0.53881  0.43964  0.57740  1.0000
  C   C628      1.0  0.65479  0.41804  0.56771  1.0000
  C   C629      1.0  0.54530  0.35657  0.75403  1.0000
  H   H1067     1.0  0.94925  0.52561  0.83031  1.0000
  C   C630      1.0  0.63850  0.46329  0.55266  1.0000
  C   C631      1.0  0.64883  0.44476  0.57464  1.0000
  H   H1068     1.0  0.55440  0.33948  0.76712  1.0000
  H   H1069     1.0  0.65297  0.45149  0.59656  1.0000
  C   C632      1.0  0.53832  0.48142  0.77456  1.0000
  H   H1070     1.0  0.84459  0.41363  0.78502  1.0000
  C   C633      1.0  0.53519  0.40511  0.91326  1.0000
  C   C634      1.0  0.98953  0.39275  0.98929  1.0000
  H   H1071     1.0  0.96393  0.40261  0.56500  1.0000
  S   S196      1.0  0.53503  0.45936  0.92444  1.0000
  C   C635      1.0  0.53434  0.34689  0.00577  1.0000
  C   C636      1.0  0.51731  0.42277  0.59921  1.0000
  H   H1072     1.0  0.80559  0.38028  0.61161  1.0000
  H   H1073     1.0  0.70118  0.34419  0.74136  1.0000
  H   H1074     1.0  0.75911  0.39288  0.64139  1.0000
  H   H1075     1.0  0.85358  0.48614  0.74678  1.0000
  C   C637      1.0  0.69568  0.37665  0.78487  1.0000
  H   H1076     1.0  0.52087  0.47598  0.01805  1.0000
  H   H1077     1.0  0.97138  0.40248  0.89308  1.0000
  H   H1078     1.0  0.93533  0.34569  0.75525  1.0000
  H   H1079     1.0  0.83204  0.53216  0.74803  1.0000
  H   H1080     1.0  0.93857  0.44115  0.53806  1.0000
  C   C638      1.0  0.88266  0.44645  0.56874  1.0000
  H   H1081     1.0  0.55829  0.64421  0.89516  1.0000
  C   C639      1.0  0.88092  0.45943  0.53916  1.0000
  C   C640      1.0  0.51651  0.39685  0.69065  1.0000
  C   C641      1.0  0.85650  0.40674  0.55541  1.0000
  C   C642      1.0  0.87067  0.41994  0.57670  1.0000
  C   C643      1.0  0.51336  0.41159  0.99536  1.0000
  C   C644      1.0  0.63340  0.45500  0.52394  1.0000
  H   H1082     1.0  0.84686  0.38640  0.56186  1.0000
  H   H1083     1.0  0.87208  0.40967  0.59928  1.0000
  C   C645      1.0  0.98488  0.62825  0.89099  1.0000
  H   H1084     1.0  0.87422  0.49398  0.77576  1.0000
  C   C646      1.0  0.54282  0.40958  0.69047  1.0000
  C   C647      1.0  0.54633  0.43833  0.68609  1.0000
  H   H1085     1.0  0.84644  0.44064  0.75452  1.0000
  H   H1086     1.0  0.74216  0.34265  0.75320  1.0000
  C   C648      1.0  0.77946  0.46987  0.80065  1.0000
  H   H1087     1.0  0.56026  0.39713  0.69414  1.0000
  C   C649      1.0  0.79423  0.40417  0.71437  1.0000
  C   C650      1.0  0.79176  0.43261  0.71521  1.0000
  C   C651      1.0  0.76549  0.44370  0.71723  1.0000
  C   C652      1.0  0.74173  0.42656  0.71721  1.0000
  C   C653      1.0  0.74439  0.39837  0.71473  1.0000
  C   C654      1.0  0.77054  0.38717  0.71376  1.0000
  H   H1088     1.0  0.76351  0.46561  0.71875  1.0000
  H   H1089     1.0  0.72625  0.38511  0.71433  1.0000
  H   H1090     1.0  0.77256  0.36528  0.71228  1.0000
  Fe  Fe97      1.0  0.90860  0.45811  0.70912  1.0000
  S   S197      1.0  0.90137  0.41402  0.72898  1.0000
  S   S198      1.0  0.92360  0.49331  0.73424  1.0000
  Fe  Fe98      1.0  0.89857  0.44485  0.64413  1.0000
  S   S199      1.0  0.90043  0.46367  0.59488  1.0000
  Fe  Fe99      1.0  0.86595  0.41367  0.69971  1.0000
  S   S200      1.0  0.87082  0.45883  0.68326  1.0000
  S   S201      1.0  0.93666  0.44844  0.66837  1.0000
  Fe  Fe100     1.0  0.95740  0.50763  0.90213  1.0000
  H   H1091     1.0  0.55894  0.37546  0.75313  1.0000
  S   S202      1.0  0.92695  0.48324  0.87817  1.0000
  Fe  Fe101     1.0  0.96865  0.52723  0.96442  1.0000
  H   H1092     1.0  0.80246  0.37621  0.65260  1.0000
  H   H1093     1.0  0.94744  0.52914  0.77372  1.0000
  H   H1094     1.0  0.95876  0.61336  0.95618  1.0000
  C   C655      1.0  0.52574  0.35205  0.82059  1.0000
  H   H1095     1.0  0.49669  0.43871  0.82734  1.0000
  S   S203      1.0  0.95519  0.54910  0.92129  1.0000
  S   S204      1.0  0.96658  0.48550  0.94689  1.0000
  H   H1096     1.0  0.78508  0.45246  0.81645  1.0000
  H   H1097     1.0  0.79842  0.50560  0.77415  1.0000
  H   H1098     1.0  0.76886  0.48503  0.81458  1.0000
  H   H1099     1.0  0.66658  0.33417  0.75227  1.0000
  H   H1100     1.0  0.77032  0.36946  0.58172  1.0000
  H   H1101     1.0  0.97094  0.61198  0.88566  1.0000
  H   H1102     1.0  0.53501  0.36188  0.90695  1.0000
  H   H1103     1.0  0.97219  0.42476  0.71303  1.0000
  H   H1104     1.0  0.81002  0.44589  0.71496  1.0000
  C   C656      1.0  0.92884  0.48835  0.77352  1.0000
  C   C657      1.0  0.91941  0.46405  0.79155  1.0000
  C   C658      1.0  0.91974  0.46239  0.82364  1.0000
  C   C659      1.0  0.93027  0.48466  0.83776  1.0000
  C   C660      1.0  0.94122  0.50831  0.81957  1.0000
  C   C661      1.0  0.94019  0.51025  0.78755  1.0000
  H   H1105     1.0  0.91067  0.44707  0.78096  1.0000
  H   H1106     1.0  0.91131  0.44403  0.83767  1.0000
  C   C662      1.0  0.51967  0.42870  0.91440  1.0000
  C   C663      1.0  0.58487  0.65794  0.79864  1.0000
  C   C664      1.0  0.52100  0.62558  0.88218  1.0000
  C   C665      1.0  0.56444  0.42324  0.57474  1.0000
  C   C666      1.0  0.79579  0.45980  0.56153  1.0000
  S   S205      1.0  0.53460  0.59277  0.88150  1.0000
  H   H1107     1.0  0.54727  0.33420  0.99077  1.0000
  N   N46       1.0  0.97647  0.33252  0.79991  1.0000
  C   C667      1.0  0.79780  0.44131  0.59162  1.0000
  C   C668      1.0  0.85413  0.42002  0.52616  1.0000
  H   H1108     1.0  0.52201  0.39335  0.83694  1.0000
  H   H1109     1.0  0.58826  0.47141  0.59368  1.0000
  H   H1110     1.0  0.53006  0.40649  0.97804  1.0000
  H   H1111     1.0  0.51473  0.40147  0.59218  1.0000
  S   S206      1.0  0.99248  0.34828  0.89573  1.0000
  H   H1112     1.0  0.86458  0.48199  0.84429  1.0000
  N   N47       1.0  0.50464  0.35031  0.79776  1.0000
  H   H1113     1.0  0.79417  0.39574  0.56132  1.0000
  H   H1114     1.0  0.54044  0.46537  0.61529  1.0000
  H   H1115     1.0  0.54591  0.44734  0.80954  1.0000
  H   H1116     1.0  0.52806  0.48200  0.58224  1.0000
  N   N48       1.0  0.83169  0.48340  0.79255  1.0000
  H   H1117     1.0  0.95201  0.35414  0.97297  1.0000
  H   H1118     1.0  0.95401  0.65886  0.89187  1.0000
  C   C669      1.0  0.99196  0.40374  0.90024  1.0000
  H   H1119     1.0  0.92745  0.40112  0.57356  1.0000
  S   S207      1.0  0.94834  0.53167  0.01218  1.0000
  H   H1120     1.0  0.54817  0.48746  0.75069  1.0000
  H   H1121     1.0  0.69626  0.34809  0.82538  1.0000
  C   C670      1.0  0.53753  0.64770  0.88945  1.0000
  H   H1122     1.0  0.54614  0.35101  0.72997  1.0000
  C   C671      1.0  0.75612  0.41154  0.58478  1.0000
  H   H1123     1.0  0.56335  0.39516  0.61713  1.0000
  H   H1124     1.0  0.55521  0.37960  0.83803  1.0000
  H   H1125     1.0  0.97730  0.44106  0.83083  1.0000
  H   H1126     1.0  0.96679  0.39221  0.99008  1.0000
  H   H1127     1.0  0.78306  0.47784  0.56501  1.0000
  H   H1128     1.0  0.74740  0.42578  0.56734  1.0000
  H   H1129     1.0  0.94093  0.35275  0.81981  1.0000
  C   C672      1.0  0.61211  0.34165  0.78430  1.0000
  H   H1130     1.0  0.89011  0.47998  0.53294  1.0000
  C   C673      1.0  0.64960  0.40967  0.53906  1.0000
  C   C674      1.0  0.52773  0.44316  0.54639  1.0000
  H   H1131     1.0  0.98862  0.41022  0.61444  1.0000
  C   C675      1.0  0.96128  0.64996  0.98088  1.0000
  H   H1132     1.0  0.96653  0.33276  0.73592  1.0000
  H   H1133     1.0  0.54365  0.33935  0.81545  1.0000
  H   H1134     1.0  0.58166  0.43497  0.56026  1.0000
  H   H1135     1.0  0.86869  0.53451  0.74130  1.0000
  H   H1136     1.0  0.94261  0.37803  0.54824  1.0000
  H   H1137     1.0  0.76364  0.38749  0.54562  1.0000
  H   H1138     1.0  0.97152  0.60648  0.99250  1.0000
  H   H1139     1.0  0.75127  0.34936  0.79085  1.0000
  H   H1140     1.0  0.95666  0.38150  0.76753  1.0000
  H   H1141     1.0  0.81683  0.46818  0.55256  1.0000
  Fe  Fe102     1.0  0.50817  0.49597  0.92252  1.0000
  C   C676      1.0  0.60749  0.33506  0.81626  1.0000
  H   H1142     1.0  0.71777  0.37848  0.77630  1.0000
  H   H1143     1.0  0.52616  0.47652  0.67793  1.0000
  H   H1144     1.0  0.61256  0.35018  0.83166  1.0000
  H   H1145     1.0  0.95202  0.39998  0.80067  1.0000
  H   H1146     1.0  0.87342  0.51393  0.82026  1.0000
  H   H1147     1.0  0.52387  0.42020  0.62285  1.0000
  C   C677      1.0  0.80315  0.39168  0.63226  1.0000
  H   H1148     1.0  0.51673  0.34320  0.84387  1.0000
  H   H1149     1.0  0.93932  0.64634  0.99045  1.0000
  S   S208      1.0  0.51726  0.53452  0.94474  1.0000
  H   H1150     1.0  0.72485  0.46571  0.54775  1.0000
  H   H1151     1.0  0.73746  0.40016  0.59716  1.0000
  H   H1152     1.0  0.57168  0.50315  0.58854  1.0000
  H   H1153     1.0  0.49584  0.53532  0.77577  1.0000
  C   C678      1.0  0.49622  0.46032  0.83288  1.0000
  C   C679      1.0  0.57230  0.48193  0.58123  1.0000
  C   C680      1.0  0.51523  0.36236  0.76563  1.0000
  H   H1154     1.0  0.52090  0.41040  0.01830  1.0000
  H   H1155     1.0  0.78823  0.44790  0.54345  1.0000
  H   H1156     1.0  0.71081  0.43119  0.61993  1.0000
  H   H1157     1.0  0.85303  0.54035  0.77831  1.0000
  N   N49       1.0  0.77124  0.42709  0.60667  1.0000
  H   H1158     1.0  0.55676  0.40630  0.91710  1.0000
  H   H1159     1.0  0.80523  0.47534  0.75690  1.0000
  H   H1160     1.0  0.59709  0.40718  0.60072  1.0000
  C   C681      1.0  0.96312  0.35754  0.81188  1.0000
  C   C682      1.0  0.72509  0.43940  0.63540  1.0000
  C   C683      1.0  0.83569  0.43349  0.77743  1.0000
  C   C684      1.0  0.52280  0.37982  0.90785  1.0000
  H   H1161     1.0  0.74803  0.46389  0.59828  1.0000
  H   H1162     1.0  0.81446  0.48828  0.83898  1.0000
  H   H1163     1.0  0.63485  0.48426  0.55776  1.0000
  H   H1164     1.0  0.81357  0.42889  0.77530  1.0000
  H   H1165     1.0  0.82175  0.40536  0.63300  1.0000
  H   H1166     1.0  0.51400  0.38523  0.76361  1.0000
  C   C685      1.0  0.99012  0.38723  0.69997  1.0000
  H   H1167     1.0  0.50851  0.56532  0.99967  1.0000
  C   C686      1.0  0.77668  0.40816  0.63453  1.0000
  H   H1168     1.0  0.76455  0.46091  0.78625  1.0000
  C   C687      1.0  0.85117  0.52767  0.75885  1.0000
  C   C688      1.0  0.94429  0.39938  0.55495  1.0000
  H   H1169     1.0  0.57562  0.42988  0.62138  1.0000
  C   C689      1.0  0.85340  0.49659  0.76828  1.0000
  H   H1170     1.0  0.51393  0.37458  0.69367  1.0000
  C   C690      1.0  0.80424  0.48395  0.77958  1.0000
  C   C691      1.0  0.49928  0.56754  0.02265  1.0000
  H   H1171     1.0  0.51486  0.46570  0.84414  1.0000
  C   C692      1.0  0.50680  0.63364  0.97120  1.0000
  H   H1172     1.0  0.98595  0.39339  0.78509  1.0000
  H   H1173     1.0  0.54427  0.36780  0.00351  1.0000
  C   C693      1.0  0.50078  0.44867  0.76502  1.0000
  C   C694      1.0  0.99303  0.34278  0.98654  1.0000
  C   C695      1.0  0.97537  0.65479  0.89439  1.0000
  H   H1174     1.0  0.62062  0.36182  0.77514  1.0000
  C   C696      1.0  0.77218  0.38982  0.56784  1.0000
  C   C697      1.0  0.83961  0.45425  0.80132  1.0000
  H   H1175     1.0  0.54486  0.39278  0.80175  1.0000
  C   C698      1.0  0.94074  0.42112  0.52791  1.0000
  Fe  Fe103     1.0  0.50569  0.55684  0.90107  1.0000
  H   H1176     1.0  0.86168  0.45391  0.80568  1.0000
  H   H1177     1.0  0.82185  0.51976  0.81592  1.0000
  C   C699      1.0  0.85693  0.50218  0.83586  1.0000
  H   H1178     1.0  0.77828  0.42018  0.65471  1.0000
  H   H1179     1.0  0.55569  0.44075  0.76997  1.0000
  H   H1180     1.0  0.82833  0.44549  0.82355  1.0000
  H   H1181     1.0  0.50800  0.43203  0.78070  1.0000
  H   H1182     1.0  0.68310  0.38099  0.76536  1.0000
  H   H1183     1.0  0.65407  0.38895  0.53366  1.0000
  H   H1184     1.0  0.71526  0.45732  0.64520  1.0000
  H   H1185     1.0  0.81341  0.42637  0.58576  1.0000
  H   H1186     1.0  0.97239  0.36341  0.83274  1.0000
  H   H1187     1.0  0.59637  0.65196  0.81861  1.0000
  H   H1188     1.0  0.85311  0.51397  0.85625  1.0000
  C   C700      1.0  0.99064  0.41311  0.71131  1.0000
  H   H1189     1.0  0.57417  0.63872  0.79321  1.0000
  C   C701      1.0  0.96465  0.38430  0.78974  1.0000
  C   C702      1.0  0.54360  0.46725  0.58967  1.0000
  H   H1190     1.0  0.76400  0.46215  0.63307  1.0000
  S   S209      1.0  0.50068  0.51819  0.87741  1.0000
  H   H1191     1.0  0.51230  0.44611  0.74246  1.0000
  H   H1192     1.0  0.56075  0.40445  0.56271  1.0000
  H   H1193     1.0  0.54315  0.49890  0.78814  1.0000
  H   H1194     1.0  0.52826  0.53274  0.75220  1.0000
  C   C703      1.0  0.97218  0.62198  0.97234  1.0000
  H   H1195     1.0  0.80738  0.45401  0.60800  1.0000
  H   H1196     1.0  0.97886  0.44480  0.61720  1.0000
  H   H1197     1.0  0.57605  0.46393  0.78847  1.0000
  H   H1198     1.0  0.72702  0.42382  0.65497  1.0000
  H   H1199     1.0  0.57902  0.48392  0.55632  1.0000
  C   C704      1.0  0.49714  0.44156  0.68254  1.0000
  H   H1200     1.0  0.99043  0.44698  0.90666  1.0000
  H   H1201     1.0  0.51808  0.62045  0.98729  1.0000
  C   C705      1.0  0.50566  0.52843  0.75408  1.0000
  H   H1202     1.0  0.99386  0.49068  0.01627  1.0000
  H   H1203     1.0  0.50893  0.45544  0.54738  1.0000
  H   H1204     1.0  0.99132  0.46431  0.79899  1.0000
  C   C706      1.0  0.53738  0.38132  0.82413  1.0000
  H   H1205     1.0  0.50653  0.35064  0.97054  1.0000
  N   N50       1.0  0.50748  0.47689  0.77456  1.0000
  H   H1206     1.0  0.69187  0.39340  0.80012  1.0000
  H   H1207     1.0  0.49766  0.54146  0.73506  1.0000
  C   C707      1.0  0.68689  0.34858  0.80320  1.0000
  C   C708      1.0  0.50479  0.34649  0.99607  1.0000
  H   H1208     1.0  0.50629  0.49360  0.72714  1.0000
  H   H1209     1.0  0.98450  0.45491  0.52414  1.0000
  H   H1210     1.0  0.98551  0.43667  0.99333  1.0000
  H   H1211     1.0  0.96063  0.66285  0.95873  1.0000
  H   H1212     1.0  0.54959  0.64724  0.00522  1.0000
  C   C709      1.0  0.74595  0.33308  0.77601  1.0000
  H   H1213     1.0  0.50174  0.35511  0.74865  1.0000
  C   C710      1.0  0.96228  0.33645  0.98391  1.0000
  H   H1214     1.0  0.49917  0.50176  0.81249  1.0000
  H   H1215     1.0  0.66429  0.34969  0.80935  1.0000
  H   H1216     1.0  0.52127  0.42265  0.53935  1.0000
  C   C711      1.0  0.53490  0.65938  0.01885  1.0000
  H   H1217     1.0  0.99332  0.62410  0.96035  1.0000
  H   H1218     1.0  0.50226  0.59897  0.94443  1.0000
  H   H1219     1.0  0.52264  0.64301  0.95283  1.0000
  C   C712      1.0  0.49800  0.49788  0.75073  1.0000
  H   H1220     1.0  0.50885  0.43364  0.99020  1.0000
  H   H1221     1.0  0.71868  0.49579  0.52376  1.0000
  C   C713      1.0  0.72701  0.47487  0.52348  1.0000
  C   C714      1.0  0.50431  0.49042  0.02276  1.0000
  H   H1222     1.0  0.51294  0.51171  0.02286  1.0000
  H   H1223     1.0  0.89640  0.71258  0.25453  1.0000
  C   C715      1.0  0.95499  0.70441  0.12794  1.0000
  S   S210      1.0  0.60075  0.94903  0.36800  1.0000
  C   C716      1.0  0.99252  0.76739  0.02777  1.0000
  Fe  Fe104     1.0  0.60991  0.96208  0.45266  1.0000
  S   S211      1.0  0.61191  0.92006  0.43603  1.0000
  H   H1224     1.0  0.97432  0.68130  0.16279  1.0000
  Fe  Fe105     1.0  0.63738  0.94149  0.39472  1.0000
  S   S212      1.0  0.67397  0.91731  0.37880  1.0000
  Fe  Fe106     1.0  0.57541  0.93138  0.41106  1.0000
  S   S213      1.0  0.53924  0.90195  0.40864  1.0000
  H   H1225     1.0  0.53613  0.98459  0.11473  1.0000
  S   S214      1.0  0.57084  0.97139  0.43181  1.0000
  Fe  Fe107     1.0  0.85265  0.90184  0.45459  1.0000
  S   S215      1.0  0.85710  0.94534  0.43265  1.0000
  Fe  Fe108     1.0  0.85975  0.87741  0.39317  1.0000
  S   S216      1.0  0.86396  0.91897  0.36586  1.0000
  S   S217      1.0  0.86903  0.83634  0.37561  1.0000
  Fe  Fe109     1.0  0.89133  0.93056  0.40118  1.0000
  S   S218      1.0  0.93055  0.95653  0.38622  1.0000
  Fe  Fe110     1.0  0.82915  0.93022  0.39936  1.0000
  S   S219      1.0  0.79708  0.96047  0.38697  1.0000
  S   S220      1.0  0.88947  0.88840  0.42634  1.0000
  S   S221      1.0  0.82228  0.88741  0.42360  1.0000
  C   C717      1.0  0.97029  0.76919  0.05026  1.0000
  S   S222      1.0  0.94302  0.83697  0.16575  1.0000
  H   H1226     1.0  0.97359  0.98759  0.05924  1.0000
  C   C718      1.0  0.94406  0.76024  0.30175  1.0000
  S   S223      1.0  0.93437  0.77217  0.19454  1.0000
  H   H1227     1.0  0.71230  0.87452  0.46810  1.0000
  Fe  Fe111     1.0  0.95520  0.79560  0.15163  1.0000
  S   S224      1.0  0.94669  0.77942  0.10689  1.0000
  Fe  Fe112     1.0  0.92645  0.81382  0.21074  1.0000
  S   S225      1.0  0.88533  0.82498  0.23304  1.0000
  C   C719      1.0  0.50472  0.66853  0.22155  1.0000
  H   H1228     1.0  0.75602  0.89306  0.48709  1.0000
  C   C720      1.0  0.87414  0.83523  0.33571  1.0000
  C   C721      1.0  0.85389  0.84361  0.31692  1.0000
  C   C722      1.0  0.85768  0.84068  0.28528  1.0000
  C   C723      1.0  0.88205  0.83020  0.27225  1.0000
  C   C724      1.0  0.90276  0.82294  0.29091  1.0000
  C   C725      1.0  0.89846  0.82466  0.32272  1.0000
  H   H1229     1.0  0.83496  0.85153  0.32692  1.0000
  H   H1230     1.0  0.84158  0.84636  0.27091  1.0000
  H   H1231     1.0  0.92172  0.81526  0.28104  1.0000
  H   H1232     1.0  0.91402  0.81797  0.33733  1.0000
  C   C726      1.0  0.50901  0.91808  0.39978  1.0000
  C   C727      1.0  0.50849  0.94683  0.39479  1.0000
  H   H1233     1.0  0.93431  0.87263  0.27769  1.0000
  C   C728      1.0  0.49714  0.71704  0.22764  1.0000
  C   C729      1.0  0.96233  0.95053  0.10996  1.0000
  C   C730      1.0  0.92924  0.89232  0.33117  1.0000
  H   H1234     1.0  0.52707  0.95945  0.39525  1.0000
  H   H1235     1.0  0.91413  0.71786  0.33676  1.0000
  H   H1236     1.0  0.94275  0.89943  0.40144  1.0000
  C   C731      1.0  0.49791  0.68396  0.08726  1.0000
  C   C732      1.0  0.70811  0.92986  0.38052  1.0000
  C   C733      1.0  0.71433  0.95778  0.38296  1.0000
  C   C734      1.0  0.74179  0.96700  0.38443  1.0000
  C   C735      1.0  0.76305  0.94829  0.38418  1.0000
  C   C736      1.0  0.75678  0.92035  0.38205  1.0000
  C   C737      1.0  0.72943  0.91124  0.37988  1.0000
  H   H1237     1.0  0.69808  0.97230  0.38327  1.0000
  H   H1238     1.0  0.88555  0.98063  0.34280  1.0000
  H   H1239     1.0  0.77304  0.90582  0.38163  1.0000
  H   H1240     1.0  0.72474  0.88964  0.37785  1.0000
  H   H1241     1.0  0.73949  0.94349  0.48144  1.0000
  C   C738      1.0  0.92326  0.75098  0.27995  1.0000
  H   H1242     1.0  0.92164  0.93898  0.26961  1.0000
  H   H1243     1.0  0.68711  0.96906  0.49978  1.0000
  H   H1244     1.0  0.93355  0.93660  0.46030  1.0000
  C   C739      1.0  0.96089  0.93022  0.30761  1.0000
  C   C740      1.0  0.93885  0.94962  0.47868  1.0000
  H   H1245     1.0  0.86594  0.70819  0.28023  1.0000
  H   H1246     1.0  0.53680  0.94370  0.18876  1.0000
  H   H1247     1.0  0.65147  0.88906  0.46860  1.0000
  N   N51       1.0  0.89787  0.73468  0.29503  1.0000
  C   C741      1.0  0.97907  0.68696  0.13767  1.0000
  C   C742      1.0  0.96926  0.95748  0.19634  1.0000
  H   H1248     1.0  0.93112  0.93296  0.20447  1.0000
  H   H1249     1.0  0.91750  0.77002  0.26659  1.0000
  C   C743      1.0  0.50952  0.76352  0.03611  1.0000
  H   H1250     1.0  0.85873  0.94681  0.50037  1.0000
  H   H1251     1.0  0.83877  0.73434  0.31186  1.0000
  H   H1252     1.0  0.92343  0.90603  0.34949  1.0000
  H   H1253     1.0  0.87807  0.89750  0.30409  1.0000
  H   H1254     1.0  0.97340  0.89746  0.12261  1.0000
  H   H1255     1.0  0.97179  0.69968  0.02965  1.0000
  S   S226      1.0  0.51064  0.75127  0.22517  1.0000
  Fe  Fe113     1.0  0.98300  0.83772  0.18681  1.0000
  H   H1256     1.0  0.94287  0.87749  0.49139  1.0000
  H   H1257     1.0  0.67376  0.98100  0.46502  1.0000
  H   H1258     1.0  0.56622  0.87214  0.32052  1.0000
  H   H1259     1.0  0.95242  0.85446  0.32881  1.0000
  H   H1260     1.0  0.53777  0.76360  0.07087  1.0000
  C   C744      1.0  0.69705  0.89038  0.46391  1.0000
  H   H1261     1.0  0.51143  0.67824  0.10531  1.0000
  H   H1262     1.0  0.94802  0.71671  0.21420  1.0000
  C   C745      1.0  0.88043  0.75345  0.31353  1.0000
  C   C746      1.0  0.75542  0.90630  0.46539  1.0000
  C   C747      1.0  0.86394  0.93788  0.52239  1.0000
  H   H1263     1.0  0.93115  0.66774  0.21727  1.0000
  C   C748      1.0  0.97789  0.96599  0.05539  1.0000
  H   H1264     1.0  0.93474  0.73926  0.26265  1.0000
  H   H1265     1.0  0.68455  0.93900  0.44090  1.0000
  C   C749      1.0  0.95067  0.97747  0.46215  1.0000
  C   C750      1.0  0.69904  0.91349  0.51254  1.0000
  H   H1266     1.0  0.50944  0.94710  0.11082  1.0000
  C   C751      1.0  0.73267  0.92745  0.46695  1.0000
  C   C752      1.0  0.98624  0.89915  0.40513  1.0000
  H   H1267     1.0  0.67671  0.91157  0.52069  1.0000
  C   C753      1.0  0.88241  0.72377  0.27022  1.0000
  H   H1268     1.0  0.55517  0.69978  0.31358  1.0000
  S   S227      1.0  0.51715  0.88770  0.18829  1.0000
  H   H1269     1.0  0.52545  0.88684  0.30823  1.0000
  S   S228      1.0  0.61645  0.97212  0.50069  1.0000
  C   C754      1.0  0.96559  0.90775  0.19350  1.0000
  H   H1270     1.0  0.93495  0.77393  0.31842  1.0000
  H   H1271     1.0  0.53056  0.98268  0.29225  1.0000
  H   H1272     1.0  0.66244  0.93209  0.47532  1.0000
  H   H1273     1.0  0.57230  0.98014  0.23532  1.0000
  H   H1274     1.0  0.55551  0.95101  0.32499  1.0000
  H   H1275     1.0  0.52661  0.92781  0.33407  1.0000
  C   C755      1.0  0.51912  0.96554  0.30707  1.0000
  H   H1276     1.0  0.54237  0.88846  0.03897  1.0000
  Fe  Fe114     1.0  0.59836  0.98876  0.39005  1.0000
  H   H1277     1.0  0.97765  0.66717  0.12683  1.0000
  H   H1278     1.0  0.99251  0.87788  0.09634  1.0000
  H   H1279     1.0  0.51275  0.98693  0.19530  1.0000
  H   H1280     1.0  0.94959  0.76344  0.04559  1.0000
  H   H1281     1.0  0.53635  0.88787  0.26819  1.0000
  H   H1282     1.0  0.74655  0.98866  0.38598  1.0000
  C   C756      1.0  0.66858  0.87616  0.47496  1.0000
  H   H1283     1.0  0.55677  0.92829  0.23916  1.0000
  S   S229      1.0  0.95367  0.98816  0.20538  1.0000
  C   C757      1.0  0.98743  0.92001  0.07709  1.0000
  H   H1284     1.0  0.75347  0.89329  0.44616  1.0000
  H   H1285     1.0  0.98603  0.87711  0.41140  1.0000
  C   C758      1.0  0.92724  0.88958  0.50368  1.0000
  C   C759      1.0  0.97993  0.92246  0.47995  1.0000
  H   H1286     1.0  0.77578  0.91766  0.46033  1.0000
  C   C760      1.0  0.96151  0.94030  0.39215  1.0000
  C   C761      1.0  0.54117  0.69731  0.29553  1.0000
  H   H1287     1.0  0.96397  0.99552  0.11554  1.0000
  C   C762      1.0  0.95044  0.67296  0.22603  1.0000
  H   H1288     1.0  0.96877  0.91285  0.06672  1.0000
  C   C763      1.0  0.94930  0.87144  0.34377  1.0000
  H   H1289     1.0  0.93493  0.97644  0.13553  1.0000
  N   N52       1.0  0.54782  0.92485  0.28875  1.0000
  C   C764      1.0  0.57524  0.91326  0.29511  1.0000
  N   N53       1.0  0.70358  0.91672  0.47791  1.0000
  C   C765      1.0  0.97829  0.88051  0.27649  1.0000
  H   H1290     1.0  0.53153  0.93917  0.48842  1.0000
  C   C766      1.0  0.57498  0.89279  0.32418  1.0000
  C   C767      1.0  0.87477  0.99331  0.32581  1.0000
  H   H1291     1.0  0.94494  0.93579  0.10710  1.0000
  H   H1292     1.0  0.52634  0.71410  0.29681  1.0000
  H   H1293     1.0  0.58420  0.90264  0.27522  1.0000
  H   H1294     1.0  0.59053  0.93012  0.29804  1.0000
  C   C768      1.0  0.55204  0.94184  0.25800  1.0000
  H   H1295     1.0  0.51164  0.66923  0.32255  1.0000
  H   H1296     1.0  0.93643  0.98507  0.44530  1.0000
  H   H1297     1.0  0.94722  0.90198  0.25370  1.0000
  H   H1298     1.0  0.98515  0.96934  0.50594  1.0000
  C   C769      1.0  0.98427  0.70768  0.23692  1.0000
  H   H1299     1.0  0.56366  0.90045  0.34461  1.0000
  H   H1300     1.0  0.85479  0.72330  0.34612  1.0000
  H   H1301     1.0  0.87468  0.98329  0.30415  1.0000
  H   H1302     1.0  0.87536  0.92255  0.27282  1.0000
  H   H1303     1.0  0.89526  0.89335  0.26631  1.0000
  H   H1304     1.0  0.52412  0.72371  0.15939  1.0000
  H   H1305     1.0  0.95223  0.99344  0.47843  1.0000
  H   H1306     1.0  0.73355  0.93798  0.44326  1.0000
  H   H1307     1.0  0.55541  0.84672  0.04072  1.0000
  H   H1308     1.0  0.50092  0.95915  0.29595  1.0000
  C   C770      1.0  0.51481  0.69607  0.21993  1.0000
  S   S230      1.0  0.84697  0.88763  0.50519  1.0000
  C   C771      1.0  0.50694  0.72717  0.14487  1.0000
  H   H1309     1.0  0.85980  0.73527  0.23095  1.0000
  C   C772      1.0  0.57531  0.96460  0.25476  1.0000
  H   H1310     1.0  0.95311  0.88872  0.19588  1.0000
  H   H1311     1.0  0.59574  0.95581  0.24947  1.0000
  H   H1312     1.0  0.89154  0.76077  0.33241  1.0000
  H   H1313     1.0  0.88678  0.69756  0.32551  1.0000
  C   C773      1.0  0.95317  0.93281  0.19848  1.0000
  H   H1314     1.0  0.95824  0.95748  0.04824  1.0000
  C   C774      1.0  0.90543  0.71061  0.31622  1.0000
  C   C775      1.0  0.97405  0.94895  0.27932  1.0000
  C   C776      1.0  0.86895  0.74559  0.24936  1.0000
  H   H1315     1.0  0.91028  0.87986  0.32900  1.0000
  Fe  Fe115     1.0  0.97527  0.77714  0.21275  1.0000
  H   H1316     1.0  0.84156  0.75694  0.34125  1.0000
  C   C777      1.0  0.97473  0.77864  0.07865  1.0000
  H   H1317     1.0  0.51200  0.69476  0.06811  1.0000
  H   H1318     1.0  0.87618  0.77242  0.29897  1.0000
  H   H1319     1.0  0.85197  0.75577  0.26198  1.0000
  H   H1320     1.0  0.91856  0.95342  0.49111  1.0000
  C   C778      1.0  0.95991  0.70074  0.22443  1.0000
  S   S231      1.0  0.63753  0.98322  0.41274  1.0000
  H   H1321     1.0  0.93995  0.86160  0.36646  1.0000
  C   C779      1.0  0.91516  0.92532  0.29101  1.0000
  H   H1322     1.0  0.53300  0.95204  0.25228  1.0000
  H   H1323     1.0  0.91279  0.89791  0.48756  1.0000
  C   C780      1.0  0.96160  0.91183  0.39971  1.0000
  H   H1324     1.0  0.90766  0.93911  0.30867  1.0000
  H   H1325     1.0  0.70983  0.97669  0.46426  1.0000
  H   H1326     1.0  0.55290  0.70091  0.27245  1.0000
  C   C781      1.0  0.85240  0.74089  0.32886  1.0000
  H   H1327     1.0  0.57581  0.97552  0.27577  1.0000
  C   C782      1.0  0.68946  0.96768  0.47461  1.0000
  S   S232      1.0  0.96578  0.81707  0.23278  1.0000
  H   H1328     1.0  0.53628  0.70125  0.21222  1.0000
  H   H1329     1.0  0.59652  0.88982  0.32961  1.0000
  H   H1330     1.0  0.85292  0.99346  0.33582  1.0000
  H   H1331     1.0  0.88406  0.76161  0.23775  1.0000
  H   H1332     1.0  0.69841  0.89426  0.43838  1.0000
  H   H1333     1.0  0.95210  0.94407  0.32451  1.0000
  H   H1334     1.0  0.71546  0.87119  0.51682  1.0000
  H   H1335     1.0  0.95683  0.71084  0.10290  1.0000
  C   C783      1.0  0.94865  0.89107  0.27674  1.0000
  C   C784      1.0  0.88984  0.90827  0.28331  1.0000
  C   C785      1.0  0.51451  0.94322  0.19227  1.0000
  H   H1336     1.0  0.94591  0.70107  0.29271  1.0000
  C   C786      1.0  0.53786  0.94150  0.31479  1.0000
  H   H1337     1.0  0.49773  0.74657  0.15133  1.0000
  C   C787      1.0  0.68415  0.93791  0.46639  1.0000
  H   H1338     1.0  0.93541  0.69181  0.13349  1.0000
  C   C788      1.0  0.52803  0.90073  0.28647  1.0000
  H   H1339     1.0  0.95946  0.96390  0.27050  1.0000
  C   C789      1.0  0.49847  0.90760  0.28004  1.0000
  H   H1340     1.0  0.96146  0.77226  0.28782  1.0000
  H   H1341     1.0  0.95325  0.74257  0.31414  1.0000
  N   N54       1.0  0.95735  0.93468  0.49970  1.0000
  H   H1342     1.0  0.97107  0.91016  0.46294  1.0000
  H   H1343     1.0  0.97778  0.92066  0.31927  1.0000
  C   C790      1.0  0.98640  0.95604  0.38944  1.0000
  C   C791      1.0  0.92576  0.69074  0.30168  1.0000
  H   H1344     1.0  0.66645  0.85693  0.46344  1.0000
  H   H1345     1.0  0.60857  0.91263  0.50209  1.0000
  N   N55       1.0  0.93911  0.90924  0.30138  1.0000
  S   S233      1.0  0.50405  0.81182  0.16578  1.0000
  H   H1346     1.0  0.91699  0.68030  0.28320  1.0000
  H   H1347     1.0  0.93006  0.67425  0.31957  1.0000
  H   H1348     1.0  0.51670  0.91025  0.47191  1.0000
  H   H1349     1.0  0.98226  0.93705  0.26039  1.0000
  H   H1350     1.0  0.70607  0.93259  0.52209  1.0000
  H   H1351     1.0  0.51158  0.97421  0.32871  1.0000
  C   C792      1.0  0.99414  0.90732  0.18644  1.0000
  C   C793      1.0  0.51745  0.76881  0.06490  1.0000
  H   H1352     1.0  0.66614  0.87017  0.50009  1.0000
  H   H1353     1.0  0.96940  0.88112  0.34746  1.0000
  H   H1354     1.0  0.97102  0.97558  0.44911  1.0000
  H   H1355     1.0  0.51337  0.96307  0.05864  1.0000
  H   H1356     1.0  0.95277  0.72284  0.14092  1.0000
  H   H1357     1.0  0.52347  0.87176  0.08481  1.0000
  C   C794      1.0  0.52478  0.66922  0.30033  1.0000
  H   H1358     1.0  0.92982  0.98871  0.32604  1.0000
  H   H1359     1.0  0.51627  0.72974  0.12070  1.0000
  C   C795      1.0  0.49920  0.78095  0.08595  1.0000
  C   C796      1.0  0.51348  0.92433  0.49032  1.0000
  C   C797      1.0  0.51019  0.85373  0.08103  1.0000
  H   H1360     1.0  0.52246  0.83534  0.07796  1.0000
  C   C798      1.0  0.61783  0.91743  0.52241  1.0000
  C   C799      1.0  0.94036  0.91257  0.52023  1.0000
  H   H1361     1.0  0.51405  0.90945  0.03581  1.0000
  C   C800      1.0  0.50087  0.96782  0.19562  1.0000
  H   H1362     1.0  0.93604  0.98402  0.09489  1.0000
  N   N56       1.0  0.98517  0.94970  0.08419  1.0000
  H   H1363     1.0  0.54760  0.67525  0.02846  1.0000
  H   H1364     1.0  0.91608  0.99275  0.27621  1.0000
  H   H1365     1.0  0.97746  0.85762  0.27763  1.0000
  H   H1366     1.0  0.49648  0.84867  0.10275  1.0000
  H   H1367     1.0  0.51009  0.66959  0.28249  1.0000
  H   H1368     1.0  0.98844  0.88553  0.51044  1.0000
  H   H1369     1.0  0.96971  0.94355  0.13244  1.0000
  H   H1370     1.0  0.50551  0.78526  0.10798  1.0000
  H   H1371     1.0  0.98659  0.97813  0.38361  1.0000
  C   C801      1.0  0.94894  0.97841  0.11381  1.0000
  H   H1372     1.0  0.98993  0.88615  0.29542  1.0000
  C   C802      1.0  0.97033  0.95393  0.51969  1.0000
  H   H1373     1.0  0.91490  0.87487  0.52104  1.0000
  H   H1374     1.0  0.99057  0.88787  0.25439  1.0000
  H   H1375     1.0  0.49801  0.68357  0.15173  1.0000
  H   H1376     1.0  0.51355  0.91231  0.51292  1.0000
  H   H1377     1.0  0.99142  0.96151  0.28623  1.0000
  C   C803      1.0  0.99115  0.89874  0.10461  1.0000
  H   H1378     1.0  0.49796  0.99420  0.04620  1.0000
  H   H1379     1.0  0.99324  0.93897  0.46596  1.0000
  C   C804      1.0  0.49945  0.91805  0.19332  1.0000
  H   H1380     1.0  0.49767  0.92263  0.25971  1.0000
  C   C805      1.0  0.52549  0.89312  0.02449  1.0000
  S   S234      1.0  0.88805  0.90168  0.66427  1.0000
  S   S235      1.0  0.82967  0.89561  0.73126  1.0000
  Fe  Fe116     1.0  0.92773  0.90677  0.68532  1.0000
  S   S236      1.0  0.96054  0.87564  0.68303  1.0000
  C   C806      1.0  0.77022  0.94254  0.69811  1.0000
  Fe  Fe117     1.0  0.67761  0.90804  0.69374  1.0000
  S   S237      1.0  0.67679  0.86696  0.67414  1.0000
  C   C807      1.0  0.73179  0.90364  0.61502  1.0000
  Fe  Fe118     1.0  0.61485  0.90893  0.70387  1.0000
  S   S238      1.0  0.60918  0.86871  0.68415  1.0000
  H   H1381     1.0  0.61792  0.87487  0.54099  1.0000
  Fe  Fe119     1.0  0.64291  0.85500  0.71220  1.0000
  S   S239      1.0  0.63354  0.81283  0.73734  1.0000
  Fe  Fe120     1.0  0.64307  0.88423  0.64792  1.0000
  S   S240      1.0  0.63970  0.87493  0.59899  1.0000
  S   S241      1.0  0.64678  0.89452  0.73439  1.0000
  S   S242      1.0  0.64581  0.92605  0.66490  1.0000
  C   C808      1.0  0.60145  0.73092  0.85065  1.0000
  H   H1382     1.0  0.97542  0.92622  0.70832  1.0000
  H   H1383     1.0  0.95255  0.90268  0.53801  1.0000
  H   H1384     1.0  0.79205  0.99054  0.80654  1.0000
  S   S243      1.0  0.54092  0.80522  0.94140  1.0000
  H   H1385     1.0  0.58294  0.94299  0.78797  1.0000
  H   H1386     1.0  0.92536  0.86141  0.82682  1.0000
  S   S244      1.0  0.60187  0.80150  0.88083  1.0000
  H   H1387     1.0  0.98472  0.91651  0.81894  1.0000
  H   H1388     1.0  0.97612  0.85458  0.75400  1.0000
  C   C809      1.0  0.57030  0.91477  0.62797  1.0000
  H   H1389     1.0  0.78420  0.97469  0.61508  1.0000
  S   S245      1.0  0.71513  0.93687  0.69294  1.0000
  H   H1390     1.0  0.95955  0.98942  0.54479  1.0000
  C   C810      1.0  0.63391  0.90213  0.57166  1.0000
  C   C811      1.0  0.62289  0.89609  0.54460  1.0000
  C   C812      1.0  0.84882  0.99485  0.80508  1.0000
  C   C813      1.0  0.63540  0.95088  0.55395  1.0000
  C   C814      1.0  0.64029  0.92955  0.57626  1.0000
  H   H1391     1.0  0.91022  0.95594  0.77860  1.0000
  H   H1392     1.0  0.64913  0.93433  0.59687  1.0000
  C   C815      1.0  0.62344  0.81283  0.77678  1.0000
  C   C816      1.0  0.64175  0.82257  0.79632  1.0000
  C   C817      1.0  0.63481  0.81926  0.82828  1.0000
  C   C818      1.0  0.60937  0.80674  0.84072  1.0000
  C   C819      1.0  0.59049  0.79836  0.82109  1.0000
  C   C820      1.0  0.59770  0.80094  0.78917  1.0000
  H   H1393     1.0  0.66174  0.83156  0.78686  1.0000
  H   H1394     1.0  0.64942  0.82594  0.84341  1.0000
  H   H1395     1.0  0.57056  0.78954  0.83060  1.0000
  H   H1396     1.0  0.58343  0.79361  0.77403  1.0000
  H   H1397     1.0  0.78518  0.90757  0.53289  1.0000
  H   H1398     1.0  0.98875  0.98190  0.83065  1.0000
  H   H1399     1.0  0.55706  0.74762  0.81629  1.0000
  C   C821      1.0  0.50056  0.67884  0.88185  1.0000
  H   H1400     1.0  0.53172  0.85277  0.77166  1.0000
  H   H1401     1.0  0.75286  0.93404  0.63787  1.0000
  H   H1402     1.0  0.97273  0.89753  0.88566  1.0000
  Fe  Fe121     1.0  0.50164  0.99374  0.92180  1.0000
  Fe  Fe122     1.0  0.55937  0.78540  0.90046  1.0000
  H   H1403     1.0  0.57079  0.84791  0.83973  1.0000
  H   H1404     1.0  0.98338  0.94240  0.53536  1.0000
  C   C822      1.0  0.80386  0.97245  0.80012  1.0000
  H   H1405     1.0  0.86721  0.96422  0.76018  1.0000
  H   H1406     1.0  0.94072  0.68334  0.02153  1.0000
  H   H1407     1.0  0.76881  0.96300  0.68663  1.0000
  C   C823      1.0  0.59731  0.88941  0.80031  1.0000
  H   H1408     1.0  0.86086  0.91685  0.78352  1.0000
  C   C824      1.0  0.87889  0.94366  0.57280  1.0000
  C   C825      1.0  0.87648  0.91507  0.58000  1.0000
  C   C826      1.0  0.86710  0.89801  0.55883  1.0000
  C   C827      1.0  0.92843  0.99568  0.83400  1.0000
  C   C828      1.0  0.86065  0.90938  0.53009  1.0000
  C   C829      1.0  0.87279  0.95503  0.54387  1.0000
  H   H1409     1.0  0.88146  0.90606  0.60198  1.0000
  H   H1410     1.0  0.86470  0.87593  0.56478  1.0000
  H   H1411     1.0  0.54790  0.89099  0.97841  1.0000
  H   H1412     1.0  0.52750  0.95928  0.71840  1.0000
  C   C830      1.0  0.52933  0.94378  0.62706  1.0000
  H   H1413     1.0  0.93092  0.86061  0.74538  1.0000
  C   C831      1.0  0.54132  0.89185  0.71342  1.0000
  C   C832      1.0  0.54600  0.91984  0.71672  1.0000
  H   H1414     1.0  0.93751  0.89451  0.78456  1.0000
  H   H1415     1.0  0.87458  0.97716  0.53820  1.0000
  C   C833      1.0  0.56423  0.91811  0.83017  1.0000
  H   H1416     1.0  0.55781  0.87781  0.71516  1.0000
  C   C834      1.0  0.79783  0.90713  0.72068  1.0000
  C   C835      1.0  0.79588  0.93349  0.70574  1.0000
  Fe  Fe123     1.0  0.86846  0.91754  0.70717  1.0000
  C   C836      1.0  0.74645  0.92508  0.70468  1.0000
  C   C837      1.0  0.74834  0.89868  0.71955  1.0000
  C   C838      1.0  0.77397  0.88986  0.72786  1.0000
  C   C839      1.0  0.95870  0.71219  0.98501  1.0000
  H   H1417     1.0  0.73008  0.88511  0.72474  1.0000
  H   H1418     1.0  0.77535  0.86948  0.73957  1.0000
  N   N57       1.0  0.78448  0.91356  0.61183  1.0000
  C   C840      1.0  0.78588  0.89058  0.63717  1.0000
  C   C841      1.0  0.75603  0.92472  0.61565  1.0000
  C   C842      1.0  0.80593  0.93584  0.61564  1.0000
  C   C843      1.0  0.79037  0.90149  0.58155  1.0000
  C   C844      1.0  0.81483  0.87991  0.64164  1.0000
  S   S246      1.0  0.52145  0.78763  0.87539  1.0000
  C   C845      1.0  0.80143  0.96540  0.60173  1.0000
  C   C846      1.0  0.78814  0.92053  0.55197  1.0000
  H   H1419     1.0  0.77746  0.89715  0.65968  1.0000
  H   H1420     1.0  0.77280  0.87221  0.63348  1.0000
  S   S247      1.0  0.98123  0.70951  0.90298  1.0000
  N   N58       1.0  0.56996  0.89010  0.81944  1.0000
  H   H1421     1.0  0.80758  0.93788  0.64048  1.0000
  H   H1422     1.0  0.82669  0.93021  0.60614  1.0000
  H   H1423     1.0  0.81173  0.89427  0.57920  1.0000
  H   H1424     1.0  0.77768  0.88222  0.58046  1.0000
  H   H1425     1.0  0.82472  0.87166  0.62079  1.0000
  H   H1426     1.0  0.82868  0.89595  0.64915  1.0000
  H   H1427     1.0  0.81278  0.86274  0.66036  1.0000
  H   H1428     1.0  0.56784  0.85112  0.77411  1.0000
  C   C847      1.0  0.62403  0.94488  0.52708  1.0000
  C   C848      1.0  0.54794  0.85427  0.78759  1.0000
  C   C849      1.0  0.99330  0.91374  0.70646  1.0000
  H   H1429     1.0  0.94618  0.70455  0.96752  1.0000
  H   H1430     1.0  0.56370  0.96193  0.81506  1.0000
  H   H1431     1.0  0.59607  0.96403  0.60124  1.0000
  H   H1432     1.0  0.77012  0.93361  0.55321  1.0000
  Fe  Fe124     1.0  0.50221  0.80432  0.91798  1.0000
  H   H1433     1.0  0.64052  0.89230  0.80896  1.0000
  S   S248      1.0  0.53219  0.74777  0.01028  1.0000
  H   H1434     1.0  0.61175  0.71036  0.77994  1.0000
  H   H1435     1.0  0.55296  0.81629  0.02166  1.0000
  C   C850      1.0  0.91913  0.97311  0.78863  1.0000
  H   H1436     1.0  0.81406  0.94700  0.70027  1.0000
  C   C851      1.0  0.52975  0.90225  0.91545  1.0000
  H   H1437     1.0  0.98899  0.76023  0.00592  1.0000
  H   H1438     1.0  0.52458  0.91905  0.98092  1.0000
  H   H1439     1.0  0.53040  0.85830  0.91307  1.0000
  C   C852      1.0  0.96250  0.84664  0.77501  1.0000
  H   H1440     1.0  0.56449  0.91333  0.65324  1.0000
  Fe  Fe125     1.0  0.51009  0.74586  0.90080  1.0000
  H   H1441     1.0  0.52921  0.96914  0.56708  1.0000
  H   H1442     1.0  0.54127  0.88129  0.61766  1.0000
  H   H1443     1.0  0.79327  0.93532  0.77714  1.0000
  N   N59       1.0  0.83153  0.98174  0.78318  1.0000
  H   H1444     1.0  0.52330  0.84764  0.98430  1.0000
  H   H1445     1.0  0.59949  0.74206  0.78874  1.0000
  S   S249      1.0  0.57902  0.93308  0.72202  1.0000
  C   C853      1.0  0.52406  0.93760  0.71567  1.0000
  C   C854      1.0  0.78465  0.95529  0.78242  1.0000
  Fe  Fe126     1.0  0.52768  0.76223  0.96096  1.0000
  C   C855      1.0  0.56307  0.67912  0.80620  1.0000
  H   H1446     1.0  0.57384  0.88425  0.59382  1.0000
  H   H1447     1.0  0.76486  0.95023  0.79700  1.0000
  H   H1448     1.0  0.64024  0.97212  0.55762  1.0000
  C   C856      1.0  0.54726  0.88292  0.80004  1.0000
  C   C857      1.0  0.51759  0.87575  0.91527  1.0000
  H   H1449     1.0  0.61600  0.74368  0.83359  1.0000
  H   H1450     1.0  0.57908  0.92467  0.84583  1.0000
  C   C858      1.0  0.84629  0.95763  0.77123  1.0000
  H   H1451     1.0  0.94760  0.72949  0.99463  1.0000
  H   H1452     1.0  0.99455  0.71696  0.82522  1.0000
  H   H1453     1.0  0.94501  0.95678  0.56359  1.0000
  H   H1454     1.0  0.93518  0.81193  0.82225  1.0000
  H   H1455     1.0  0.55193  0.90515  0.91377  1.0000
  C   C859      1.0  0.93326  0.84448  0.76443  1.0000
  C   C860      1.0  0.49787  0.92762  0.70989  1.0000
  C   C861      1.0  0.52713  0.67417  0.88991  1.0000
  H   H1456     1.0  0.60982  0.86726  0.86111  1.0000
  H   H1457     1.0  0.91653  0.84630  0.78293  1.0000
  H   H1458     1.0  0.86297  0.93919  0.81318  1.0000
  H   H1459     1.0  0.54391  0.91738  0.84434  1.0000
  H   H1460     1.0  0.72989  0.88838  0.63557  1.0000
  H   H1461     1.0  0.81696  0.99122  0.73850  1.0000
  C   C862      1.0  0.91672  0.97356  0.82071  1.0000
  H   H1462     1.0  0.61289  0.72550  0.87088  1.0000
  C   C863      1.0  0.95938  0.89366  0.78969  1.0000
  H   H1463     1.0  0.54310  0.83719  0.80606  1.0000
  H   H1464     1.0  0.58423  0.74351  0.85879  1.0000
  C   C864      1.0  0.99349  0.67617  0.90041  1.0000
  H   H1465     1.0  0.73363  0.89670  0.53553  1.0000
  C   C865      1.0  0.95011  0.96908  0.54099  1.0000
  C   C866      1.0  0.96346  0.91544  0.81238  1.0000
  H   H1466     1.0  0.90566  0.95684  0.83534  1.0000
  H   H1467     1.0  0.95286  0.86527  0.84924  1.0000
  H   H1468     1.0  0.56631  0.98392  0.60595  1.0000
  C   C867      1.0  0.71315  0.88964  0.52953  1.0000
  H   H1469     1.0  0.50946  0.73809  0.81137  1.0000
  C   C868      1.0  0.57577  0.96481  0.61511  1.0000
  H   H1470     1.0  0.94866  0.91176  0.83336  1.0000
  C   C869      1.0  0.51467  0.67409  0.99857  1.0000
  H   H1471     1.0  0.56777  0.74493  0.75242  1.0000
  H   H1472     1.0  0.62784  0.92425  0.79516  1.0000
  H   H1473     1.0  0.59933  0.66535  0.77823  1.0000
  H   H1474     1.0  0.70005  0.88230  0.55114  1.0000
  H   H1475     1.0  0.52736  0.72424  0.77922  1.0000
  C   C870      1.0  0.52377  0.72194  0.80457  1.0000
  H   H1476     1.0  0.59542  0.89811  0.77627  1.0000
  C   C871      1.0  0.62224  0.90526  0.81090  1.0000
  H   H1477     1.0  0.54686  0.86820  0.85937  1.0000
  C   C872      1.0  0.52111  0.84441  0.00991  1.0000
  H   H1478     1.0  0.80635  0.96029  0.82236  1.0000
  C   C873      1.0  0.51503  0.88176  0.70834  1.0000
  N   N60       1.0  0.96592  0.86464  0.80063  1.0000
  C   C874      1.0  0.85004  0.93323  0.79529  1.0000
  H   H1479     1.0  0.54765  0.89793  0.77933  1.0000
  H   H1480     1.0  0.97162  0.90076  0.76748  1.0000
  H   H1481     1.0  0.61037  0.69295  0.83190  1.0000
  H   H1482     1.0  0.93060  0.97371  0.53117  1.0000
  C   C875      1.0  0.58883  0.87218  0.87057  1.0000
  S   S250      1.0  0.90771  0.91833  0.73015  1.0000
  S   S251      1.0  0.52935  0.95786  0.91816  1.0000
  H   H1483     1.0  0.56309  0.97322  0.66318  1.0000
  S   S252      1.0  0.88891  0.96567  0.59963  1.0000
  H   H1484     1.0  0.50535  0.69010  0.01229  1.0000
  H   H1485     1.0  0.53981  0.69099  0.89601  1.0000
  S   S253      1.0  0.54981  0.74208  0.92230  1.0000
  H   H1486     1.0  0.73341  0.89288  0.59382  1.0000
  Fe  Fe127     1.0  0.89518  0.94643  0.64707  1.0000
  H   H1487     1.0  0.75331  0.94194  0.59806  1.0000
  N   N61       1.0  0.55780  0.93947  0.61205  1.0000
  C   C876      1.0  0.51332  0.92503  0.91821  1.0000
  C   C877      1.0  0.55790  0.93630  0.57820  1.0000
  H   H1488     1.0  0.96970  0.82547  0.78050  1.0000
  S   S254      1.0  0.93663  0.95018  0.66449  1.0000
  H   H1489     1.0  0.53002  0.94524  0.65203  1.0000
  C   C878      1.0  0.54925  0.96153  0.55809  1.0000
  C   C879      1.0  0.56356  0.88620  0.61719  1.0000
  C   C880      1.0  0.59140  0.70405  0.83819  1.0000
  H   H1490     1.0  0.96604  0.81561  0.84164  1.0000
  C   C881      1.0  0.56419  0.94203  0.80453  1.0000
  H   H1491     1.0  0.54479  0.91838  0.57374  1.0000
  H   H1492     1.0  0.57890  0.93156  0.56864  1.0000
  H   H1493     1.0  0.59326  0.91704  0.62494  1.0000
  H   H1494     1.0  0.52668  0.88420  0.81312  1.0000
  Fe  Fe128     1.0  0.91381  0.96170  0.70796  1.0000
  H   H1495     1.0  0.92975  0.82389  0.75613  1.0000
  H   H1496     1.0  0.92308  0.92180  0.53358  1.0000
  H   H1497     1.0  0.93297  0.81959  0.86143  1.0000
  H   H1498     1.0  0.50845  0.82484  0.01583  1.0000
  H   H1499     1.0  0.83012  0.92363  0.80622  1.0000
  H   H1500     1.0  0.54365  0.72175  0.84548  1.0000
  C   C882      1.0  0.55040  0.72544  0.82040  1.0000
  C   C883      1.0  0.57921  0.72560  0.75354  1.0000
  H   H1501     1.0  0.57193  0.87001  0.63273  1.0000
  H   H1502     1.0  0.60317  0.86768  0.79849  1.0000
  H   H1503     1.0  0.58916  0.89265  0.87950  1.0000
  C   C884      1.0  0.94679  0.85504  0.82907  1.0000
  H   H1504     1.0  0.95969  0.93608  0.80109  1.0000
  H   H1505     1.0  0.50705  0.91321  0.60251  1.0000
  C   C885      1.0  0.56790  0.86890  0.84693  1.0000
  H   H1506     1.0  0.58304  0.85692  0.89079  1.0000
  H   H1507     1.0  0.51159  0.86007  0.70564  1.0000
  H   H1508     1.0  0.71220  0.91466  0.61584  1.0000
  S   S255      1.0  0.87278  0.96220  0.68870  1.0000
  H   H1509     1.0  0.61980  0.91080  0.83477  1.0000
  H   H1510     1.0  0.83565  0.94934  0.75255  1.0000
  C   C886      1.0  0.50674  0.92126  0.62521  1.0000
  N   N62       1.0  0.50652  0.86821  0.02307  1.0000
  H   H1511     1.0  0.50785  0.90389  0.64318  1.0000
  H   H1512     1.0  0.51064  0.95615  0.83996  1.0000
  H   H1513     1.0  0.54727  0.95561  0.53457  1.0000
  C   C887      1.0  0.94542  0.82370  0.83875  1.0000
  H   H1514     1.0  0.57997  0.69110  0.85795  1.0000
  H   H1515     1.0  0.98985  0.94344  0.89765  1.0000
  C   C888      1.0  0.53929  0.90646  0.99326  1.0000
  H   H1516     1.0  0.79775  0.96660  0.57726  1.0000
  H   H1517     1.0  0.59592  0.72738  0.73423  1.0000
  H   H1518     1.0  0.80730  0.93356  0.54547  1.0000
  C   C889      1.0  0.59216  0.72111  0.78411  1.0000
  H   H1519     1.0  0.54563  0.94081  0.79192  1.0000
  N   N63       1.0  0.57401  0.70748  0.81154  1.0000
  C   C890      1.0  0.58194  0.96981  0.64800  1.0000
  C   C891      1.0  0.96203  0.68966  0.01134  1.0000
  S   S256      1.0  0.96683  0.98614  0.93884  1.0000
  H   H1520     1.0  0.51278  0.70179  0.81254  1.0000
  H   H1521     1.0  0.52151  0.96409  0.61898  1.0000
  C   C892      1.0  0.93248  0.99523  0.76973  1.0000
  H   H1522     1.0  0.77950  0.96683  0.76092  1.0000
  H   H1523     1.0  0.56568  0.70810  0.74900  1.0000
  H   H1524     1.0  0.99163  0.94683  0.63242  1.0000
  H   H1525     1.0  0.59324  0.95279  0.65865  1.0000
  H   H1526     1.0  0.85077  0.98036  0.82579  1.0000
  H   H1527     1.0  0.82032  0.97848  0.60322  1.0000
  H   H1528     1.0  0.99253  0.98102  0.00823  1.0000
  C   C893      1.0  0.99149  0.88795  0.69502  1.0000
  H   H1529     1.0  0.56623  0.84716  0.00007  1.0000
  C   C894      1.0  0.55042  0.83897  0.01901  1.0000
  N   N64       1.0  0.97753  0.66491  0.00230  1.0000
  H   H1530     1.0  0.54952  0.67982  0.78735  1.0000
  H   H1531     1.0  0.52751  0.68575  0.97877  1.0000
  H   H1532     1.0  0.59551  0.98875  0.64698  1.0000
  H   H1533     1.0  0.97874  0.72103  0.97361  1.0000
  H   H1534     1.0  0.55656  0.92083  0.99710  1.0000
  H   H1535     1.0  0.54954  0.66997  0.82684  1.0000
  C   C895      1.0  0.99516  0.86325  0.80893  1.0000
  H   H1536     1.0  0.56537  0.97853  0.55537  1.0000
  C   C896      1.0  0.99325  0.89998  0.89265  1.0000
