data_image0
_chemical_formula_structural       FeSHFeS2FeSFeS3H2FeSCFeS2FeCFeS3H4C2H8CH2C3HCH3CSH2CH5C2NH5CH2C2HC4H3C2H8C6H5C2HC3H4CH3C2H2C2SH2CHCHC2SHCH4SHCSCHCH4CH2CH2CH2CHCH2C2HCH4CHCHNH4CHC2HCSH3C2H2CH3C2HCH9NC2NC2NC3H11C2H4CH5NH2CH6SH3CHC2H2CH3SH3C2HCH6SH3FeC2HSCFeC2HSCFeH2CHCFeS2FeSFeSFeS3HCHFeS3C4HC6H4CS2NH2SHFeC2HCH6SHC4H9C3SHCH3CH3CH4FeHCH2CH8CSCSFeSH2FeHCFeNH2SCHC2HSC2H4FeH8CH3CHCSHFeSH2CH4NC8H20NC5H6SC5NC2H2CH2CSFeC2H4FeH3FeS2FeS2FeSFeS3HCS2H2FeCHSH3C2NCHCHCH3C4H3C3H2CH4C6H4C6HCH2CHCHCH4C4HCH7CH2NC6H13CHCH7NC3H2C2H7CHCHCH2C3HC2H2FeHCHNC8H14CH2CH2CNHCHCH3CH3CH3CH7CNSH5CHCH5CH4C3H2CN2CHSCS2CHSH4CH6CH2SH7SHFeHNCH2C2H2CH5CH4C2HSH6Fe2HSFeC2H2FeNCHSHCFeS4FeS2CHCFeCFeHS2C3HC3FeH3C2HC6H3SFeC6FeHCSNC2HCHCHC2H9CHSHCH2CHCHCHCH2CH3C2HCH3FeH4SHCFeH7CH4CH4CHNC4H2CHCH2SH4CHCH6FeHCFeC3SH3SFeSHCH2SNCHCFeSHSH2SHCH3SFeH2CH2CHC2H3CH3SCHS2H3SFeCH3CSHCH3FeCS2HFeSHFeS2FeSFeS3NHFeSHFeHSC2FeS3HSH2C2SH8FeHC4HCH5CH7CNH3CH3C7HNH2C2H3CHCH2C6H4CH2C5H2C3H2C2HNH2NCH6CH3CH4C5H2CHC4SH6CH2CH3CH4CH2CSH4CH3C2H3SH2C2H7CSH2CHC2H5CH3CH8CHC2HC3H2C2H3CH4CHCHCH4NC3H3C2H7SCHCHNHNH2C5H2C2HCHSH9FeHSCNCH2SCH4CH2CHCNCFeS2H2FeSFeS3H2SFeS2HFe2SCSC6H4CHC3HC2HC9H4C4HFeH5FeCH2CSH2C2H2CHFeHCH3SCH10CFeCH2C2HC2HCHFeCHNCSH4CH5CH3CH4C2HS2H3C3H2CSHCSCHSHFeH2CSH2CH2C2FeCH2CH2CHSCH9SHSH4NCSFeS2FeS2FeSFeS3H2SCHC2H7SCH4CH3CHC2FeHC7H4C6H4C6H5CH2CH2CHC6H5NH7CSH15CHCNC2NH4C3H2CHC2SCH2SH2FeH2CHCH5CHCSNHSC3H10C5HCHCH2CHFeSCH3CHCH4C2H6C2H2CHNC8H8CH5CH2SH2CFeNC2H5C3HSHC2HSH3CHCSC3H3NHCH2CHCH5CHSH4C2H2SH2CH2FeHCH3SH2FeS4FeS2FeSCFeCFeHS2H3C2HCHFeHCH3C6SH5C3H4CH2CSHSC2H3CFeH3CHSCFeCH2C2H3CHCHCH2NC2FeC2HCHC2HCH2SH2CH2SC3SH4CH2SC3HCFeHNHCH3SC3H2CH6FeH2NHCSHCH3CHC3SC3NH2SHFeH4CHC2H5CH2CHCH3SHS2HCHSHSHCHFeSCFeS2FeSFeS3H2FeSHFeS2FeHFeS3HC3H5CHSCH4C6H7CH3CHCH3CH2CHC5HCH3C3H2C2H4C6H5C3H3CH5CSNH6CH2SH3C2NH4CSC2HCH2CH2CHCH5CHC2H3N2H2CH3CH2C2NHCH2CHCHC2HCH3CHCH3CHNHCH5CH3NC2HCH4CH4C2HSH2CNH7CHCH3C3HCNC8H7CH2CHCHC2HSCH13C3H3C2HCHSH2C2HCH2C2H4SHCHFeSHFeSCHCHCHCS2CH2CFeS2FeSFeSFeS3CH2FeS2CSFeSCHC6H4C6H2C3H3C2H3CH2C3H4CHCSH2CHC2Fe2CH3CHNH2CHFeCHSCH8C2H2CH2CHCSH2CNC4NC3H8CH11NC4H7CHCH2C2FeHCSC2H3SC2H3SCH3CH3CH6CSH3SHFeSCHCSHC2H6CSH11SHCHC2HCFeS2FeS2FeSFeS3H2SC2SCHFeH2CH11CFeH3CH2C3HC2H4C2HC3HCH2C6H4C2NHC2NHC5H4SCH3SHCH3CHC2HCH2C2H3C2SC2HC3HCH3NC2HCH3SH4C2HCH3CHSH2NHCH3CNH5C2SC2FeH7CH4CHFeCH3CH4FeSC2H5CHSHCFeHCH2NC7H17CH3CH2CHCSH4CHCNCHCH3CHCS2H2FeCH3SCHFeS4FeS2FeHFe2HFeS3C3HC2SCFeH4C6H4SH2C3H7NC2HC2HCNH2CSCH7C2H4CH2CH2CHCH3SH4NC6H10CH3CHCHC2SH4SH2CSCH4C2HCH2C2H2C2H3CH2C2H2FeCH2SH2NH3FeHFeH2SCH2FeC3HCSH2CH3CH2CSHSC2HCH3CH2FeHCSH3CH2SHCFeSH5C2HCH2CHC2H3CH2CHS2HCHC4FeCHFeCNHSC2SHCHCH4CH2CHCFeH5CHFeS2FeS2FeSFeS3HSFeSHFeS3NFeS3CH7FeH3CHC2HC6HC2H3CH2C3H4CH2CSH2C6H4C2H2C2H4C6H4C5H3CH6C3H2CH4CHCH2CH2SH6CHSC2H2CHCH3C2HCHCH2CH5NHNH3C5NH5CHCHCH3NHCHCHC3H3CH3C2H4C2HSH3CHC2H3CNCH4CH3CH3CHCNCH4CHC2H3C2HC2H2CHCH9CH2CNH5FeH2CHSH4CH2FeC2SCHFeS2FeSFeSFeS3CH2FeS2C2SCH2C6H5C2FeCS3CHCH2NHCHSCH2C4HCH2CNHCFeHCSH3SH5SCHCHCFeSH2CHFeH8CFeCSH2CH4NC8H12S2H6CHCSHFeC5HCHCH3C2HSCFe2H2CH3CH6C2HCH2CHFeS2FeS2FeSFeS3H2SH3CHCHCSC2HCSH3CHCH5SH2C2HCHCHCH2C8H2C6H8C2HFeCNHC2H6CFeSHSHCH2C2H6CH3NCHC3HC2H6NHC3FeHC2H7CH9NH4CH3SCH2CH4C2H6SH4CFeHCNCHC2NCHSH2CFeCHC2HCH3FeC2H2C3HSCHCH2C2NCH7CSH3C3H4CH3C3H4CHCH8C2H2NH5CHSH2CHC3HCNSCHSH2FeH2CHFeS4FeS2FeH2FeHFeS3C7H3C2HCH2C2H5CHCHC2HSH3FeCH6C3H5CH3FeCHS2NHCSC3HCH4C2SH2SNHC2H8C2SH6CH3C4H4C2HCH2C2SH2SHNHFeCSH4C2HCHFeH3CFeCH2SH2C2FeH2CSHC3H3SC2H7CH4CNFeCFeSHCH2CHSH2FeHSHCHSHSH2FeH4CHCHCH2CH2
_chemical_formula_sum              "Fe192 S384 H2304 C1344 N96"
_cell_length_a       48.8315
_cell_length_b       49.2979
_cell_length_c       59.1783
_cell_angle_alpha    89.8537
_cell_angle_beta     90.1396
_cell_angle_gamma    120.052

_space_group_name_H-M_alt    "P 1"
_space_group_IT_number       1

loop_
  _space_group_symop_operation_xyz
  'x, y, z'

loop_
  _atom_site_type_symbol
  _atom_site_label
  _atom_site_symmetry_multiplicity
  _atom_site_fract_x
  _atom_site_fract_y
  _atom_site_fract_z
  _atom_site_occupancy
  Fe  Fe1       1.0  0.38054  0.46839  0.08432  1.0000
  S   S1        1.0  0.35315  0.42677  0.06232  1.0000
  H   H1        1.0  0.50335  0.49410  0.05811  1.0000
  Fe  Fe2       1.0  0.35415  0.42972  0.12679  1.0000
  S   S2        1.0  0.32470  0.38475  0.10757  1.0000
  S   S3        1.0  0.35803  0.43126  0.16472  1.0000
  Fe  Fe3       1.0  0.36861  0.40189  0.08634  1.0000
  S   S4        1.0  0.39318  0.37715  0.07189  1.0000
  Fe  Fe4       1.0  0.31248  0.41463  0.08564  1.0000
  S   S5        1.0  0.26542  0.40041  0.06870  1.0000
  S   S6        1.0  0.39853  0.44452  0.10708  1.0000
  S   S7        1.0  0.33905  0.45854  0.10616  1.0000
  H   H2        1.0  0.21067  0.48842  0.16050  1.0000
  H   H3        1.0  0.41923  0.29641  0.19552  1.0000
  Fe  Fe5       1.0  0.05741  0.41534  0.10578  1.0000
  S   S8        1.0  0.06213  0.44986  0.07933  1.0000
  C   C1        1.0  0.15517  0.41571  0.00738  1.0000
  Fe  Fe6       1.0  0.12730  0.43231  0.10058  1.0000
  S   S9        1.0  0.13642  0.46819  0.07377  1.0000
  S   S10       1.0  0.16861  0.43180  0.11776  1.0000
  Fe  Fe7       1.0  0.10838  0.48229  0.09583  1.0000
  C   C2        1.0  0.13313  0.42211  0.97243  1.0000
  Fe  Fe8       1.0  0.08916  0.43162  0.06026  1.0000
  S   S11       1.0  0.07827  0.42290  0.02320  1.0000
  S   S12       1.0  0.10224  0.44904  0.12352  1.0000
  S   S13       1.0  0.08135  0.39431  0.08564  1.0000
  H   H4        1.0  0.50534  0.47481  0.12973  1.0000
  H   H5        1.0  0.03252  0.11419  0.05892  1.0000
  H   H6        1.0  0.39696  0.21904  0.17786  1.0000
  H   H7        1.0  0.31861  0.49725  0.00644  1.0000
  C   C3        1.0  0.44823  0.37598  0.08012  1.0000
  C   C4        1.0  0.39847  0.38690  0.00277  1.0000
  H   H8        1.0  0.14672  0.08761  0.02708  1.0000
  H   H9        1.0  0.17077  0.48759  0.13617  1.0000
  H   H10       1.0  0.09029  0.42404  0.97560  1.0000
  H   H11       1.0  0.19852  0.03629  0.14879  1.0000
  H   H12       1.0  0.17359  0.01693  0.18651  1.0000
  H   H13       1.0  0.42454  0.40051  0.00031  1.0000
  H   H14       1.0  0.01479  0.05899  0.04980  1.0000
  H   H15       1.0  0.32058  0.02759  0.04365  1.0000
  C   C5        1.0  0.15283  0.46259  0.17939  1.0000
  H   H16       1.0  0.05074  0.48341  0.98350  1.0000
  H   H17       1.0  0.35912  0.21353  0.18518  1.0000
  C   C6        1.0  0.10796  0.42037  0.00822  1.0000
  C   C7        1.0  0.13139  0.41728  0.01964  1.0000
  C   C8        1.0  0.27352  0.48612  0.05381  1.0000
  H   H18       1.0  0.42116  0.00358  0.97289  1.0000
  C   C9        1.0  0.12888  0.04101  0.15468  1.0000
  H   H19       1.0  0.04600  0.06687  0.01633  1.0000
  H   H20       1.0  0.13090  0.41552  0.03788  1.0000
  H   H21       1.0  0.24483  0.49787  0.01633  1.0000
  C   C10       1.0  0.15773  0.07254  0.02793  1.0000
  S   S14       1.0  0.50182  0.38472  0.13552  1.0000
  H   H22       1.0  0.38887  0.36850  0.98966  1.0000
  H   H23       1.0  0.21435  0.03087  0.18564  1.0000
  C   C11       1.0  0.16979  0.03972  0.00242  1.0000
  H   H24       1.0  0.12706  0.48412  0.01994  1.0000
  H   H25       1.0  0.46227  0.38547  0.20952  1.0000
  H   H26       1.0  0.49716  0.48980  0.20190  1.0000
  H   H27       1.0  0.07777  0.02988  0.00016  1.0000
  H   H28       1.0  0.15688  0.12985  0.15740  1.0000
  C   C12       1.0  0.38534  0.40968  0.00211  1.0000
  C   C13       1.0  0.18028  0.19099  0.21356  1.0000
  N   N1        1.0  0.50355  0.44919  0.20138  1.0000
  H   H29       1.0  0.47478  0.33683  0.20032  1.0000
  H   H30       1.0  0.46709  0.46824  0.17085  1.0000
  H   H31       1.0  0.18374  0.08873  0.02658  1.0000
  H   H32       1.0  0.19293  0.06026  0.99770  1.0000
  H   H33       1.0  0.00995  0.47718  0.12045  1.0000
  C   C14       1.0  0.01090  0.46605  0.19284  1.0000
  H   H34       1.0  0.28679  0.44771  0.99381  1.0000
  H   H35       1.0  0.03019  0.48048  0.20503  1.0000
  C   C15       1.0  0.36369  0.40062  0.17416  1.0000
  C   C16       1.0  0.36499  0.39516  0.19727  1.0000
  H   H36       1.0  0.12081  0.01623  0.15395  1.0000
  C   C17       1.0  0.37203  0.35085  0.18856  1.0000
  C   C18       1.0  0.37107  0.35663  0.16552  1.0000
  C   C19       1.0  0.36682  0.38136  0.15841  1.0000
  C   C20       1.0  0.32516  0.47501  0.03606  1.0000
  H   H37       1.0  0.01525  0.48177  0.17809  1.0000
  H   H38       1.0  0.37318  0.34179  0.15306  1.0000
  H   H39       1.0  0.36569  0.38542  0.14068  1.0000
  C   C21       1.0  0.42363  0.37937  0.08934  1.0000
  C   C22       1.0  0.42338  0.38422  0.11254  1.0000
  H   H40       1.0  0.49927  0.41387  0.99812  1.0000
  H   H41       1.0  0.40373  0.43160  0.99388  1.0000
  H   H42       1.0  0.13441  0.04383  0.19100  1.0000
  H   H43       1.0  0.34593  0.36985  0.03456  1.0000
  H   H44       1.0  0.40438  0.38642  0.11974  1.0000
  H   H45       1.0  0.01472  0.11878  0.03402  1.0000
  H   H46       1.0  0.30686  0.01754  0.07270  1.0000
  H   H47       1.0  0.44856  0.37209  0.06217  1.0000
  C   C23       1.0  0.23816  0.40842  0.08260  1.0000
  C   C24       1.0  0.24436  0.42148  0.10425  1.0000
  C   C25       1.0  0.22273  0.42833  0.11476  1.0000
  C   C26       1.0  0.19485  0.42255  0.10369  1.0000
  C   C27       1.0  0.18869  0.40974  0.08192  1.0000
  C   C28       1.0  0.21024  0.40259  0.07147  1.0000
  H   H48       1.0  0.26570  0.42601  0.11302  1.0000
  H   H49       1.0  0.22762  0.43810  0.13162  1.0000
  H   H50       1.0  0.16725  0.40508  0.07324  1.0000
  H   H51       1.0  0.20523  0.39249  0.05471  1.0000
  H   H52       1.0  0.12878  0.05702  0.05881  1.0000
  C   C29       1.0  0.31665  0.01146  0.05795  1.0000
  C   C30       1.0  0.15077  0.05863  0.05210  1.0000
  H   H53       1.0  0.35106  0.46768  0.98976  1.0000
  C   C31       1.0  0.44908  0.46637  0.03095  1.0000
  C   C32       1.0  0.43372  0.47471  0.04704  1.0000
  C   C33       1.0  0.47145  0.29187  0.13985  1.0000
  H   H54       1.0  0.50160  0.44615  0.16487  1.0000
  H   H55       1.0  0.45169  0.44607  0.03382  1.0000
  H   H56       1.0  0.42466  0.46077  0.06217  1.0000
  H   H57       1.0  0.37710  0.27693  0.12471  1.0000
  C   C34       1.0  0.43800  0.26877  0.14876  1.0000
  H   H58       1.0  0.04628  0.11016  0.03201  1.0000
  H   H59       1.0  0.47499  0.41097  0.17814  1.0000
  H   H60       1.0  0.17121  0.45745  0.18555  1.0000
  C   C35       1.0  0.46403  0.33080  0.18319  1.0000
  C   C36       1.0  0.17790  0.02281  0.02090  1.0000
  H   H61       1.0  0.34030  0.01561  0.06320  1.0000
  H   H62       1.0  0.46401  0.49879  0.08871  1.0000
  C   C37       1.0  0.15621  0.41842  0.98377  1.0000
  C   C38       1.0  0.27574  0.19570  0.21195  1.0000
  S   S15       1.0  0.12099  0.03934  0.10804  1.0000
  H   H63       1.0  0.23135  0.23898  0.19377  1.0000
  H   H64       1.0  0.38400  0.41627  0.01990  1.0000
  C   C39       1.0  0.47219  0.38286  0.11736  1.0000
  H   H65       1.0  0.22135  0.46398  0.05278  1.0000
  C   C40       1.0  0.25342  0.25054  0.20376  1.0000
  H   H66       1.0  0.06642  0.00480  0.02428  1.0000
  C   C41       1.0  0.25758  0.45170  0.02080  1.0000
  C   C42       1.0  0.02470  0.10507  0.04153  1.0000
  S   S16       1.0  0.15781  0.10982  0.20239  1.0000
  H   H67       1.0  0.37882  0.05126  0.98255  1.0000
  C   C43       1.0  0.16397  0.49794  0.18025  1.0000
  H   H68       1.0  0.26175  0.27607  0.20377  1.0000
  H   H69       1.0  0.44241  0.43760  0.19066  1.0000
  H   H70       1.0  0.48964  0.29714  0.15305  1.0000
  H   H71       1.0  0.25960  0.43464  0.03197  1.0000
  S   S17       1.0  0.37697  0.31925  0.19662  1.0000
  H   H72       1.0  0.49732  0.44759  0.09534  1.0000
  C   C44       1.0  0.19138  0.01086  0.18035  1.0000
  S   S18       1.0  0.47899  0.47213  0.99119  1.0000
  C   C45       1.0  0.47277  0.37827  0.09405  1.0000
  H   H73       1.0  0.47047  0.47662  0.10907  1.0000
  C   C46       1.0  0.43054  0.50109  0.04372  1.0000
  H   H74       1.0  0.49595  0.44162  0.06562  1.0000
  H   H75       1.0  0.37569  0.24318  0.15029  1.0000
  H   H76       1.0  0.13081  0.04845  0.97398  1.0000
  H   H77       1.0  0.09220  0.46974  0.98814  1.0000
  C   C47       1.0  0.38452  0.23150  0.18334  1.0000
  H   H78       1.0  0.37266  0.26596  0.17230  1.0000
  H   H79       1.0  0.11538  0.00781  0.02825  1.0000
  C   C48       1.0  0.43663  0.29660  0.18333  1.0000
  H   H80       1.0  0.31243  0.37584  0.03047  1.0000
  H   H81       1.0  0.27185  0.24777  0.19490  1.0000
  C   C49       1.0  0.36273  0.45382  0.98594  1.0000
  H   H82       1.0  0.38630  0.46609  0.99421  1.0000
  H   H83       1.0  0.02910  0.04109  0.99234  1.0000
  C   C50       1.0  0.32402  0.36265  0.02472  1.0000
  H   H84       1.0  0.44563  0.38738  0.14457  1.0000
  C   C51       1.0  0.49722  0.03688  0.03981  1.0000
  H   H85       1.0  0.19184  0.03910  0.03472  1.0000
  H   H86       1.0  0.18489  0.21518  0.21091  1.0000
  C   C52       1.0  0.10029  0.49432  0.98311  1.0000
  C   C53       1.0  0.34208  0.42022  0.99522  1.0000
  H   H87       1.0  0.09227  0.04611  0.02807  1.0000
  C   C54       1.0  0.14170  0.06543  0.98805  1.0000
  H   H88       1.0  0.40276  0.31547  0.11454  1.0000
  H   H89       1.0  0.22644  0.16137  0.21603  1.0000
  H   H90       1.0  0.17284  0.41261  0.01620  1.0000
  H   H91       1.0  0.41549  0.28743  0.11267  1.0000
  C   C55       1.0  0.10862  0.42229  0.98459  1.0000
  H   H92       1.0  0.45526  0.34723  0.17946  1.0000
  C   C56       1.0  0.36898  0.37015  0.20448  1.0000
  H   H93       1.0  0.05206  0.08233  0.98807  1.0000
  N   N2        1.0  0.14603  0.04957  0.00852  1.0000
  H   H94       1.0  0.02555  0.41513  0.99549  1.0000
  H   H95       1.0  0.24564  0.41947  0.99270  1.0000
  H   H96       1.0  0.01703  0.36705  0.18256  1.0000
  H   H97       1.0  0.46050  0.04491  0.07098  1.0000
  C   C57       1.0  0.40232  0.29538  0.12344  1.0000
  H   H98       1.0  0.00965  0.44124  0.02237  1.0000
  C   C58       1.0  0.13679  0.05672  0.17565  1.0000
  C   C59       1.0  0.46027  0.48363  0.01099  1.0000
  H   H99       1.0  0.44295  0.42901  0.16149  1.0000
  C   C60       1.0  0.14106  0.08947  0.13596  1.0000
  S   S19       1.0  0.18637  0.41732  0.96844  1.0000
  H   H100      1.0  0.15446  0.17620  0.21674  1.0000
  H   H101      1.0  0.47662  0.28124  0.12512  1.0000
  H   H102      1.0  0.07303  0.48364  0.02146  1.0000
  C   C61       1.0  0.13099  0.05747  0.13479  1.0000
  C   C62       1.0  0.03462  0.06406  0.99962  1.0000
  H   H103      1.0  0.50524  0.05897  0.04924  1.0000
  H   H104      1.0  0.30622  0.35794  0.99119  1.0000
  C   C63       1.0  0.46806  0.03293  0.08336  1.0000
  H   H105      1.0  0.42374  0.25352  0.13448  1.0000
  H   H106      1.0  0.23378  0.19163  0.19687  1.0000
  H   H107      1.0  0.33597  0.34773  0.99393  1.0000
  C   C64       1.0  0.44705  0.38516  0.12655  1.0000
  C   C65       1.0  0.48535  0.43663  0.17962  1.0000
  H   H108      1.0  0.10791  0.00359  0.99904  1.0000
  C   C66       1.0  0.11452  0.02066  0.01319  1.0000
  H   H109      1.0  0.23228  0.44521  0.02188  1.0000
  H   H110      1.0  0.34045  0.42290  0.01371  1.0000
  H   H111      1.0  0.14262  0.10228  0.12070  1.0000
  H   H112      1.0  0.48302  0.33488  0.17121  1.0000
  H   H113      1.0  0.31750  0.41087  0.98886  1.0000
  H   H114      1.0  0.27988  0.18833  0.19517  1.0000
  H   H115      1.0  0.29247  0.22115  0.21386  1.0000
  H   H116      1.0  0.01193  0.09204  0.99855  1.0000
  H   H117      1.0  0.39284  0.24161  0.20043  1.0000
  N   N3        1.0  0.42076  0.28255  0.16100  1.0000
  C   C67       1.0  0.38755  0.25633  0.16593  1.0000
  C   C68       1.0  0.41789  0.30651  0.14684  1.0000
  N   N4        1.0  0.49231  0.01021  0.05506  1.0000
  C   C69       1.0  0.24215  0.48441  0.06044  1.0000
  C   C70       1.0  0.46748  0.00417  0.07264  1.0000
  N   N5        1.0  0.27880  0.48490  0.02880  1.0000
  C   C71       1.0  0.32973  0.36569  0.99899  1.0000
  C   C72       1.0  0.14912  0.10511  0.15676  1.0000
  C   C73       1.0  0.19039  0.01185  0.15431  1.0000
  H   H118      1.0  0.18750  0.08714  0.97013  1.0000
  H   H119      1.0  0.44108  0.32757  0.14372  1.0000
  H   H120      1.0  0.40429  0.31551  0.15608  1.0000
  H   H121      1.0  0.27222  0.01181  0.02707  1.0000
  H   H122      1.0  0.18501  0.18161  0.19800  1.0000
  H   H123      1.0  0.49178  0.37591  0.08678  1.0000
  H   H124      1.0  0.16984  0.07508  0.06364  1.0000
  H   H125      1.0  0.44569  0.28219  0.19141  1.0000
  H   H126      1.0  0.29150  0.01025  0.99183  1.0000
  H   H127      1.0  0.50807  0.00331  0.20719  1.0000
  H   H128      1.0  0.23928  0.48183  0.07908  1.0000
  C   C74       1.0  0.14712  0.08892  0.17668  1.0000
  C   C75       1.0  0.45803  0.44344  0.17572  1.0000
  H   H129      1.0  0.01603  0.42440  0.19905  1.0000
  H   H130      1.0  0.36241  0.40995  0.20955  1.0000
  H   H131      1.0  0.12491  0.07392  0.99166  1.0000
  H   H132      1.0  0.24981  0.01728  0.18678  1.0000
  C   C76       1.0  0.01697  0.43965  0.18494  1.0000
  H   H133      1.0  0.44107  0.25239  0.16002  1.0000
  H   H134      1.0  0.14506  0.45250  0.16230  1.0000
  H   H135      1.0  0.27409  0.46654  0.06275  1.0000
  H   H136      1.0  0.14960  0.03582  0.05401  1.0000
  H   H137      1.0  0.01165  0.40838  0.03394  1.0000
  N   N6        1.0  0.35387  0.39777  0.99046  1.0000
  H   H138      1.0  0.32371  0.47531  0.05475  1.0000
  H   H139      1.0  0.25833  0.45839  0.98369  1.0000
  C   C77       1.0  0.26287  0.44448  0.99634  1.0000
  H   H140      1.0  0.31221  0.45044  0.03007  1.0000
  H   H141      1.0  0.47419  0.03173  0.03212  1.0000
  H   H142      1.0  0.30755  0.33767  0.02897  1.0000
  H   H143      1.0  0.09255  0.49421  0.14216  1.0000
  H   H144      1.0  0.18513  0.11176  0.99193  1.0000
  H   H145      1.0  0.16164  0.02425  0.98723  1.0000
  S   S20       1.0  0.01304  0.39350  0.12706  1.0000
  H   H146      1.0  0.15659  0.49428  0.98350  1.0000
  H   H147      1.0  0.46616  0.44711  0.07839  1.0000
  H   H148      1.0  0.39493  0.37604  0.01978  1.0000
  C   C78       1.0  0.08637  0.02616  0.01664  1.0000
  H   H149      1.0  0.19300  0.01421  0.01339  1.0000
  C   C79       1.0  0.24082  0.18732  0.21373  1.0000
  C   C80       1.0  0.31318  0.49543  0.02484  1.0000
  H   H150      1.0  0.40726  0.02355  0.00688  1.0000
  H   H151      1.0  0.47415  0.31404  0.13321  1.0000
  C   C81       1.0  0.17180  0.09410  0.97871  1.0000
  H   H152      1.0  0.45050  0.02482  0.09731  1.0000
  H   H153      1.0  0.02308  0.36896  0.00235  1.0000
  H   H154      1.0  0.04124  0.45033  0.17784  1.0000
  S   S21       1.0  0.33219  0.06760  0.96860  1.0000
  H   H155      1.0  0.35055  0.48472  0.03181  1.0000
  H   H156      1.0  0.13208  0.44988  0.19074  1.0000
  H   H157      1.0  0.49126  0.04987  0.09062  1.0000
  C   C82       1.0  0.49175  0.45477  0.07909  1.0000
  C   C83       1.0  0.07161  0.49420  0.97219  1.0000
  H   H158      1.0  0.50021  0.41446  0.02814  1.0000
  C   C84       1.0  0.48082  0.50068  0.10219  1.0000
  H   H159      1.0  0.20596  0.00440  0.14622  1.0000
  H   H160      1.0  0.14272  0.50001  0.17657  1.0000
  H   H161      1.0  0.11772  0.49992  0.96930  1.0000
  H   H162      1.0  0.21464  0.50167  0.20322  1.0000
  H   H163      1.0  0.36567  0.45447  0.96737  1.0000
  H   H164      1.0  0.19758  0.21783  0.40751  1.0000
  S   S22       1.0  0.34760  0.33256  0.44015  1.0000
  H   H165      1.0  0.08718  0.14209  0.46446  1.0000
  H   H166      1.0  0.02641  0.44823  0.27907  1.0000
  H   H167      1.0  0.39014  0.39871  0.44412  1.0000
  Fe  Fe9       1.0  0.20557  0.07058  0.25833  1.0000
  C   C85       1.0  0.08548  0.43600  0.32336  1.0000
  C   C86       1.0  0.40744  0.34208  0.43049  1.0000
  H   H168      1.0  0.27205  0.20938  0.25386  1.0000
  S   S23       1.0  0.05819  0.43595  0.24202  1.0000
  C   C87       1.0  0.34265  0.36125  0.37969  1.0000
  Fe  Fe10      1.0  0.08955  0.48820  0.24809  1.0000
  C   C88       1.0  0.19821  0.18905  0.23437  1.0000
  C   C89       1.0  0.13379  0.05967  0.33832  1.0000
  H   H169      1.0  0.42005  0.34330  0.37755  1.0000
  S   S24       1.0  0.07352  0.07942  0.46204  1.0000
  C   C90       1.0  0.31975  0.12351  0.26222  1.0000
  Fe  Fe11      1.0  0.13738  0.01637  0.24909  1.0000
  H   H170      1.0  0.20636  0.13121  0.41647  1.0000
  H   H171      1.0  0.24447  0.23523  0.27434  1.0000
  C   C91       1.0  0.43815  0.38429  0.35748  1.0000
  H   H172      1.0  0.14860  0.12865  0.35158  1.0000
  C   C92       1.0  0.16794  0.14573  0.45739  1.0000
  Fe  Fe12      1.0  0.34825  0.29650  0.27922  1.0000
  S   S25       1.0  0.38673  0.29124  0.29567  1.0000
  S   S26       1.0  0.30587  0.28885  0.29893  1.0000
  Fe  Fe13      1.0  0.37968  0.31092  0.23357  1.0000
  S   S27       1.0  0.42042  0.30593  0.24596  1.0000
  Fe  Fe14      1.0  0.38265  0.26355  0.26447  1.0000
  S   S28       1.0  0.38069  0.21680  0.26561  1.0000
  Fe  Fe15      1.0  0.42024  0.33411  0.27570  1.0000
  S   S29       1.0  0.46051  0.37756  0.29196  1.0000
  S   S30       1.0  0.34226  0.26637  0.24937  1.0000
  S   S31       1.0  0.38163  0.34162  0.26198  1.0000
  H   H173      1.0  0.43401  0.39714  0.21744  1.0000
  C   C93       1.0  0.01805  0.40827  0.34305  1.0000
  H   H174      1.0  0.21102  0.10338  0.40006  1.0000
  Fe  Fe16      1.0  0.29175  0.21892  0.41231  1.0000
  S   S32       1.0  0.27508  0.25331  0.41788  1.0000
  S   S33       1.0  0.28843  0.19636  0.37851  1.0000
  S   S34       1.0  0.26440  0.18761  0.44121  1.0000
  C   C94       1.0  0.13110  0.02633  0.37775  1.0000
  C   C95       1.0  0.04351  0.44643  0.37506  1.0000
  C   C96       1.0  0.23803  0.21029  0.27581  1.0000
  C   C97       1.0  0.36581  0.28455  0.36949  1.0000
  H   H175      1.0  0.14036  0.09493  0.45671  1.0000
  C   C98       1.0  0.29840  0.26116  0.32010  1.0000
  C   C99       1.0  0.31016  0.24060  0.31814  1.0000
  C   C100      1.0  0.30645  0.22028  0.33597  1.0000
  C   C101      1.0  0.29102  0.22049  0.35579  1.0000
  C   C102      1.0  0.27839  0.24036  0.35742  1.0000
  C   C103      1.0  0.28190  0.26055  0.33954  1.0000
  H   H176      1.0  0.32239  0.24049  0.30297  1.0000
  H   H177      1.0  0.31665  0.20535  0.33468  1.0000
  H   H178      1.0  0.26576  0.24010  0.37235  1.0000
  H   H179      1.0  0.27254  0.27627  0.34102  1.0000
  C   C104      1.0  0.38923  0.35542  0.43693  1.0000
  S   S35       1.0  0.16755  0.03382  0.28039  1.0000
  S   S36       1.0  0.33716  0.24673  0.43190  1.0000
  N   N7        1.0  0.04557  0.43924  0.35056  1.0000
  H   H180      1.0  0.45346  0.35091  0.41991  1.0000
  H   H181      1.0  0.23582  0.24848  0.23747  1.0000
  S   S37       1.0  0.17763  0.04967  0.22678  1.0000
  H   H182      1.0  0.39642  0.31692  0.42876  1.0000
  Fe  Fe17      1.0  0.25054  0.22356  0.44825  1.0000
  C   C105      1.0  0.04413  0.42322  0.39229  1.0000
  C   C106      1.0  0.19193  0.20420  0.39156  1.0000
  H   H183      1.0  0.20231  0.15079  0.33777  1.0000
  C   C107      1.0  0.15207  0.04520  0.34012  1.0000
  H   H184      1.0  0.16790  0.19875  0.38667  1.0000
  H   H185      1.0  0.43364  0.39468  0.34240  1.0000
  H   H186      1.0  0.04990  0.46096  0.31777  1.0000
  H   H187      1.0  0.18744  0.16371  0.23883  1.0000
  H   H188      1.0  0.07126  0.48754  0.33990  1.0000
  H   H189      1.0  0.09604  0.45865  0.35584  1.0000
  S   S38       1.0  0.12996  0.00542  0.40222  1.0000
  H   H190      1.0  0.14839  0.12103  0.41329  1.0000
  C   C108      1.0  0.13955  0.11634  0.45821  1.0000
  C   C109      1.0  0.31485  0.17758  0.26432  1.0000
  C   C110      1.0  0.34493  0.18034  0.26425  1.0000
  C   C111      1.0  0.34707  0.15311  0.26331  1.0000
  H   H191      1.0  0.46135  0.38572  0.35477  1.0000
  H   H192      1.0  0.25198  0.20868  0.29007  1.0000
  H   H193      1.0  0.31299  0.19844  0.26553  1.0000
  H   H194      1.0  0.37009  0.15491  0.26338  1.0000
  H   H195      1.0  0.32964  0.35838  0.36369  1.0000
  H   H196      1.0  0.02944  0.49552  0.32723  1.0000
  H   H197      1.0  0.10113  0.12483  0.40893  1.0000
  H   H198      1.0  0.41567  0.33560  0.34793  1.0000
  H   H199      1.0  0.09491  0.45883  0.31449  1.0000
  C   C112      1.0  0.19456  0.16736  0.34325  1.0000
  C   C113      1.0  0.36033  0.31175  0.37619  1.0000
  C   C114      1.0  0.28972  0.12050  0.26194  1.0000
  S   S39       1.0  0.10932  0.02623  0.46002  1.0000
  H   H200      1.0  0.50456  0.03207  0.33126  1.0000
  C   C115      1.0  0.02186  0.41244  0.25613  1.0000
  H   H201      1.0  0.39001  0.28955  0.37378  1.0000
  H   H202      1.0  0.01679  0.40694  0.32428  1.0000
  H   H203      1.0  0.12831  0.10395  0.38779  1.0000
  C   C116      1.0  0.07567  0.43789  0.34786  1.0000
  H   H204      1.0  0.49816  0.43873  0.23713  1.0000
  H   H205      1.0  0.32199  0.10276  0.26151  1.0000
  H   H206      1.0  0.34431  0.38187  0.38856  1.0000
  C   C117      1.0  0.11428  0.05756  0.35632  1.0000
  H   H207      1.0  0.21483  0.18839  0.35077  1.0000
  H   H208      1.0  0.33436  0.30240  0.37483  1.0000
  H   H209      1.0  0.45523  0.38965  0.23830  1.0000
  H   H210      1.0  0.20924  0.22050  0.37900  1.0000
  Fe  Fe18      1.0  0.31861  0.27916  0.43964  1.0000
  H   H211      1.0  0.21314  0.13944  0.37294  1.0000
  C   C118      1.0  0.28724  0.14764  0.26302  1.0000
  H   H212      1.0  0.22128  0.18349  0.39044  1.0000
  H   H213      1.0  0.26412  0.14543  0.26319  1.0000
  C   C119      1.0  0.45445  0.39417  0.42739  1.0000
  H   H214      1.0  0.27330  0.25148  0.23607  1.0000
  H   H215      1.0  0.19543  0.17133  0.41397  1.0000
  H   H216      1.0  0.10002  0.06865  0.35500  1.0000
  H   H217      1.0  0.13518  0.16247  0.41169  1.0000
  H   H218      1.0  0.03766  0.42794  0.40921  1.0000
  H   H219      1.0  0.13633  0.19315  0.46234  1.0000
  H   H220      1.0  0.19048  0.14679  0.45554  1.0000
  H   H221      1.0  0.15434  0.16540  0.35937  1.0000
  C   C120      1.0  0.43978  0.36141  0.42548  1.0000
  S   S40       1.0  0.49467  0.41731  0.41945  1.0000
  C   C121      1.0  0.04870  0.46580  0.33597  1.0000
  S   S41       1.0  0.25647  0.08212  0.26119  1.0000
  Fe  Fe19      1.0  0.03555  0.46595  0.44906  1.0000
  S   S42       1.0  0.08020  0.46321  0.45232  1.0000
  H   H222      1.0  0.18720  0.17480  0.32775  1.0000
  H   H223      1.0  0.28132  0.18279  0.22484  1.0000
  Fe  Fe20      1.0  0.15011  0.06817  0.28224  1.0000
  H   H224      1.0  0.50256  0.44398  0.28947  1.0000
  C   C122      1.0  0.49717  0.40006  0.27811  1.0000
  Fe  Fe21      1.0  0.15884  0.08200  0.23205  1.0000
  N   N8        1.0  0.37861  0.34186  0.36288  1.0000
  H   H225      1.0  0.38806  0.37096  0.39230  1.0000
  H   H226      1.0  0.24221  0.04065  0.31353  1.0000
  S   S43       1.0  0.05210  0.00564  0.42183  1.0000
  C   C123      1.0  0.36377  0.33633  0.33976  1.0000
  H   H227      1.0  0.01013  0.37204  0.23561  1.0000
  C   C124      1.0  0.41274  0.34967  0.36144  1.0000
  C   C125      1.0  0.37758  0.36410  0.32311  1.0000
  H   H228      1.0  0.36581  0.31596  0.39453  1.0000
  S   S44       1.0  0.11699  0.04807  0.25254  1.0000
  C   C126      1.0  0.40407  0.38817  0.43925  1.0000
  C   C127      1.0  0.11305  0.04106  0.37602  1.0000
  H   H229      1.0  0.36555  0.31746  0.33095  1.0000
  H   H230      1.0  0.33776  0.32670  0.34070  1.0000
  H   H231      1.0  0.34929  0.26335  0.37927  1.0000
  H   H232      1.0  0.44751  0.43268  0.43599  1.0000
  Fe  Fe22      1.0  0.30779  0.21891  0.46158  1.0000
  H   H233      1.0  0.32885  0.34081  0.39094  1.0000
  H   H234      1.0  0.07393  0.41723  0.35687  1.0000
  H   H235      1.0  0.09826  0.03995  0.38986  1.0000
  H   H236      1.0  0.06584  0.41730  0.31342  1.0000
  H   H237      1.0  0.39831  0.36587  0.31404  1.0000
  H   H238      1.0  0.38400  0.38677  0.33102  1.0000
  H   H239      1.0  0.35915  0.36029  0.31044  1.0000
  H   H240      1.0  0.44098  0.39882  0.37259  1.0000
  C   C128      1.0  0.12322  0.14209  0.40017  1.0000
  H   H241      1.0  0.21278  0.19564  0.28059  1.0000
  H   H242      1.0  0.36110  0.27845  0.35137  1.0000
  H   H243      1.0  0.16738  0.04697  0.32647  1.0000
  C   C129      1.0  0.43658  0.40748  0.43465  1.0000
  H   H244      1.0  0.17544  0.10534  0.36985  1.0000
  C   C130      1.0  0.37638  0.36719  0.37552  1.0000
  S   S45       1.0  0.13690  0.08264  0.31464  1.0000
  H   H245      1.0  0.06342  0.47013  0.37942  1.0000
  Fe  Fe23      1.0  0.06701  0.03148  0.45498  1.0000
  S   S46       1.0  0.18986  0.10577  0.26198  1.0000
  H   H246      1.0  0.16489  0.01736  0.36104  1.0000
  H   H247      1.0  0.38951  0.39023  0.36697  1.0000
  C   C131      1.0  0.24582  0.19810  0.25414  1.0000
  H   H248      1.0  0.11587  0.14851  0.38427  1.0000
  H   H249      1.0  0.10499  0.43057  0.32376  1.0000
  H   H250      1.0  0.02703  0.39851  0.38803  1.0000
  H   H251      1.0  0.17264  0.09296  0.40987  1.0000
  N   N9        1.0  0.27401  0.11545  0.33841  1.0000
  C   C132      1.0  0.30796  0.13741  0.34524  1.0000
  C   C133      1.0  0.25427  0.10517  0.35962  1.0000
  C   C134      1.0  0.26366  0.13410  0.32410  1.0000
  C   C135      1.0  0.27241  0.08840  0.32532  1.0000
  C   C136      1.0  0.33212  0.15198  0.32572  1.0000
  C   C137      1.0  0.26503  0.09019  0.37797  1.0000
  C   C138      1.0  0.22979  0.11649  0.31467  1.0000
  C   C139      1.0  0.24085  0.05692  0.32586  1.0000
  H   H252      1.0  0.30983  0.15703  0.35572  1.0000
  H   H253      1.0  0.31702  0.12511  0.35606  1.0000
  H   H254      1.0  0.22903  0.08825  0.35589  1.0000
  H   H255      1.0  0.25421  0.12556  0.36768  1.0000
  H   H256      1.0  0.26602  0.15449  0.33382  1.0000
  H   H257      1.0  0.27898  0.14403  0.30904  1.0000
  H   H258      1.0  0.27833  0.09497  0.30726  1.0000
  H   H259      1.0  0.29069  0.08285  0.33135  1.0000
  H   H260      1.0  0.32963  0.17010  0.31632  1.0000
  H   H261      1.0  0.35643  0.16411  0.33289  1.0000
  H   H262      1.0  0.33079  0.13412  0.31372  1.0000
  H   H263      1.0  0.28500  0.10858  0.38793  1.0000
  H   H264      1.0  0.24526  0.07672  0.38997  1.0000
  H   H265      1.0  0.27222  0.07393  0.37084  1.0000
  H   H266      1.0  0.22761  0.09991  0.30122  1.0000
  H   H267      1.0  0.22460  0.13370  0.30646  1.0000
  H   H268      1.0  0.21156  0.10447  0.32784  1.0000
  H   H269      1.0  0.23626  0.04544  0.34264  1.0000
  H   H270      1.0  0.23668  0.17261  0.25658  1.0000
  H   H271      1.0  0.22023  0.05904  0.32095  1.0000
  N   N10       1.0  0.17396  0.14565  0.38317  1.0000
  C   C140      1.0  0.18951  0.12585  0.38107  1.0000
  C   C141      1.0  0.16618  0.15127  0.35954  1.0000
  C   C142      1.0  0.14362  0.12684  0.39619  1.0000
  C   C143      1.0  0.19639  0.17556  0.39544  1.0000
  C   C144      1.0  0.19505  0.11288  0.40333  1.0000
  H   H272      1.0  0.02206  0.44780  0.37880  1.0000
  H   H273      1.0  0.19182  0.19993  0.24829  1.0000
  H   H274      1.0  0.06829  0.42657  0.39398  1.0000
  H   H275      1.0  0.49927  0.36061  0.26474  1.0000
  H   H276      1.0  0.48920  0.01670  0.35921  1.0000
  H   H277      1.0  0.36937  0.36573  0.22228  1.0000
  S   S47       1.0  0.20085  0.21149  0.45788  1.0000
  C   C145      1.0  0.11023  0.11492  0.46075  1.0000
  C   C146      1.0  0.02236  0.47417  0.33760  1.0000
  C   C147      1.0  0.16687  0.17362  0.45889  1.0000
  C   C148      1.0  0.24914  0.23889  0.22848  1.0000
  C   C149      1.0  0.10960  0.14286  0.46254  1.0000
  N   N11       1.0  0.23366  0.20389  0.23222  1.0000
  C   C150      1.0  0.01193  0.42407  0.27392  1.0000
  C   C151      1.0  0.13756  0.17186  0.46145  1.0000
  H   H278      1.0  0.22841  0.03089  0.22028  1.0000
  H   H279      1.0  0.02182  0.38870  0.34845  1.0000
  C   C152      1.0  0.15083  0.02866  0.35980  1.0000
  H   H280      1.0  0.01890  0.48014  0.35499  1.0000
  H   H281      1.0  0.21611  0.00744  0.24496  1.0000
  C   C153      1.0  0.21917  0.00662  0.22641  1.0000
  S   S48       1.0  0.05546  0.50241  0.42150  1.0000
  Fe  Fe24      1.0  0.10072  0.50187  0.42650  1.0000
  C   C154      1.0  0.45759  0.40002  0.22122  1.0000
  C   C155      1.0  0.48313  0.43522  0.22208  1.0000
  H   H282      1.0  0.47004  0.44783  0.22583  1.0000
  H   H283      1.0  0.37180  0.07088  0.66131  1.0000
  H   H284      1.0  0.42634  0.18838  0.69162  1.0000
  H   H285      1.0  0.13451  0.40538  0.57277  1.0000
  Fe  Fe25      1.0  0.24706  0.49624  0.56567  1.0000
  H   H286      1.0  0.45689  0.21880  0.67529  1.0000
  H   H287      1.0  0.11796  0.07888  0.56054  1.0000
  H   H288      1.0  0.19787  0.01348  0.49838  1.0000
  Fe  Fe26      1.0  0.23471  0.19864  0.59650  1.0000
  S   S49       1.0  0.19586  0.18971  0.62076  1.0000
  S   S50       1.0  0.21760  0.17700  0.56233  1.0000
  Fe  Fe27      1.0  0.28577  0.23171  0.63151  1.0000
  S   S51       1.0  0.25052  0.22438  0.65826  1.0000
  S   S52       1.0  0.33585  0.25478  0.64405  1.0000
  Fe  Fe28      1.0  0.22272  0.17551  0.64426  1.0000
  S   S53       1.0  0.20228  0.13281  0.66706  1.0000
  Fe  Fe29      1.0  0.22816  0.23978  0.63173  1.0000
  S   S54       1.0  0.21261  0.27465  0.64212  1.0000
  S   S55       1.0  0.25978  0.18194  0.61944  1.0000
  S   S56       1.0  0.26514  0.24973  0.60543  1.0000
  H   H289      1.0  0.32552  0.18834  0.71092  1.0000
  C   C156      1.0  0.11720  0.05785  0.51677  1.0000
  S   S57       1.0  0.22602  0.38869  0.58292  1.0000
  S   S58       1.0  0.24290  0.02491  0.60277  1.0000
  H   H290      1.0  0.48209  0.32565  0.63751  1.0000
  H   H291      1.0  0.41588  0.29573  0.64336  1.0000
  Fe  Fe30      1.0  0.21425  0.48399  0.61044  1.0000
  C   C157      1.0  0.45223  0.20102  0.68853  1.0000
  H   H292      1.0  0.43469  0.36977  0.50452  1.0000
  S   S59       1.0  0.32579  0.04378  0.62550  1.0000
  H   H293      1.0  0.31398  0.11279  0.69310  1.0000
  H   H294      1.0  0.43547  0.40490  0.64185  1.0000
  H   H295      1.0  0.49492  0.45665  0.50099  1.0000
  C   C158      1.0  0.48707  0.37168  0.64701  1.0000
  C   C159      1.0  0.27260  0.38643  0.67355  1.0000
  N   N12       1.0  0.30143  0.41795  0.66902  1.0000
  C   C160      1.0  0.31526  0.05806  0.70031  1.0000
  H   H296      1.0  0.26679  0.46531  0.67406  1.0000
  C   C161      1.0  0.15646  0.22416  0.50851  1.0000
  H   H297      1.0  0.49642  0.36592  0.69274  1.0000
  C   C162      1.0  0.32147  0.42854  0.69011  1.0000
  H   H298      1.0  0.18904  0.31362  0.52807  1.0000
  H   H299      1.0  0.31301  0.06272  0.57353  1.0000
  H   H300      1.0  0.09470  0.42150  0.49943  1.0000
  C   C163      1.0  0.28882  0.04498  0.68613  1.0000
  C   C164      1.0  0.29232  0.04176  0.66300  1.0000
  C   C165      1.0  0.32215  0.05082  0.65403  1.0000
  C   C166      1.0  0.34872  0.06408  0.66816  1.0000
  H   H301      1.0  0.50464  0.12353  0.65088  1.0000
  H   H302      1.0  0.27181  0.03249  0.65213  1.0000
  H   H303      1.0  0.47590  0.39863  0.47134  1.0000
  C   C167      1.0  0.19687  0.09545  0.65988  1.0000
  C   C168      1.0  0.20412  0.08824  0.63854  1.0000
  C   C169      1.0  0.19943  0.05788  0.63420  1.0000
  H   H304      1.0  0.43626  0.03113  0.67379  1.0000
  H   H305      1.0  0.29344  0.36235  0.69267  1.0000
  C   C170      1.0  0.18486  0.07220  0.67659  1.0000
  H   H306      1.0  0.21313  0.10591  0.62543  1.0000
  H   H307      1.0  0.20439  0.05221  0.61766  1.0000
  H   H308      1.0  0.49242  0.11073  0.69367  1.0000
  H   H309      1.0  0.17902  0.07738  0.69304  1.0000
  C   C171      1.0  0.21966  0.30842  0.62661  1.0000
  C   C172      1.0  0.20747  0.32706  0.63469  1.0000
  C   C173      1.0  0.21087  0.35295  0.62215  1.0000
  C   C174      1.0  0.22604  0.36008  0.60115  1.0000
  C   C175      1.0  0.23894  0.34192  0.59336  1.0000
  C   C176      1.0  0.23624  0.31657  0.60618  1.0000
  H   H310      1.0  0.19468  0.32100  0.65052  1.0000
  H   H311      1.0  0.20050  0.36646  0.62823  1.0000
  H   H312      1.0  0.25092  0.34741  0.57722  1.0000
  H   H313      1.0  0.24659  0.30306  0.60018  1.0000
  C   C177      1.0  0.24783  0.18424  0.54333  1.0000
  C   C178      1.0  0.23986  0.17524  0.52082  1.0000
  C   C179      1.0  0.26332  0.18041  0.50519  1.0000
  C   C180      1.0  0.29494  0.19467  0.51190  1.0000
  C   C181      1.0  0.30312  0.20380  0.53444  1.0000
  C   C182      1.0  0.27949  0.19862  0.55022  1.0000
  H   H314      1.0  0.21564  0.16492  0.51524  1.0000
  C   C183      1.0  0.14682  0.11556  0.52285  1.0000
  H   H315      1.0  0.32770  0.21547  0.53953  1.0000
  H   H316      1.0  0.28576  0.20590  0.56760  1.0000
  C   C184      1.0  0.17896  0.00292  0.51065  1.0000
  H   H317      1.0  0.50815  0.38179  0.54656  1.0000
  C   C185      1.0  0.34527  0.06770  0.69131  1.0000
  H   H318      1.0  0.15928  0.10261  0.56330  1.0000
  C   C186      1.0  0.44919  0.33687  0.67691  1.0000
  H   H319      1.0  0.16002  0.24677  0.50194  1.0000
  H   H320      1.0  0.46791  0.05562  0.69140  1.0000
  H   H321      1.0  0.09838  0.10390  0.51416  1.0000
  H   H322      1.0  0.25480  0.08322  0.69168  1.0000
  C   C187      1.0  0.34306  0.33868  0.65645  1.0000
  C   C188      1.0  0.33502  0.30974  0.64669  1.0000
  C   C189      1.0  0.34380  0.28983  0.65724  1.0000
  C   C190      1.0  0.35980  0.29850  0.67798  1.0000
  H   H323      1.0  0.33722  0.19685  0.68217  1.0000
  C   C191      1.0  0.42136  0.31426  0.63062  1.0000
  H   H324      1.0  0.32264  0.30315  0.63069  1.0000
  H   H325      1.0  0.36632  0.28298  0.68630  1.0000
  H   H326      1.0  0.44023  0.31700  0.61893  1.0000
  H   H327      1.0  0.40647  0.34221  0.64871  1.0000
  H   H328      1.0  0.17400  0.06382  0.52762  1.0000
  H   H329      1.0  0.12057  0.43638  0.59404  1.0000
  H   H330      1.0  0.46738  0.44149  0.47816  1.0000
  C   C192      1.0  0.46937  0.21626  0.71082  1.0000
  H   H331      1.0  0.50663  0.34370  0.66189  1.0000
  H   H332      1.0  0.47402  0.39998  0.68096  1.0000
  N   N13       1.0  0.20087  0.25055  0.53823  1.0000
  C   C193      1.0  0.22135  0.24136  0.52486  1.0000
  C   C194      1.0  0.16687  0.22647  0.53333  1.0000
  C   C195      1.0  0.20790  0.24988  0.56304  1.0000
  C   C196      1.0  0.20919  0.28313  0.53093  1.0000
  C   C197      1.0  0.25703  0.25910  0.53062  1.0000
  C   C198      1.0  0.18880  0.29636  0.54030  1.0000
  H   H333      1.0  0.21291  0.21593  0.52698  1.0000
  H   H334      1.0  0.21977  0.24478  0.50639  1.0000
  H   H335      1.0  0.21190  0.23001  0.56670  1.0000
  H   H336      1.0  0.23029  0.27137  0.56782  1.0000
  H   H337      1.0  0.23388  0.30034  0.53599  1.0000
  H   H338      1.0  0.20982  0.28540  0.51217  1.0000
  H   H339      1.0  0.26815  0.28463  0.52754  1.0000
  H   H340      1.0  0.26174  0.25467  0.54819  1.0000
  H   H341      1.0  0.26919  0.25033  0.51947  1.0000
  H   H342      1.0  0.16885  0.21554  0.49762  1.0000
  H   H343      1.0  0.13081  0.20679  0.50716  1.0000
  H   H344      1.0  0.17560  0.26417  0.57856  1.0000
  H   H345      1.0  0.19841  0.30862  0.55660  1.0000
  C   C199      1.0  0.27492  0.44975  0.68131  1.0000
  H   H346      1.0  0.15666  0.40114  0.52817  1.0000
  C   C200      1.0  0.17993  0.04213  0.67223  1.0000
  H   H347      1.0  0.33255  0.40262  0.65527  1.0000
  H   H348      1.0  0.30987  0.16253  0.65289  1.0000
  H   H349      1.0  0.46364  0.36274  0.70892  1.0000
  H   H350      1.0  0.25684  0.17338  0.48785  1.0000
  H   H351      1.0  0.07596  0.42261  0.56670  1.0000
  H   H352      1.0  0.25561  0.33714  0.68040  1.0000
  H   H353      1.0  0.20382  0.08705  0.49508  1.0000
  N   N14       1.0  0.10793  0.41353  0.54683  1.0000
  C   C201      1.0  0.08053  0.39400  0.53126  1.0000
  C   C202      1.0  0.11278  0.39199  0.56234  1.0000
  C   C203      1.0  0.13785  0.43307  0.53357  1.0000
  H   H354      1.0  0.33063  0.14317  0.71297  1.0000
  H   H355      1.0  0.27025  0.14546  0.66062  1.0000
  C   C204      1.0  0.14872  0.41504  0.51820  1.0000
  C   C205      1.0  0.47143  0.35002  0.69754  1.0000
  H   H356      1.0  0.08286  0.37468  0.52356  1.0000
  H   H357      1.0  0.05796  0.38211  0.54091  1.0000
  H   H358      1.0  0.29186  0.41487  0.62068  1.0000
  H   H359      1.0  0.11696  0.37524  0.55245  1.0000
  H   H360      1.0  0.13570  0.45033  0.52282  1.0000
  H   H361      1.0  0.44727  0.07180  0.67631  1.0000
  H   H362      1.0  0.12253  0.03873  0.51354  1.0000
  C   C206      1.0  0.07514  0.41194  0.51191  1.0000
  H   H363      1.0  0.15799  0.44737  0.54496  1.0000
  C   C207      1.0  0.08421  0.04178  0.52801  1.0000
  H   H364      1.0  0.48710  0.38035  0.62959  1.0000
  C   C208      1.0  0.18729  0.03466  0.65115  1.0000
  H   H365      1.0  0.46877  0.07210  0.64150  1.0000
  H   H366      1.0  0.25198  0.13462  0.69622  1.0000
  C   C209      1.0  0.28432  0.11197  0.65286  1.0000
  C   C210      1.0  0.14253  0.05310  0.56477  1.0000
  C   C211      1.0  0.08498  0.37161  0.57833  1.0000
  H   H367      1.0  0.34055  0.43985  0.64551  1.0000
  C   C212      1.0  0.27170  0.13193  0.70317  1.0000
  C   C213      1.0  0.29168  0.14343  0.66364  1.0000
  H   H368      1.0  0.45058  0.31635  0.67077  1.0000
  H   H369      1.0  0.28824  0.11531  0.63434  1.0000
  Fe  Fe31      1.0  0.23325  0.43684  0.59201  1.0000
  H   H370      1.0  0.16356  0.27874  0.54240  1.0000
  C   C214      1.0  0.18409  0.09171  0.49800  1.0000
  H   H371      1.0  0.49443  0.02381  0.67660  1.0000
  N   N15       1.0  0.28913  0.11379  0.55368  1.0000
  C   C215      1.0  0.25755  0.11256  0.55357  1.0000
  C   C216      1.0  0.29997  0.11749  0.52943  1.0000
  C   C217      1.0  0.31208  0.14233  0.56696  1.0000
  C   C218      1.0  0.28492  0.08430  0.56473  1.0000
  C   C219      1.0  0.24376  0.11314  0.57688  1.0000
  C   C220      1.0  0.27703  0.09163  0.51313  1.0000
  C   C221      1.0  0.34641  0.14911  0.56843  1.0000
  C   C222      1.0  0.30872  0.07351  0.55839  1.0000
  H   H372      1.0  0.25893  0.13233  0.54351  1.0000
  H   H373      1.0  0.23914  0.09078  0.54517  1.0000
  H   H374      1.0  0.32310  0.11870  0.52774  1.0000
  H   H375      1.0  0.30414  0.14032  0.52246  1.0000
  H   H376      1.0  0.31286  0.16364  0.55994  1.0000
  H   H377      1.0  0.30433  0.14057  0.58483  1.0000
  H   H378      1.0  0.28528  0.08652  0.58347  1.0000
  H   H379      1.0  0.26118  0.06422  0.56051  1.0000
  H   H380      1.0  0.24321  0.09527  0.58859  1.0000
  H   H381      1.0  0.25685  0.13674  0.58463  1.0000
  H   H382      1.0  0.21904  0.10806  0.57471  1.0000
  H   H383      1.0  0.16748  0.05867  0.56630  1.0000
  H   H384      1.0  0.26854  0.06779  0.51996  1.0000
  H   H385      1.0  0.25645  0.09447  0.50896  1.0000
  C   C223      1.0  0.31628  0.18316  0.69324  1.0000
  H   H386      1.0  0.37977  0.33391  0.70392  1.0000
  H   H387      1.0  0.10845  0.11364  0.54394  1.0000
  C   C224      1.0  0.25820  0.09662  0.70733  1.0000
  H   H388      1.0  0.13244  0.04799  0.58210  1.0000
  H   H389      1.0  0.28939  0.09356  0.49696  1.0000
  C   C225      1.0  0.11733  0.11870  0.52636  1.0000
  N   N16       1.0  0.14400  0.08465  0.52940  1.0000
  H   H390      1.0  0.19478  0.10495  0.53306  1.0000
  C   C226      1.0  0.17477  0.08619  0.52322  1.0000
  H   H391      1.0  0.07823  0.38561  0.58915  1.0000
  C   C227      1.0  0.29065  0.44073  0.66242  1.0000
  H   H392      1.0  0.35758  0.15224  0.55163  1.0000
  H   H393      1.0  0.36562  0.07680  0.70229  1.0000
  H   H394      1.0  0.35114  0.15331  0.66257  1.0000
  C   C228      1.0  0.45659  0.05540  0.67523  1.0000
  H   H395      1.0  0.47033  0.33034  0.70747  1.0000
  H   H396      1.0  0.29820  0.05439  0.54567  1.0000
  H   H397      1.0  0.09224  0.35847  0.58984  1.0000
  C   C229      1.0  0.49919  0.34823  0.64527  1.0000
  H   H398      1.0  0.16963  0.43237  0.50837  1.0000
  H   H399      1.0  0.33689  0.35426  0.64786  1.0000
  H   H400      1.0  0.36802  0.14092  0.68410  1.0000
  C   C230      1.0  0.27866  0.35887  0.67751  1.0000
  H   H401      1.0  0.16658  0.13507  0.53227  1.0000
  H   H402      1.0  0.19191  0.24794  0.59746  1.0000
  H   H403      1.0  0.15257  0.12072  0.50468  1.0000
  H   H404      1.0  0.50606  0.39246  0.65598  1.0000
  H   H405      1.0  0.14777  0.46653  0.57519  1.0000
  H   H406      1.0  0.47094  0.35403  0.48804  1.0000
  H   H407      1.0  0.11439  0.06570  0.49969  1.0000
  C   C231      1.0  0.29513  0.19786  0.68992  1.0000
  N   N17       1.0  0.50333  0.40046  0.50092  1.0000
  S   S60       1.0  0.23996  0.46080  0.62551  1.0000
  H   H408      1.0  0.25987  0.38739  0.68880  1.0000
  H   H409      1.0  0.19291  0.11636  0.49287  1.0000
  H   H410      1.0  0.45732  0.42098  0.50445  1.0000
  H   H411      1.0  0.39961  0.30553  0.62016  1.0000
  H   H412      1.0  0.49764  0.08468  0.61023  1.0000
  C   C232      1.0  0.32088  0.41609  0.64999  1.0000
  H   H413      1.0  0.33214  0.09211  0.55259  1.0000
  C   C233      1.0  0.36728  0.32725  0.68800  1.0000
  H   H414      1.0  0.12938  0.03150  0.55456  1.0000
  H   H415      1.0  0.17029  0.02445  0.68534  1.0000
  H   H416      1.0  0.06661  0.02521  0.51574  1.0000
  H   H417      1.0  0.43219  0.37962  0.67834  1.0000
  H   H418      1.0  0.43105  0.33554  0.51748  1.0000
  C   C234      1.0  0.45450  0.38768  0.66859  1.0000
  H   H419      1.0  0.31055  0.46285  0.65545  1.0000
  H   H420      1.0  0.29167  0.46318  0.69508  1.0000
  H   H421      1.0  0.42464  0.32685  0.68336  1.0000
  H   H422      1.0  0.12367  0.14327  0.52265  1.0000
  C   C235      1.0  0.35917  0.34751  0.67712  1.0000
  C   C236      1.0  0.35526  0.15391  0.68101  1.0000
  C   C237      1.0  0.49262  0.41607  0.48370  1.0000
  H   H423      1.0  0.25944  0.09357  0.65564  1.0000
  H   H424      1.0  0.16443  0.07572  0.48678  1.0000
  C   C238      1.0  0.44721  0.36119  0.51545  1.0000
  N   N18       1.0  0.50501  0.23238  0.71013  1.0000
  N   N19       1.0  0.45533  0.36012  0.65823  1.0000
  C   C239      1.0  0.47811  0.36674  0.50445  1.0000
  H   H425      1.0  0.48741  0.35422  0.51478  1.0000
  S   S61       1.0  0.20248  0.45538  0.57865  1.0000
  C   C240      1.0  0.14056  0.08107  0.55474  1.0000
  S   S62       1.0  0.17840  0.49232  0.62843  1.0000
  S   S63       1.0  0.29203  0.25302  0.47069  1.0000
  C   C241      1.0  0.18237  0.24598  0.58014  1.0000
  H   H426      1.0  0.50659  0.28329  0.66934  1.0000
  S   S64       1.0  0.32393  0.20258  0.49155  1.0000
  H   H427      1.0  0.15004  0.23043  0.54331  1.0000
  H   H428      1.0  0.28942  0.35414  0.66270  1.0000
  H   H429      1.0  0.26556  0.03753  0.69297  1.0000
  H   H430      1.0  0.07622  0.05825  0.53301  1.0000
  C   C242      1.0  0.10057  0.43529  0.56003  1.0000
  H   H431      1.0  0.43363  0.36193  0.62659  1.0000
  H   H432      1.0  0.05331  0.39551  0.50254  1.0000
  H   H433      1.0  0.34801  0.13089  0.57841  1.0000
  H   H434      1.0  0.28446  0.37677  0.62977  1.0000
  H   H435      1.0  0.08313  0.02753  0.54285  1.0000
  H   H436      1.0  0.13041  0.39990  0.50580  1.0000
  C   C243      1.0  0.12266  0.45251  0.58021  1.0000
  H   H437      1.0  0.16215  0.20276  0.53863  1.0000
  H   H438      1.0  0.27305  0.43096  0.64847  1.0000
  S   S65       1.0  0.27737  0.47619  0.57649  1.0000
  H   H439      1.0  0.10142  0.45386  0.54883  1.0000
  H   H440      1.0  0.16110  0.22228  0.57918  1.0000
  H   H441      1.0  0.07162  0.43111  0.51825  1.0000
  H   H442      1.0  0.36859  0.46284  0.67691  1.0000
  H   H443      1.0  0.25518  0.37964  0.65952  1.0000
  H   H444      1.0  0.31974  0.40246  0.61489  1.0000
  H   H445      1.0  0.36074  0.17154  0.57763  1.0000
  S   S66       1.0  0.37028  0.38458  0.68837  1.0000
  H   H446      1.0  0.06397  0.35394  0.56886  1.0000
  Fe  Fe32      1.0  0.27703  0.00964  0.61307  1.0000
  H   H447      1.0  0.49262  0.41999  0.53034  1.0000
  N   N20       1.0  0.30073  0.14848  0.68837  1.0000
  C   C244      1.0  0.42885  0.34578  0.64111  1.0000
  H   H448      1.0  0.11606  0.46918  0.58753  1.0000
  H   H449      1.0  0.46110  0.23246  0.71644  1.0000
  C   C245      1.0  0.45743  0.41314  0.65193  1.0000
  C   C246      1.0  0.47840  0.06285  0.65454  1.0000
  H   H450      1.0  0.47817  0.42137  0.64059  1.0000
  H   H451      1.0  0.45109  0.37164  0.53253  1.0000
  C   C247      1.0  0.30284  0.40170  0.62774  1.0000
  H   H452      1.0  0.37104  0.17845  0.68653  1.0000
  H   H453      1.0  0.33052  0.41244  0.69422  1.0000
  H   H454      1.0  0.36255  0.46732  0.70601  1.0000
  H   H455      1.0  0.28643  0.19502  0.67231  1.0000
  H   H456      1.0  0.30014  0.10326  0.65836  1.0000
  C   C248      1.0  0.32423  0.13841  0.69471  1.0000
  H   H457      1.0  0.48748  0.27440  0.69590  1.0000
  H   H458      1.0  0.45844  0.18363  0.68223  1.0000
  H   H459      1.0  0.46062  0.43374  0.66171  1.0000
  H   H460      1.0  0.47404  0.04020  0.64724  1.0000
  C   C249      1.0  0.47709  0.43459  0.49266  1.0000
  C   C250      1.0  0.35089  0.46168  0.68916  1.0000
  H   H461      1.0  0.30715  0.42739  0.70507  1.0000
  S   S67       1.0  0.22394  0.00559  0.53983  1.0000
  H   H462      1.0  0.27485  0.18816  0.70178  1.0000
  H   H463      1.0  0.23462  0.08673  0.71546  1.0000
  H   H464      1.0  0.34497  0.48015  0.68522  1.0000
  H   H465      1.0  0.25373  0.42910  0.68836  1.0000
  H   H466      1.0  0.30935  0.22347  0.69317  1.0000
  H   H467      1.0  0.32269  0.00437  0.70018  1.0000
  Fe  Fe33      1.0  0.09585  0.50160  0.47791  1.0000
  Fe  Fe34      1.0  0.28233  0.50102  0.60918  1.0000
  H   H468      1.0  0.50799  0.19575  0.69206  1.0000
  S   S68       1.0  0.05036  0.50238  0.47641  1.0000
  Fe  Fe35      1.0  0.25561  0.00880  0.90681  1.0000
  C   C251      1.0  0.40119  0.33587  0.87619  1.0000
  C   C252      1.0  0.50828  0.23422  0.75360  1.0000
  H   H469      1.0  0.35234  0.30688  0.81308  1.0000
  H   H470      1.0  0.16645  0.48612  0.85029  1.0000
  Fe  Fe36      1.0  0.39348  0.39412  0.72259  1.0000
  N   N21       1.0  0.43087  0.05967  0.83801  1.0000
  C   C253      1.0  0.44199  0.31373  0.75288  1.0000
  H   H471      1.0  0.27662  0.14279  0.72029  1.0000
  S   S69       1.0  0.42648  0.47356  0.94035  1.0000
  H   H472      1.0  0.45458  0.37227  0.85586  1.0000
  C   C254      1.0  0.46512  0.02618  0.73379  1.0000
  Fe  Fe37      1.0  0.38625  0.39536  0.77343  1.0000
  S   S70       1.0  0.43829  0.41646  0.77951  1.0000
  S   S71       1.0  0.34979  0.38117  0.80095  1.0000
  S   S72       1.0  0.38285  0.35828  0.74967  1.0000
  S   S73       1.0  0.39133  0.42896  0.74583  1.0000
  Fe  Fe38      1.0  0.38622  0.12467  0.79059  1.0000
  S   S74       1.0  0.43051  0.16288  0.77426  1.0000
  S   S75       1.0  0.38346  0.12110  0.82858  1.0000
  C   C255      1.0  0.37310  0.30776  0.80471  1.0000
  H   H473      1.0  0.37097  0.30858  0.84912  1.0000
  C   C256      1.0  0.26521  0.10863  0.87612  1.0000
  Fe  Fe39      1.0  0.42498  0.12399  0.75135  1.0000
  C   C257      1.0  0.41147  0.06309  0.95471  1.0000
  Fe  Fe40      1.0  0.39767  0.16878  0.75054  1.0000
  H   H474      1.0  0.44298  0.31960  0.85157  1.0000
  S   S76       1.0  0.38306  0.08570  0.76926  1.0000
  S   S77       1.0  0.35379  0.13353  0.76884  1.0000
  C   C258      1.0  0.38078  0.39778  0.87492  1.0000
  C   C259      1.0  0.39317  0.41146  0.83521  1.0000
  C   C260      1.0  0.41494  0.29938  0.73927  1.0000
  H   H475      1.0  0.27341  0.09254  0.71917  1.0000
  C   C261      1.0  0.41372  0.24923  0.74215  1.0000
  C   C262      1.0  0.44047  0.26342  0.75609  1.0000
  C   C263      1.0  0.45484  0.29566  0.76108  1.0000
  Fe  Fe41      1.0  0.28542  0.04369  0.95003  1.0000
  H   H476      1.0  0.45042  0.24973  0.76263  1.0000
  H   H477      1.0  0.45165  0.11893  0.87765  1.0000
  H   H478      1.0  0.35968  0.49604  0.86766  1.0000
  C   C264      1.0  0.36495  0.06953  0.95438  1.0000
  C   C265      1.0  0.35925  0.46110  0.90379  1.0000
  H   H479      1.0  0.25274  0.04498  0.79696  1.0000
  C   C266      1.0  0.30173  0.03279  0.86006  1.0000
  C   C267      1.0  0.32295  0.05766  0.87366  1.0000
  C   C268      1.0  0.34812  0.08450  0.86384  1.0000
  C   C269      1.0  0.35219  0.08670  0.84034  1.0000
  C   C270      1.0  0.33152  0.06149  0.82673  1.0000
  C   C271      1.0  0.30650  0.03447  0.83661  1.0000
  H   H480      1.0  0.32003  0.05629  0.89179  1.0000
  H   H481      1.0  0.36433  0.10374  0.87449  1.0000
  H   H482      1.0  0.33460  0.06288  0.80859  1.0000
  S   S78       1.0  0.31026  0.06256  0.72910  1.0000
  Fe  Fe42      1.0  0.20976  0.45934  0.94586  1.0000
  C   C272      1.0  0.42633  0.31366  0.83708  1.0000
  C   C273      1.0  0.34980  0.37559  0.86889  1.0000
  C   C274      1.0  0.34046  0.37144  0.84617  1.0000
  C   C275      1.0  0.36221  0.38892  0.82925  1.0000
  C   C276      1.0  0.43661  0.05467  0.73953  1.0000
  C   C277      1.0  0.46316  0.06262  0.83864  1.0000
  Fe  Fe43      1.0  0.43458  0.44623  0.91373  1.0000
  H   H483      1.0  0.31651  0.35400  0.84163  1.0000
  C   C278      1.0  0.42533  0.07046  0.81538  1.0000
  S   S79       1.0  0.47731  0.45030  0.93083  1.0000
  N   N22       1.0  0.31545  0.45346  0.87520  1.0000
  C   C279      1.0  0.32524  0.45461  0.89961  1.0000
  C   C280      1.0  0.28068  0.44324  0.87520  1.0000
  H   H484      1.0  0.16481  0.10563  0.96557  1.0000
  C   C281      1.0  0.32291  0.43154  0.86237  1.0000
  H   H485      1.0  0.26271  0.39202  0.87651  1.0000
  C   C282      1.0  0.25807  0.40985  0.88408  1.0000
  H   H486      1.0  0.41678  0.36076  0.88102  1.0000
  C   C283      1.0  0.30602  0.41888  0.83939  1.0000
  C   C284      1.0  0.40123  0.26744  0.73365  1.0000
  H   H487      1.0  0.30994  0.43196  0.90828  1.0000
  H   H488      1.0  0.27188  0.44466  0.85828  1.0000
  H   H489      1.0  0.08665  0.47200  0.89930  1.0000
  H   H490      1.0  0.42097  0.34234  0.79733  1.0000
  H   H491      1.0  0.37412  0.28638  0.80891  1.0000
  H   H492      1.0  0.34888  0.44292  0.85928  1.0000
  H   H493      1.0  0.31705  0.41059  0.87295  1.0000
  H   H494      1.0  0.45436  0.32651  0.80480  1.0000
  H   H495      1.0  0.38072  0.25677  0.72268  1.0000
  C   C285      1.0  0.16153  0.49907  0.86349  1.0000
  H   H496      1.0  0.23340  0.40334  0.87959  1.0000
  S   S80       1.0  0.24518  0.49033  0.86417  1.0000
  H   H497      1.0  0.40495  0.31299  0.73262  1.0000
  C   C286      1.0  0.47359  0.38255  0.82284  1.0000
  H   H498      1.0  0.41809  0.05163  0.80244  1.0000
  H   H499      1.0  0.37922  0.41729  0.95912  1.0000
  C   C287      1.0  0.49363  0.05462  0.73533  1.0000
  H   H500      1.0  0.29245  0.42960  0.83287  1.0000
  C   C288      1.0  0.44120  0.30666  0.81646  1.0000
  H   H501      1.0  0.39882  0.35774  0.80925  1.0000
  C   C289      1.0  0.08519  0.01284  0.93861  1.0000
  H   H502      1.0  0.47150  0.09431  0.79813  1.0000
  C   C290      1.0  0.13435  0.05594  0.92378  1.0000
  H   H503      1.0  0.49085  0.40730  0.82718  1.0000
  H   H504      1.0  0.28986  0.39312  0.84035  1.0000
  C   C291      1.0  0.47279  0.05455  0.86136  1.0000
  H   H505      1.0  0.32426  0.40798  0.95077  1.0000
  H   H506      1.0  0.47487  0.11822  0.85540  1.0000
  H   H507      1.0  0.42385  0.06543  0.87369  1.0000
  C   C292      1.0  0.44485  0.37082  0.83862  1.0000
  C   C293      1.0  0.46539  0.08322  0.74018  1.0000
  H   H508      1.0  0.35825  0.08944  0.92392  1.0000
  C   C294      1.0  0.41966  0.07599  0.93299  1.0000
  H   H509      1.0  0.24733  0.07740  0.80345  1.0000
  H   H510      1.0  0.41428  0.00432  0.73503  1.0000
  H   H511      1.0  0.32229  0.47246  0.90920  1.0000
  Fe  Fe44      1.0  0.50513  0.49404  0.91049  1.0000
  H   H512      1.0  0.25872  0.40869  0.90278  1.0000
  H   H513      1.0  0.33982  0.02006  0.91885  1.0000
  H   H514      1.0  0.47367  0.07014  0.87514  1.0000
  H   H515      1.0  0.25183  0.09638  0.89150  1.0000
  S   S81       1.0  0.45460  0.08210  0.91948  1.0000
  H   H516      1.0  0.24640  0.02945  0.83796  1.0000
  C   C295      1.0  0.38446  0.06032  0.96549  1.0000
  Fe  Fe45      1.0  0.22207  0.03664  0.93304  1.0000
  H   H517      1.0  0.16669  0.01727  0.85345  1.0000
  H   H518      1.0  0.37959  0.32719  0.88673  1.0000
  H   H519      1.0  0.38651  0.00979  0.91720  1.0000
  H   H520      1.0  0.46494  0.04750  0.82540  1.0000
  H   H521      1.0  0.21211  0.02486  0.82423  1.0000
  H   H522      1.0  0.08921  0.05445  0.92356  1.0000
  H   H523      1.0  0.32853  0.50235  0.87624  1.0000
  C   C296      1.0  0.39166  0.33262  0.85102  1.0000
  H   H524      1.0  0.38234  0.34870  0.84790  1.0000
  H   H525      1.0  0.42658  0.05635  0.96352  1.0000
  H   H526      1.0  0.48257  0.22390  0.75663  1.0000
  H   H527      1.0  0.27657  0.45970  0.88553  1.0000
  C   C297      1.0  0.35840  0.39559  0.96545  1.0000
  H   H528      1.0  0.40848  0.01640  0.85753  1.0000
  H   H529      1.0  0.49703  0.05811  0.85974  1.0000
  H   H530      1.0  0.36409  0.02708  0.85078  1.0000
  H   H531      1.0  0.33303  0.36133  0.88178  1.0000
  C   C298      1.0  0.37280  0.08178  0.93248  1.0000
  H   H532      1.0  0.19517  0.10663  0.85187  1.0000
  N   N23       1.0  0.23121  0.06152  0.84968  1.0000
  C   C299      1.0  0.18186  0.01069  0.86321  1.0000
  C   C300      1.0  0.21450  0.03910  0.86891  1.0000
  C   C301      1.0  0.26371  0.08619  0.85749  1.0000
  C   C302      1.0  0.21285  0.07624  0.84036  1.0000
  H   H533      1.0  0.14948  0.48213  0.87744  1.0000
  H   H534      1.0  0.36095  0.03020  0.89295  1.0000
  C   C303      1.0  0.45045  0.11216  0.85963  1.0000
  H   H535      1.0  0.48606  0.36918  0.82538  1.0000
  C   C304      1.0  0.42598  0.07705  0.85709  1.0000
  H   H536      1.0  0.41139  0.01098  0.82815  1.0000
  H   H537      1.0  0.47594  0.30661  0.77144  1.0000
  S   S82       1.0  0.48001  0.49961  0.75000  1.0000
  H   H538      1.0  0.27726  0.07495  0.86359  1.0000
  H   H539      1.0  0.27773  0.10182  0.84334  1.0000
  H   H540      1.0  0.22883  0.09783  0.83061  1.0000
  H   H541      1.0  0.19477  0.06003  0.82804  1.0000
  C   C305      1.0  0.25525  0.06164  0.81053  1.0000
  H   H542      1.0  0.45718  0.02977  0.86619  1.0000
  C   C306      1.0  0.13441  0.01092  0.93994  1.0000
  H   H543      1.0  0.01771  0.38024  0.96181  1.0000
  H   H544      1.0  0.14697  0.07896  0.91614  1.0000
  H   H545      1.0  0.41451  0.05465  0.74073  1.0000
  H   H546      1.0  0.40534  0.07522  0.81645  1.0000
  H   H547      1.0  0.28088  0.07518  0.81460  1.0000
  H   H548      1.0  0.42300  0.28612  0.80689  1.0000
  Fe  Fe46      1.0  0.47568  0.05123  0.92693  1.0000
  H   H549      1.0  0.46750  0.38253  0.80482  1.0000
  C   C307      1.0  0.32843  0.49129  0.84112  1.0000
  Fe  Fe47      1.0  0.35500  0.09817  0.74583  1.0000
  C   C308      1.0  0.40022  0.08534  0.92197  1.0000
  C   C309      1.0  0.10156  0.04206  0.92790  1.0000
  C   C310      1.0  0.49377  0.08286  0.73847  1.0000
  S   S83       1.0  0.46107  0.35436  0.75912  1.0000
  H   H550      1.0  0.20375  0.08924  0.87505  1.0000
  H   H551      1.0  0.36668  0.02209  0.82069  1.0000
  H   H552      1.0  0.37769  0.48307  0.89600  1.0000
  S   S84       1.0  0.46758  0.12018  0.74151  1.0000
  Fe  Fe48      1.0  0.44328  0.44788  0.75021  1.0000
  S   S85       1.0  0.18944  0.47380  0.91733  1.0000
  H   H553      1.0  0.29027  0.12356  0.88144  1.0000
  C   C311      1.0  0.40385  0.33812  0.81094  1.0000
  H   H554      1.0  0.36903  0.30747  0.78620  1.0000
  H   H555      1.0  0.21110  0.05081  0.88360  1.0000
  S   S86       1.0  0.27108  0.05774  0.91800  1.0000
  N   N24       1.0  0.41716  0.33852  0.83407  1.0000
  C   C312      1.0  0.33001  0.38892  0.95018  1.0000
  H   H556      1.0  0.36412  0.37687  0.96178  1.0000
  C   C313      1.0  0.15102  0.04063  0.93002  1.0000
  Fe  Fe49      1.0  0.43545  0.38172  0.75357  1.0000
  S   S87       1.0  0.44615  0.41545  0.72480  1.0000
  H   H557      1.0  0.40999  0.42529  0.82224  1.0000
  S   S88       1.0  0.23836  0.02826  0.96667  1.0000
  H   H558      1.0  0.36228  0.44140  0.89797  1.0000
  H   H559      1.0  0.42650  0.43288  0.86258  1.0000
  S   S89       1.0  0.19280  0.06035  0.92677  1.0000
  H   H560      1.0  0.29035  0.01517  0.82599  1.0000
  C   C314      1.0  0.34539  0.01013  0.90404  1.0000
  H   H561      1.0  0.16905  0.06660  0.85784  1.0000
  H   H562      1.0  0.41254  0.32194  0.88066  1.0000
  H   H563      1.0  0.40505  0.29083  0.84149  1.0000
  S   S90       1.0  0.39190  0.40078  0.90348  1.0000
  Fe  Fe50      1.0  0.47223  0.48201  0.95524  1.0000
  H   H564      1.0  0.40645  0.09562  0.90528  1.0000
  H   H565      1.0  0.25723  0.12470  0.86970  1.0000
  C   C315      1.0  0.19451  0.08482  0.85758  1.0000
  H   H566      1.0  0.32385  0.42259  0.82627  1.0000
  H   H567      1.0  0.06484  0.47968  0.95664  1.0000
  C   C316      1.0  0.40241  0.41600  0.85809  1.0000
  H   H568      1.0  0.45831  0.29965  0.82255  1.0000
  C   C317      1.0  0.43648  0.02612  0.73635  1.0000
  C   C318      1.0  0.40678  0.02524  0.84057  1.0000
  H   H569      1.0  0.36389  0.46347  0.92226  1.0000
  H   H570      1.0  0.43706  0.38854  0.83806  1.0000
  H   H571      1.0  0.40282  0.07600  0.85529  1.0000
  C   C319      1.0  0.37174  0.01622  0.83772  1.0000
  H   H572      1.0  0.50096  0.18834  0.72129  1.0000
  H   H573      1.0  0.22938  0.02964  0.87559  1.0000
  H   H574      1.0  0.04060  0.42124  0.95671  1.0000
  S   S91       1.0  0.39665  0.20970  0.73328  1.0000
  C   C320      1.0  0.23541  0.04285  0.83116  1.0000
  H   H575      1.0  0.33883  0.48108  0.82968  1.0000
  S   S92       1.0  0.39664  0.13351  0.72606  1.0000
  S   S93       1.0  0.25523  0.47309  0.92797  1.0000
  H   H576      1.0  0.30332  0.48243  0.83681  1.0000
  H   H577      1.0  0.33628  0.38743  0.93237  1.0000
  H   H578      1.0  0.46460  0.11996  0.81623  1.0000
  S   S94       1.0  0.46244  0.48710  0.89092  1.0000
  Fe  Fe51      1.0  0.23770  0.49339  0.90154  1.0000
  C   C321      1.0  0.01639  0.40201  0.96084  1.0000
  H   H579      1.0  0.45973  0.19731  0.72379  1.0000
  H   H580      1.0  0.13375  0.42399  0.95420  1.0000
  H   H581      1.0  0.48231  0.08664  0.83453  1.0000
  C   C322      1.0  0.45346  0.09972  0.80467  1.0000
  S   S95       1.0  0.48674  0.03582  0.95982  1.0000
  H   H582      1.0  0.30872  0.36620  0.95423  1.0000
  C   C323      1.0  0.09876  0.49378  0.90859  1.0000
  H   H583      1.0  0.44351  0.12670  0.84941  1.0000
  H   H584      1.0  0.44495  0.10722  0.78986  1.0000
  H   H585      1.0  0.13918  0.48874  0.91645  1.0000
  Fe  Fe52      1.0  0.49146  0.00912  0.89920  1.0000
  C   C324      1.0  0.33380  0.48646  0.86610  1.0000
  S   S96       1.0  0.44618  0.00281  0.91318  1.0000
  S   S97       1.0  0.04879  0.50168  0.89635  1.0000
  H   H586      1.0  0.42051  0.50223  0.74798  1.0000
  Fe  Fe53      1.0  0.36599  0.95929  0.07753  1.0000
  S   S98       1.0  0.33625  0.91065  0.06414  1.0000
  H   H587      1.0  0.27586  0.82234  0.12421  1.0000
  Fe  Fe54      1.0  0.35811  0.93638  0.12603  1.0000
  S   S99       1.0  0.32831  0.88603  0.11542  1.0000
  S   S100      1.0  0.36877  0.94467  0.16330  1.0000
  Fe  Fe55      1.0  0.36471  0.89892  0.08810  1.0000
  S   S101      1.0  0.39052  0.87377  0.07658  1.0000
  Fe  Fe56      1.0  0.30396  0.90423  0.09302  1.0000
  S   S102      1.0  0.25099  0.87944  0.08731  1.0000
  S   S103      1.0  0.39578  0.94800  0.10008  1.0000
  S   S104      1.0  0.33180  0.95399  0.10496  1.0000
  N   N25       1.0  0.01610  0.51697  0.10054  1.0000
  H   H588      1.0  0.46956  0.97126  0.20550  1.0000
  Fe  Fe57      1.0  0.05945  0.92002  0.10828  1.0000
  S   S105      1.0  0.06460  0.95707  0.08405  1.0000
  H   H589      1.0  0.44381  0.81422  0.20132  1.0000
  Fe  Fe58      1.0  0.13010  0.94114  0.10667  1.0000
  H   H590      1.0  0.01073  0.85008  0.05336  1.0000
  S   S106      1.0  0.17248  0.94167  0.12293  1.0000
  C   C325      1.0  0.41079  0.75107  0.18005  1.0000
  C   C326      1.0  0.17997  0.56508  0.16534  1.0000
  Fe  Fe59      1.0  0.09567  0.94396  0.06476  1.0000
  S   S107      1.0  0.08980  0.94200  0.02704  1.0000
  S   S108      1.0  0.10095  0.95321  0.12967  1.0000
  S   S109      1.0  0.08777  0.90429  0.08765  1.0000
  H   H591      1.0  0.27982  0.93318  0.01066  1.0000
  S   S110      1.0  0.14020  0.97954  0.08186  1.0000
  H   H592      1.0  0.45944  0.93062  0.04032  1.0000
  H   H593      1.0  0.41321  0.73549  0.16773  1.0000
  C   C327      1.0  0.02923  0.53700  0.12138  1.0000
  C   C328      1.0  0.48169  0.89304  0.11305  1.0000
  S   S111      1.0  0.41207  0.51175  0.06447  1.0000
  H   H594      1.0  0.24662  0.88831  0.15432  1.0000
  H   H595      1.0  0.46490  0.52286  0.99170  1.0000
  H   H596      1.0  0.48561  0.94886  0.06359  1.0000
  H   H597      1.0  0.08720  0.55069  0.06992  1.0000
  H   H598      1.0  0.50156  0.92230  0.20183  1.0000
  H   H599      1.0  0.46728  0.91403  0.13867  1.0000
  H   H600      1.0  0.45687  0.98031  0.17236  1.0000
  H   H601      1.0  0.43763  0.83959  0.13410  1.0000
  Fe  Fe60      1.0  0.10845  0.98914  0.10352  1.0000
  H   H602      1.0  0.11698  0.96411  0.98330  1.0000
  C   C329      1.0  0.12001  0.93981  0.01263  1.0000
  C   C330      1.0  0.13548  0.92535  0.02252  1.0000
  C   C331      1.0  0.15985  0.92422  0.01077  1.0000
  C   C332      1.0  0.26531  0.91945  0.02519  1.0000
  H   H603      1.0  0.34648  0.94551  0.97398  1.0000
  C   C333      1.0  0.12919  0.95339  0.99117  1.0000
  H   H604      1.0  0.12825  0.91450  0.03899  1.0000
  H   H605      1.0  0.17104  0.91208  0.01804  1.0000
  H   H606      1.0  0.29854  0.80414  0.13034  1.0000
  H   H607      1.0  0.38948  0.82184  0.11642  1.0000
  H   H608      1.0  0.22008  0.55601  0.12769  1.0000
  C   C334      1.0  0.11117  0.54065  0.12845  1.0000
  H   H609      1.0  0.41386  0.83212  0.15770  1.0000
  H   H610      1.0  0.28066  0.91723  0.03809  1.0000
  H   H611      1.0  0.17694  0.57960  0.01211  1.0000
  H   H612      1.0  0.33450  0.97110  0.98507  1.0000
  H   H613      1.0  0.07749  0.57001  0.09095  1.0000
  H   H614      1.0  0.17013  0.50544  0.19818  1.0000
  H   H615      1.0  0.44619  0.94382  0.06343  1.0000
  C   C335      1.0  0.45399  0.90982  0.19248  1.0000
  N   N26       1.0  0.42910  0.79820  0.15307  1.0000
  H   H616      1.0  0.01371  0.88341  0.06712  1.0000
  H   H617      1.0  0.26356  0.85132  0.20344  1.0000
  H   H618      1.0  0.12695  0.58872  0.11975  1.0000
  C   C336      1.0  0.29597  0.97680  0.05104  1.0000
  H   H619      1.0  0.20655  0.97284  0.04154  1.0000
  H   H620      1.0  0.19654  0.93502  0.05349  1.0000
  H   H621      1.0  0.23474  0.91842  0.05093  1.0000
  C   C337      1.0  0.18698  0.98289  0.21600  1.0000
  C   C338      1.0  0.37314  0.91322  0.17244  1.0000
  C   C339      1.0  0.36796  0.90296  0.19493  1.0000
  C   C340      1.0  0.36633  0.87442  0.20066  1.0000
  C   C341      1.0  0.37004  0.85651  0.18386  1.0000
  C   C342      1.0  0.37721  0.86801  0.16181  1.0000
  C   C343      1.0  0.37893  0.89631  0.15627  1.0000
  H   H622      1.0  0.31261  0.84311  0.15915  1.0000
  N   N27       1.0  0.26357  0.96755  0.04187  1.0000
  H   H623      1.0  0.38010  0.85451  0.14865  1.0000
  H   H624      1.0  0.38349  0.90457  0.13914  1.0000
  C   C344      1.0  0.42670  0.88316  0.08993  1.0000
  C   C345      1.0  0.43529  0.89919  0.11047  1.0000
  H   H625      1.0  0.25741  0.98562  0.18607  1.0000
  H   H626      1.0  0.26144  0.85319  0.13999  1.0000
  H   H627      1.0  0.14755  0.55272  0.98039  1.0000
  C   C346      1.0  0.44658  0.87326  0.08045  1.0000
  H   H628      1.0  0.42068  0.90746  0.11765  1.0000
  C   C347      1.0  0.20235  0.53219  0.12209  1.0000
  H   H629      1.0  0.22613  0.92784  0.02386  1.0000
  H   H630      1.0  0.44024  0.86094  0.06448  1.0000
  C   C348      1.0  0.22924  0.89683  0.09721  1.0000
  C   C349      1.0  0.19859  0.88644  0.08885  1.0000
  C   C350      1.0  0.18100  0.90030  0.09621  1.0000
  C   C351      1.0  0.19374  0.92416  0.11236  1.0000
  C   C352      1.0  0.22417  0.93418  0.12095  1.0000
  C   C353      1.0  0.24198  0.92082  0.11324  1.0000
  H   H631      1.0  0.18852  0.86779  0.07650  1.0000
  H   H632      1.0  0.15747  0.89225  0.08962  1.0000
  H   H633      1.0  0.23415  0.95253  0.13349  1.0000
  H   H634      1.0  0.26539  0.92883  0.11995  1.0000
  C   C354      1.0  0.24231  0.99442  0.17878  1.0000
  H   H635      1.0  0.44161  0.81041  0.10429  1.0000
  H   H636      1.0  0.24389  0.54150  0.19600  1.0000
  C   C355      1.0  0.41351  0.96113  0.98902  1.0000
  C   C356      1.0  0.40438  0.94347  0.00889  1.0000
  C   C357      1.0  0.39744  0.95518  0.02826  1.0000
  C   C358      1.0  0.13176  0.54943  0.99493  1.0000
  C   C359      1.0  0.45487  0.80166  0.11428  1.0000
  H   H637      1.0  0.40394  0.92131  0.00965  1.0000
  H   H638      1.0  0.39298  0.94246  0.04389  1.0000
  C   C360      1.0  0.27903  0.84422  0.19456  1.0000
  C   C361      1.0  0.40341  0.77460  0.16821  1.0000
  C   C362      1.0  0.49019  0.92939  0.18856  1.0000
  H   H639      1.0  0.11516  0.90709  0.18672  1.0000
  H   H640      1.0  0.17736  0.56664  0.14683  1.0000
  C   C363      1.0  0.24558  0.97257  0.06059  1.0000
  C   C364      1.0  0.46731  0.94971  0.05299  1.0000
  H   H641      1.0  0.29372  0.96210  0.06606  1.0000
  N   N28       1.0  0.26642  0.83200  0.17116  1.0000
  H   H642      1.0  0.18933  0.53552  0.10791  1.0000
  H   H643      1.0  0.02498  0.89225  0.02609  1.0000
  N   N29       1.0  0.18515  0.98018  0.19059  1.0000
  C   C365      1.0  0.23329  0.80440  0.17330  1.0000
  H   H644      1.0  0.05229  0.51659  0.03136  1.0000
  H   H645      1.0  0.22349  0.80581  0.13605  1.0000
  H   H646      1.0  0.22583  0.56864  0.16351  1.0000
  H   H647      1.0  0.43929  0.53886  0.02103  1.0000
  H   H648      1.0  0.47779  0.82176  0.11978  1.0000
  H   H649      1.0  0.19320  0.80276  0.15492  1.0000
  C   C366      1.0  0.27908  0.80751  0.13677  1.0000
  H   H650      1.0  0.29289  0.87892  0.15735  1.0000
  H   H651      1.0  0.25763  0.78394  0.13752  1.0000
  H   H652      1.0  0.37237  0.52741  0.97615  1.0000
  C   C367      1.0  0.09703  0.51758  0.14518  1.0000
  H   H653      1.0  0.11497  0.55599  0.98753  1.0000
  H   H654      1.0  0.48907  0.87029  0.08460  1.0000
  H   H655      1.0  0.46459  0.97735  0.14352  1.0000
  H   H656      1.0  0.01418  0.93344  0.97660  1.0000
  C   C368      1.0  0.26801  0.85903  0.15798  1.0000
  C   C369      1.0  0.24773  0.87247  0.16723  1.0000
  C   C370      1.0  0.47992  0.98133  0.04047  1.0000
  C   C371      1.0  0.21021  0.96072  0.05603  1.0000
  C   C372      1.0  0.45634  0.50951  0.00719  1.0000
  H   H657      1.0  0.07583  0.95968  0.17612  1.0000
  H   H658      1.0  0.19867  0.95771  0.16526  1.0000
  C   C373      1.0  0.21148  0.79595  0.15229  1.0000
  H   H659      1.0  0.36353  0.91609  0.20759  1.0000
  C   C374      1.0  0.17002  0.93914  0.98979  1.0000
  C   C375      1.0  0.26487  0.98736  0.02199  1.0000
  C   C376      1.0  0.38810  0.80470  0.12927  1.0000
  C   C377      1.0  0.47865  0.52072  0.12132  1.0000
  S   S112      1.0  0.20245  0.94027  0.97614  1.0000
  H   H660      1.0  0.15642  0.55078  0.17321  1.0000
  H   H661      1.0  0.44211  0.92331  0.19621  1.0000
  H   H662      1.0  0.50576  0.96551  0.15138  1.0000
  H   H663      1.0  0.20613  0.95065  0.19315  1.0000
  H   H664      1.0  0.06316  0.52751  0.00278  1.0000
  H   H665      1.0  0.24683  0.96102  0.07644  1.0000
  C   C378      1.0  0.43516  0.78115  0.13435  1.0000
  H   H666      1.0  0.43222  0.76279  0.19081  1.0000
  H   H667      1.0  0.46056  0.97916  0.02939  1.0000
  C   C379      1.0  0.15194  0.57410  0.01292  1.0000
  H   H668      1.0  0.02472  0.91814  0.16501  1.0000
  H   H669      1.0  0.19007  0.58918  0.17220  1.0000
  H   H670      1.0  0.02783  0.93801  0.04086  1.0000
  C   C380      1.0  0.24595  0.93314  0.03571  1.0000
  H   H671      1.0  0.49248  0.97187  0.97689  1.0000
  H   H672      1.0  0.48140  0.84733  0.19507  1.0000
  H   H673      1.0  0.01577  0.96488  0.20955  1.0000
  H   H674      1.0  0.05118  0.97676  0.17585  1.0000
  C   C381      1.0  0.45719  0.83217  0.18826  1.0000
  H   H675      1.0  0.27443  0.55193  0.01908  1.0000
  H   H676      1.0  0.49842  0.98330  0.02871  1.0000
  C   C382      1.0  0.28949  0.54125  0.02194  1.0000
  S   S113      1.0  0.08323  0.56417  0.19628  1.0000
  H   H677      1.0  0.36690  0.79756  0.13999  1.0000
  H   H678      1.0  0.47108  0.80335  0.16996  1.0000
  H   H679      1.0  0.22310  0.85408  0.17095  1.0000
  H   H680      1.0  0.44798  0.94297  0.16013  1.0000
  C   C383      1.0  0.15146  0.95616  0.18442  1.0000
  H   H681      1.0  0.50385  0.54105  0.06922  1.0000
  H   H682      1.0  0.15109  0.59593  0.00996  1.0000
  H   H683      1.0  0.45402  0.50874  0.12789  1.0000
  C   C384      1.0  0.41853  0.81997  0.14379  1.0000
  C   C385      1.0  0.08895  0.52485  0.16617  1.0000
  H   H684      1.0  0.49514  0.92075  0.17261  1.0000
  H   H685      1.0  0.38465  0.78408  0.11961  1.0000
  H   H686      1.0  0.13270  0.92341  0.21326  1.0000
  S   S114      1.0  0.12290  0.53272  0.10229  1.0000
  H   H687      1.0  0.47713  0.83709  0.15529  1.0000
  H   H688      1.0  0.20665  0.55577  0.18964  1.0000
  C   C386      1.0  0.06712  0.55191  0.07761  1.0000
  C   C387      1.0  0.10703  0.57770  0.15328  1.0000
  H   H689      1.0  0.23755  0.52834  0.15519  1.0000
  H   H690      1.0  0.25862  0.88691  0.18253  1.0000
  H   H691      1.0  0.19821  0.77007  0.15016  1.0000
  H   H692      1.0  0.46027  0.78729  0.10267  1.0000
  H   H693      1.0  0.44656  0.84719  0.18594  1.0000
  H   H694      1.0  0.24078  0.97863  0.01489  1.0000
  H   H695      1.0  0.24833  0.99829  0.16053  1.0000
  C   C388      1.0  0.02653  0.92559  0.18294  1.0000
  S   S115      1.0  0.36338  0.81865  0.18897  1.0000
  H   H696      1.0  0.31107  0.55369  0.01129  1.0000
  H   H697      1.0  0.41267  0.76171  0.12743  1.0000
  C   C389      1.0  0.20702  0.96923  0.18193  1.0000
  H   H698      1.0  0.39072  0.73582  0.19137  1.0000
  C   C390      1.0  0.46212  0.90337  0.12223  1.0000
  C   C391      1.0  0.47430  0.87865  0.09179  1.0000
  H   H699      1.0  0.38110  0.76044  0.15853  1.0000
  H   H700      1.0  0.30271  0.86581  0.19354  1.0000
  H   H701      1.0  0.02879  0.57651  0.08194  1.0000
  H   H702      1.0  0.44790  0.76932  0.14095  1.0000
  H   H703      1.0  0.30744  0.93976  0.96735  1.0000
  C   C392      1.0  0.05521  0.95914  0.18444  1.0000
  H   H704      1.0  0.49432  0.52341  0.13575  1.0000
  H   H705      1.0  0.13488  0.96465  0.18905  1.0000
  H   H706      1.0  0.05657  0.55912  0.06391  1.0000
  C   C393      1.0  0.49919  0.97571  0.16569  1.0000
  H   H707      1.0  0.44223  0.89528  0.17735  1.0000
  H   H708      1.0  0.29676  0.54556  0.03987  1.0000
  H   H709      1.0  0.22056  0.80850  0.18730  1.0000
  H   H710      1.0  0.03373  0.91069  0.19255  1.0000
  H   H711      1.0  0.24877  0.89536  0.01905  1.0000
  H   H712      1.0  0.23414  0.78300  0.17826  1.0000
  H   H713      1.0  0.15384  0.91347  0.19254  1.0000
  H   H714      1.0  0.18045  0.53547  0.99081  1.0000
  C   C394      1.0  0.45961  0.81741  0.16591  1.0000
  H   H715      1.0  0.14896  0.95228  0.16585  1.0000
  C   C395      1.0  0.13805  0.92331  0.19504  1.0000
  C   C396      1.0  0.09397  0.55495  0.17028  1.0000
  H   H716      1.0  0.39711  0.78645  0.18148  1.0000
  C   C397      1.0  0.28526  0.98881  0.00175  1.0000
  C   C398      1.0  0.15471  0.95380  0.98004  1.0000
  C   C399      1.0  0.28833  0.82250  0.16039  1.0000
  H   H717      1.0  0.04284  0.56232  0.11718  1.0000
  H   H718      1.0  0.06232  0.96620  0.20226  1.0000
  C   C400      1.0  0.20236  0.55247  0.17111  1.0000
  C   C401      1.0  0.11608  0.57073  0.13257  1.0000
  H   H719      1.0  0.11087  0.60099  0.15634  1.0000
  H   H720      1.0  0.14304  0.56636  0.03032  1.0000
  H   H721      1.0  0.48356  0.54400  0.11518  1.0000
  C   C402      1.0  0.44193  0.51857  0.02377  1.0000
  H   H722      1.0  0.07867  0.50712  0.17914  1.0000
  H   H723      1.0  0.29050  0.80493  0.17085  1.0000
  H   H724      1.0  0.08806  0.55218  0.02508  1.0000
  H   H725      1.0  0.03109  0.91532  0.99308  1.0000
  C   C403      1.0  0.39800  0.98382  0.02758  1.0000
  H   H726      1.0  0.04661  0.53204  0.12992  1.0000
  C   C404      1.0  0.46511  0.96837  0.16067  1.0000
  H   H727      1.0  0.48823  0.94607  0.99904  1.0000
  C   C405      1.0  0.04317  0.51927  0.08680  1.0000
  H   H728      1.0  0.49434  0.90943  0.01396  1.0000
  H   H729      1.0  0.46838  0.98956  0.08671  1.0000
  H   H730      1.0  0.49661  0.93876  0.97048  1.0000
  H   H731      1.0  0.32857  0.51963  0.03136  1.0000
  N   N30       1.0  0.50513  0.96460  0.18800  1.0000
  C   C406      1.0  0.07280  0.52752  0.01967  1.0000
  C   C407      1.0  0.49450  0.97717  0.20724  1.0000
  C   C408      1.0  0.09082  0.50918  0.02101  1.0000
  H   H732      1.0  0.30828  0.99150  0.00672  1.0000
  H   H733      1.0  0.31035  0.97211  0.03889  1.0000
  H   H734      1.0  0.44336  0.99038  0.06515  1.0000
  C   C409      1.0  0.41461  0.99006  0.98832  1.0000
  C   C410      1.0  0.13919  0.50843  0.01324  1.0000
  H   H735      1.0  0.27217  0.96822  0.99051  1.0000
  H   H736      1.0  0.03098  0.94990  0.00334  1.0000
  H   H737      1.0  0.16599  0.99746  0.14773  1.0000
  H   H738      1.0  0.19987  0.96567  0.07109  1.0000
  H   H739      1.0  0.01529  0.55279  0.15133  1.0000
  H   H740      1.0  0.44881  0.89342  0.20687  1.0000
  H   H741      1.0  0.26015  0.79835  0.21209  1.0000
  S   S116      1.0  0.38840  0.99791  0.05183  1.0000
  C   C411      1.0  0.21779  0.51247  0.16656  1.0000
  H   H742      1.0  0.05656  0.51065  0.09692  1.0000
  C   C412      1.0  0.50171  0.95689  0.98345  1.0000
  H   H743      1.0  0.15083  0.52321  0.02834  1.0000
  N   N31       1.0  0.11538  0.51596  0.00295  1.0000
  H   H744      1.0  0.10151  0.51401  0.03826  1.0000
  N   N32       1.0  0.19076  0.51883  0.16464  1.0000
  H   H745      1.0  0.15671  0.51375  0.13869  1.0000
  H   H746      1.0  0.21492  0.52025  0.11558  1.0000
  C   C413      1.0  0.16580  0.51142  0.99757  1.0000
  C   C414      1.0  0.17858  0.51224  0.14071  1.0000
  C   C415      1.0  0.23228  0.51671  0.19041  1.0000
  C   C416      1.0  0.33279  0.95726  0.96983  1.0000
  C   C417      1.0  0.27064  0.50611  0.01572  1.0000
  H   H747      1.0  0.25623  0.99787  0.06467  1.0000
  H   H748      1.0  0.29313  0.50752  0.06173  1.0000
  C   C418      1.0  0.40666  0.00131  0.00755  1.0000
  C   C419      1.0  0.28220  0.82134  0.21085  1.0000
  H   H749      1.0  0.30228  0.81793  0.20626  1.0000
  C   C420      1.0  0.01717  0.92741  0.99421  1.0000
  H   H750      1.0  0.50673  0.91246  0.04274  1.0000
  S   S117      1.0  0.01234  0.88445  0.12327  1.0000
  H   H751      1.0  0.01286  0.97462  0.04768  1.0000
  H   H752      1.0  0.18182  0.50596  0.00746  1.0000
  H   H753      1.0  0.24207  0.50617  0.05579  1.0000
  H   H754      1.0  0.03443  0.50384  0.07170  1.0000
  H   H755      1.0  0.27504  0.50513  0.99747  1.0000
  H   H756      1.0  0.25085  0.50998  0.19001  1.0000
  H   H757      1.0  0.00978  0.96689  0.15138  1.0000
  H   H758      1.0  0.15684  0.00199  0.02781  1.0000
  H   H759      1.0  0.47431  0.96627  0.36195  1.0000
  Fe  Fe61      1.0  0.10037  0.54814  0.22606  1.0000
  H   H760      1.0  0.20039  0.63946  0.29989  1.0000
  S   S118      1.0  0.14020  0.57983  0.24929  1.0000
  C   C421      1.0  0.49548  0.89982  0.28658  1.0000
  N   N33       1.0  0.37753  0.82669  0.35511  1.0000
  C   C422      1.0  0.25119  0.62806  0.35233  1.0000
  H   H761      1.0  0.37703  0.86818  0.38913  1.0000
  H   H762      1.0  0.21212  0.52491  0.29607  1.0000
  S   S119      1.0  0.10768  0.96611  0.23673  1.0000
  C   C423      1.0  0.19535  0.71098  0.39505  1.0000
  H   H763      1.0  0.30853  0.62941  0.33105  1.0000
  H   H764      1.0  0.12772  0.67751  0.37123  1.0000
  H   H765      1.0  0.14617  0.61498  0.35551  1.0000
  H   H766      1.0  0.33519  0.84726  0.39264  1.0000
  C   C424      1.0  0.24092  0.62744  0.24325  1.0000
  H   H767      1.0  0.36029  0.86287  0.31048  1.0000
  H   H768      1.0  0.49160  0.90263  0.30418  1.0000
  C   C425      1.0  0.07152  0.94037  0.25033  1.0000
  H   H769      1.0  0.40130  0.85203  0.32472  1.0000
  C   C426      1.0  0.49978  0.97581  0.32057  1.0000
  N   N34       1.0  0.24599  0.60394  0.31233  1.0000
  C   C427      1.0  0.13979  0.52282  0.35240  1.0000
  Fe  Fe62      1.0  0.32304  0.78700  0.26920  1.0000
  S   S120      1.0  0.35359  0.76980  0.28458  1.0000
  S   S121      1.0  0.28510  0.78726  0.29032  1.0000
  H   H770      1.0  0.21803  0.62579  0.24438  1.0000
  H   H771      1.0  0.18679  0.63896  0.34895  1.0000
  Fe  Fe63      1.0  0.34580  0.74465  0.25147  1.0000
  S   S122      1.0  0.33541  0.69438  0.24886  1.0000
  Fe  Fe64      1.0  0.39416  0.81193  0.26817  1.0000
  S   S123      1.0  0.43732  0.84604  0.28862  1.0000
  S   S124      1.0  0.31309  0.75967  0.23708  1.0000
  S   S125      1.0  0.36393  0.83106  0.25547  1.0000
  H   H772      1.0  0.26762  0.67800  0.24812  1.0000
  H   H773      1.0  0.47862  0.97860  0.32231  1.0000
  S   S126      1.0  0.12134  0.53988  0.45254  1.0000
  Fe  Fe65      1.0  0.29035  0.73334  0.40854  1.0000
  S   S127      1.0  0.27424  0.76769  0.41635  1.0000
  S   S128      1.0  0.28396  0.70951  0.37493  1.0000
  H   H774      1.0  0.41564  0.86196  0.37538  1.0000
  Fe  Fe66      1.0  0.07530  0.53870  0.44922  1.0000
  Fe  Fe67      1.0  0.24933  0.73556  0.44561  1.0000
  S   S129      1.0  0.49280  0.93456  0.42100  1.0000
  C   C428      1.0  0.47221  0.87386  0.27457  1.0000
  S   S130      1.0  0.26289  0.70008  0.43639  1.0000
  C   C429      1.0  0.27908  0.76254  0.31336  1.0000
  C   C430      1.0  0.27276  0.77004  0.33477  1.0000
  C   C431      1.0  0.27324  0.75322  0.35380  1.0000
  C   C432      1.0  0.27997  0.72894  0.35139  1.0000
  C   C433      1.0  0.28445  0.72037  0.32982  1.0000
  C   C434      1.0  0.28380  0.73699  0.31082  1.0000
  H   H775      1.0  0.26885  0.78965  0.33675  1.0000
  H   H776      1.0  0.26902  0.75955  0.37026  1.0000
  H   H777      1.0  0.28976  0.70173  0.32782  1.0000
  H   H778      1.0  0.28771  0.73050  0.29420  1.0000
  C   C435      1.0  0.30705  0.63050  0.31241  1.0000
  H   H779      1.0  0.50798  0.87159  0.46588  1.0000
  C   C436      1.0  0.13447  0.53621  0.33312  1.0000
  C   C437      1.0  0.05196  0.91025  0.24141  1.0000
  C   C438      1.0  0.27253  0.60274  0.23841  1.0000
  H   H780      1.0  0.14420  0.53499  0.31713  1.0000
  C   C439      1.0  0.10441  0.55294  0.35566  1.0000
  C   C440      1.0  0.43559  0.92027  0.44080  1.0000
  H   H781      1.0  0.10105  0.54199  0.39107  1.0000
  C   C441      1.0  0.02327  0.88907  0.25208  1.0000
  C   C442      1.0  0.45318  0.90920  0.42954  1.0000
  C   C443      1.0  0.27720  0.63117  0.30476  1.0000
  C   C444      1.0  0.17011  0.65630  0.45216  1.0000
  C   C445      1.0  0.49404  0.96124  0.36064  1.0000
  C   C446      1.0  0.40620  0.85680  0.42843  1.0000
  C   C447      1.0  0.43840  0.87735  0.42354  1.0000
  C   C448      1.0  0.38826  0.86815  0.43886  1.0000
  C   C449      1.0  0.11611  0.55063  0.33461  1.0000
  H   H782      1.0  0.39503  0.83238  0.42371  1.0000
  H   H783      1.0  0.45189  0.86856  0.41492  1.0000
  H   H784      1.0  0.43143  0.81711  0.34951  1.0000
  H   H785      1.0  0.07711  0.97223  0.27711  1.0000
  C   C450      1.0  0.26902  0.65705  0.24530  1.0000
  C   C451      1.0  0.29887  0.65923  0.24421  1.0000
  C   C452      1.0  0.30021  0.63187  0.24064  1.0000
  C   C453      1.0  0.24271  0.60008  0.23997  1.0000
  H   H786      1.0  0.10083  0.63619  0.36607  1.0000
  Fe  Fe68      1.0  0.31772  0.79124  0.43844  1.0000
  H   H787      1.0  0.01157  0.88613  0.45268  1.0000
  H   H788      1.0  0.23074  0.65238  0.32086  1.0000
  H   H789      1.0  0.13347  0.69942  0.45413  1.0000
  H   H790      1.0  0.21131  0.70805  0.40686  1.0000
  H   H791      1.0  0.46363  0.91379  0.37253  1.0000
  Fe  Fe69      1.0  0.09309  0.99806  0.42817  1.0000
  C   C454      1.0  0.47771  0.86992  0.25196  1.0000
  H   H792      1.0  0.35126  0.86728  0.36671  1.0000
  H   H793      1.0  0.22000  0.58080  0.34267  1.0000
  C   C455      1.0  0.16677  0.68294  0.45336  1.0000
  S   S131      1.0  0.07726  0.58555  0.44809  1.0000
  H   H794      1.0  0.21363  0.60022  0.28568  1.0000
  H   H795      1.0  0.19667  0.59208  0.31306  1.0000
  C   C456      1.0  0.15726  0.65398  0.33373  1.0000
  C   C457      1.0  0.14302  0.62606  0.45052  1.0000
  H   H796      1.0  0.24049  0.65625  0.29115  1.0000
  H   H797      1.0  0.34743  0.82219  0.31116  1.0000
  C   C458      1.0  0.35442  0.85339  0.38016  1.0000
  H   H798      1.0  0.32823  0.65255  0.30676  1.0000
  Fe  Fe70      1.0  0.35748  0.80194  0.22483  1.0000
  H   H799      1.0  0.21543  0.65826  0.38374  1.0000
  C   C459      1.0  0.43609  0.84026  0.35564  1.0000
  H   H800      1.0  0.38423  0.79811  0.33032  1.0000
  H   H801      1.0  0.30874  0.61106  0.30443  1.0000
  H   H802      1.0  0.40347  0.82307  0.38362  1.0000
  S   S132      1.0  0.06383  0.95247  0.44650  1.0000
  C   C460      1.0  0.36775  0.79552  0.34424  1.0000
  H   H803      1.0  0.14382  0.65252  0.40694  1.0000
  H   H804      1.0  0.35572  0.74736  0.35055  1.0000
  H   H805      1.0  0.46248  0.91716  0.34256  1.0000
  H   H806      1.0  0.20759  0.73619  0.39035  1.0000
  H   H807      1.0  0.19635  0.60950  0.40445  1.0000
  H   H808      1.0  0.10123  0.65449  0.39252  1.0000
  H   H809      1.0  0.34795  0.76481  0.37414  1.0000
  H   H810      1.0  0.26089  0.56926  0.30898  1.0000
  H   H811      1.0  0.27787  0.63270  0.28604  1.0000
  H   H812      1.0  0.38806  0.77480  0.36745  1.0000
  C   C461      1.0  0.18885  0.69125  0.37345  1.0000
  Fe  Fe71      1.0  0.15745  0.54603  0.24425  1.0000
  C   C462      1.0  0.36493  0.76951  0.36027  1.0000
  H   H813      1.0  0.45664  0.84918  0.36732  1.0000
  H   H814      1.0  0.17325  0.70584  0.40387  1.0000
  C   C463      1.0  0.24412  0.59950  0.33763  1.0000
  C   C464      1.0  0.35408  0.84284  0.32205  1.0000
  H   H815      1.0  0.09048  0.56439  0.35699  1.0000
  C   C465      1.0  0.40761  0.83818  0.36853  1.0000
  C   C466      1.0  0.11635  0.65382  0.37876  1.0000
  H   H816      1.0  0.17562  0.59980  0.37821  1.0000
  C   C467      1.0  0.24319  0.57477  0.30174  1.0000
  H   H817      1.0  0.12655  0.61897  0.39019  1.0000
  Fe  Fe72      1.0  0.11048  0.54642  0.27669  1.0000
  C   C468      1.0  0.21077  0.54456  0.30411  1.0000
  H   H818      1.0  0.13726  0.65793  0.33693  1.0000
  N   N35       1.0  0.17074  0.65617  0.37669  1.0000
  C   C469      1.0  0.35167  0.82284  0.37099  1.0000
  S   S133      1.0  0.20926  0.56159  0.23867  1.0000
  H   H819      1.0  0.25955  0.59029  0.34365  1.0000
  H   H820      1.0  0.39280  0.87415  0.34390  1.0000
  H   H821      1.0  0.14580  0.60574  0.44957  1.0000
  H   H822      1.0  0.44346  0.85669  0.34115  1.0000
  C   C470      1.0  0.22328  0.64098  0.30419  1.0000
  H   H823      1.0  0.18083  0.96012  0.22400  1.0000
  H   H824      1.0  0.46014  0.84982  0.24265  1.0000
  H   H825      1.0  0.22954  0.62952  0.35502  1.0000
  H   H826      1.0  0.28756  0.83162  0.22810  1.0000
  H   H827      1.0  0.49589  0.91745  0.35630  1.0000
  C   C471      1.0  0.16536  0.63979  0.35417  1.0000
  H   H828      1.0  0.19439  0.65772  0.40825  1.0000
  H   H829      1.0  0.28046  0.65402  0.31030  1.0000
  H   H830      1.0  0.32803  0.80928  0.36291  1.0000
  C   C472      1.0  0.12679  0.52385  0.37324  1.0000
  H   H831      1.0  0.33326  0.83903  0.33198  1.0000
  H   H832      1.0  0.27018  0.65060  0.34568  1.0000
  H   H833      1.0  0.34419  0.78597  0.33601  1.0000
  H   H834      1.0  0.35055  0.80882  0.38609  1.0000
  C   C473      1.0  0.10958  0.64920  0.45127  1.0000
  C   C474      1.0  0.13988  0.64500  0.38897  1.0000
  H   H835      1.0  0.15635  0.60078  0.40411  1.0000
  S   S134      1.0  0.12951  0.51362  0.27282  1.0000
  S   S135      1.0  0.10675  0.56533  0.31055  1.0000
  H   H836      1.0  0.17824  0.67618  0.32811  1.0000
  H   H837      1.0  0.24841  0.57836  0.28330  1.0000
  H   H838      1.0  0.01900  0.85584  0.46140  1.0000
  C   C475      1.0  0.06217  0.94918  0.27000  1.0000
  C   C476      1.0  0.38308  0.85019  0.33678  1.0000
  C   C477      1.0  0.11256  0.62246  0.45002  1.0000
  H   H839      1.0  0.17675  0.69936  0.36168  1.0000
  H   H840      1.0  0.15022  0.63739  0.31930  1.0000
  C   C478      1.0  0.17874  0.61237  0.39436  1.0000
  S   S136      1.0  0.34688  0.84420  0.44296  1.0000
  H   H841      1.0  0.21210  0.69856  0.36531  1.0000
  C   C479      1.0  0.19114  0.64777  0.39097  1.0000
  S   S137      1.0  0.39010  0.78505  0.23651  1.0000
  C   C480      1.0  0.21889  0.60772  0.30369  1.0000
  H   H842      1.0  0.26012  0.62573  0.36909  1.0000
  S   S138      1.0  0.19926  0.72158  0.45562  1.0000
  H   H843      1.0  0.20390  0.53795  0.32197  1.0000
  Fe  Fe73      1.0  0.30621  0.72919  0.45737  1.0000
  H   H844      1.0  0.19197  0.54648  0.29502  1.0000
  H   H845      1.0  0.19347  0.65895  0.45270  1.0000
  C   C481      1.0  0.03387  0.92777  0.28093  1.0000
  S   S139      1.0  0.33585  0.75909  0.42847  1.0000
  H   H846      1.0  0.32297  0.63314  0.23984  1.0000
  H   H847      1.0  0.38950  0.90887  0.45326  1.0000
  C   C482      1.0  0.11001  0.53987  0.37495  1.0000
  H   H848      1.0  0.02730  0.93450  0.29649  1.0000
  H   H849      1.0  0.50539  0.96701  0.37764  1.0000
  C   C483      1.0  0.13637  0.67908  0.45310  1.0000
  C   C484      1.0  0.01427  0.89768  0.27203  1.0000
  Fe  Fe74      1.0  0.02318  0.96155  0.44237  1.0000
  C   C485      1.0  0.50660  0.89126  0.24168  1.0000
  H   H850      1.0  0.44658  0.94477  0.44534  1.0000
  H   H851      1.0  0.27435  0.58196  0.23589  1.0000
  C   C486      1.0  0.40321  0.89988  0.44522  1.0000
  H   H852      1.0  0.48767  0.97569  0.24365  1.0000
  H   H853      1.0  0.48957  0.95100  0.31516  1.0000
  C   C487      1.0  0.47842  0.92547  0.35744  1.0000
  H   H854      1.0  0.08630  0.64680  0.45096  1.0000
  S   S140      1.0  0.06833  0.51858  0.25408  1.0000
  C   C488      1.0  0.49744  0.96607  0.23111  1.0000
  H   H855      1.0  0.15314  0.51078  0.35104  1.0000
  H   H856      1.0  0.36073  0.86571  0.21774  1.0000
  H   H857      1.0  0.23695  0.99918  0.22404  1.0000
  H   H858      1.0  0.01145  0.93307  0.22574  1.0000
  H   H859      1.0  0.05929  0.90309  0.22642  1.0000
  H   H860      1.0  0.02173  0.51689  0.22128  1.0000
  H   H861      1.0  0.16924  0.98877  0.22233  1.0000
  H   H862      1.0  0.48379  0.94020  0.23281  1.0000
  H   H863      1.0  0.50447  0.99952  0.28836  1.0000
  S   S141      1.0  0.11980  0.51664  0.21894  1.0000
  H   H864      1.0  0.00877  0.86567  0.24542  1.0000
  S   S142      1.0  0.12963  0.50302  0.39644  1.0000
  H   H865      1.0  0.45199  0.57126  0.69894  1.0000
  H   H866      1.0  0.44358  0.82137  0.70395  1.0000
  H   H867      1.0  0.19246  0.75942  0.58349  1.0000
  H   H868      1.0  0.47190  0.95681  0.48858  1.0000
  N   N36       1.0  0.29807  0.63737  0.68220  1.0000
  C   C489      1.0  0.25289  0.78021  0.69796  1.0000
  S   S143      1.0  0.03359  0.98839  0.47496  1.0000
  Fe  Fe75      1.0  0.22864  0.69917  0.59091  1.0000
  S   S144      1.0  0.18877  0.68290  0.61556  1.0000
  S   S145      1.0  0.21274  0.68526  0.55529  1.0000
  Fe  Fe76      1.0  0.27836  0.73216  0.62665  1.0000
  S   S146      1.0  0.24203  0.71784  0.65383  1.0000
  S   S147      1.0  0.32799  0.76141  0.63929  1.0000
  Fe  Fe77      1.0  0.21914  0.67066  0.63697  1.0000
  S   S148      1.0  0.20188  0.62673  0.65809  1.0000
  Fe  Fe78      1.0  0.21640  0.73206  0.62922  1.0000
  S   S149      1.0  0.19391  0.76095  0.63970  1.0000
  S   S150      1.0  0.25745  0.68406  0.61143  1.0000
  S   S151      1.0  0.25420  0.74898  0.60287  1.0000
  H   H869      1.0  0.06248  0.55508  0.52884  1.0000
  H   H870      1.0  0.27115  0.80750  0.50953  1.0000
  S   S152      1.0  0.24073  0.89896  0.60180  1.0000
  C   C490      1.0  0.30693  0.94174  0.63807  1.0000
  H   H871      1.0  0.16953  0.71975  0.49987  1.0000
  C   C491      1.0  0.12334  0.98029  0.52000  1.0000
  C   C492      1.0  0.18532  0.99656  0.53255  1.0000
  H   H872      1.0  0.15472  0.56995  0.49751  1.0000
  H   H873      1.0  0.48883  0.91272  0.53603  1.0000
  H   H874      1.0  0.38198  0.94581  0.68738  1.0000
  H   H875      1.0  0.25071  0.60829  0.49229  1.0000
  H   H876      1.0  0.41550  0.83254  0.69640  1.0000
  H   H877      1.0  0.19501  0.59949  0.50102  1.0000
  H   H878      1.0  0.17705  0.73039  0.56143  1.0000
  S   S153      1.0  0.32903  0.86807  0.69903  1.0000
  C   C493      1.0  0.17912  0.74191  0.50958  1.0000
  H   H879      1.0  0.21551  0.73311  0.52148  1.0000
  H   H880      1.0  0.32291  0.60553  0.57534  1.0000
  H   H881      1.0  0.36801  0.55157  0.66748  1.0000
  H   H882      1.0  0.15161  0.66202  0.50503  1.0000
  C   C494      1.0  0.49889  0.58090  0.68652  1.0000
  H   H883      1.0  0.21537  0.58461  0.57259  1.0000
  H   H884      1.0  0.22551  0.60838  0.54790  1.0000
  H   H885      1.0  0.24201  0.89801  0.68636  1.0000
  C   C495      1.0  0.28399  0.53572  0.68258  1.0000
  H   H886      1.0  0.16194  0.50871  0.48222  1.0000
  C   C496      1.0  0.29139  0.63378  0.65715  1.0000
  C   C497      1.0  0.34462  0.54731  0.67165  1.0000
  Fe  Fe79      1.0  0.22897  0.99002  0.57478  1.0000
  H   H887      1.0  0.35086  0.96216  0.61800  1.0000
  C   C498      1.0  0.28074  0.67882  0.68573  1.0000
  C   C499      1.0  0.19667  0.59032  0.64851  1.0000
  C   C500      1.0  0.20970  0.58686  0.62831  1.0000
  C   C501      1.0  0.20535  0.55714  0.62216  1.0000
  C   C502      1.0  0.18733  0.53077  0.63594  1.0000
  C   C503      1.0  0.17426  0.53451  0.65587  1.0000
  C   C504      1.0  0.17930  0.56404  0.66226  1.0000
  H   H888      1.0  0.22324  0.60701  0.61758  1.0000
  H   H889      1.0  0.21521  0.55441  0.60660  1.0000
  H   H890      1.0  0.29981  0.64157  0.51242  1.0000
  H   H891      1.0  0.16918  0.56637  0.67788  1.0000
  C   C505      1.0  0.20758  0.79974  0.62969  1.0000
  C   C506      1.0  0.23433  0.81520  0.61593  1.0000
  C   C507      1.0  0.24414  0.84562  0.60786  1.0000
  C   C508      1.0  0.22750  0.86112  0.61345  1.0000
  C   C509      1.0  0.20114  0.84601  0.62765  1.0000
  C   C510      1.0  0.19125  0.81545  0.63571  1.0000
  H   H892      1.0  0.24751  0.80379  0.61148  1.0000
  H   H893      1.0  0.26474  0.85720  0.59708  1.0000
  H   H894      1.0  0.18808  0.85762  0.63209  1.0000
  H   H895      1.0  0.17055  0.80377  0.64637  1.0000
  C   C511      1.0  0.24334  0.69169  0.53698  1.0000
  C   C512      1.0  0.27424  0.70283  0.54481  1.0000
  C   C513      1.0  0.29834  0.70808  0.52946  1.0000
  C   C514      1.0  0.29129  0.70187  0.50644  1.0000
  C   C515      1.0  0.26035  0.69056  0.49889  1.0000
  C   C516      1.0  0.23655  0.68586  0.51401  1.0000
  H   H896      1.0  0.27968  0.70798  0.56255  1.0000
  H   H897      1.0  0.32246  0.71774  0.53526  1.0000
  H   H898      1.0  0.25463  0.68557  0.48128  1.0000
  H   H899      1.0  0.21303  0.67838  0.50771  1.0000
  H   H900      1.0  0.14894  0.61498  0.57316  1.0000
  C   C517      1.0  0.07103  0.57128  0.51419  1.0000
  H   H901      1.0  0.34589  0.59820  0.55575  1.0000
  H   H902      1.0  0.03756  0.91741  0.48733  1.0000
  C   C518      1.0  0.05593  0.88674  0.49462  1.0000
  H   H903      1.0  0.47792  0.62238  0.69453  1.0000
  H   H904      1.0  0.24154  0.78846  0.56726  1.0000
  C   C519      1.0  0.12834  0.65017  0.51367  1.0000
  H   H905      1.0  0.10543  0.62079  0.54284  1.0000
  C   C520      1.0  0.31085  0.82859  0.66276  1.0000
  C   C521      1.0  0.31017  0.80457  0.64969  1.0000
  C   C522      1.0  0.33003  0.79260  0.65500  1.0000
  C   C523      1.0  0.35053  0.80469  0.67354  1.0000
  C   C524      1.0  0.35071  0.82826  0.68696  1.0000
  C   C525      1.0  0.50392  0.63199  0.69358  1.0000
  H   H906      1.0  0.29431  0.79545  0.63544  1.0000
  H   H907      1.0  0.36543  0.79502  0.67793  1.0000
  H   H908      1.0  0.17666  0.75876  0.49847  1.0000
  H   H909      1.0  0.16554  0.97838  0.56533  1.0000
  H   H910      1.0  0.34379  0.92286  0.65790  1.0000
  N   N37       1.0  0.50386  0.90875  0.50226  1.0000
  H   H911      1.0  0.23340  0.58263  0.51581  1.0000
  H   H912      1.0  0.27226  0.80414  0.70217  1.0000
  H   H913      1.0  0.43647  0.82592  0.67440  1.0000
  H   H914      1.0  0.35461  0.65407  0.65753  1.0000
  H   H915      1.0  0.20249  0.73384  0.68571  1.0000
  H   H916      1.0  0.22380  0.84831  0.53848  1.0000
  H   H917      1.0  0.24727  0.73304  0.70367  1.0000
  C   C526      1.0  0.35684  0.65395  0.67612  1.0000
  S   S154      1.0  0.24633  0.51475  0.53093  1.0000
  H   H918      1.0  0.16006  0.74513  0.68413  1.0000
  H   H919      1.0  0.44884  0.91747  0.49809  1.0000
  H   H920      1.0  0.24673  0.89994  0.65634  1.0000
  H   H921      1.0  0.47102  0.60636  0.65716  1.0000
  H   H922      1.0  0.47467  0.87351  0.65131  1.0000
  H   H923      1.0  0.14313  0.99907  0.48730  1.0000
  H   H924      1.0  0.26447  0.58915  0.69116  1.0000
  H   H925      1.0  0.26889  0.63347  0.65333  1.0000
  H   H926      1.0  0.26007  0.84838  0.54123  1.0000
  H   H927      1.0  0.07620  0.90374  0.50512  1.0000
  H   H928      1.0  0.45434  0.87763  0.50968  1.0000
  H   H929      1.0  0.27186  0.52042  0.64822  1.0000
  H   H930      1.0  0.27424  0.59831  0.63076  1.0000
  H   H931      1.0  0.05560  0.55845  0.49962  1.0000
  H   H932      1.0  0.33991  0.99060  0.62727  1.0000
  C   C527      1.0  0.29040  0.52943  0.66078  1.0000
  H   H933      1.0  0.50659  0.86563  0.71664  1.0000
  C   C528      1.0  0.26564  0.79693  0.52679  1.0000
  N   N38       1.0  0.31656  0.94611  0.66267  1.0000
  C   C529      1.0  0.15025  0.59546  0.56494  1.0000
  C   C530      1.0  0.12553  0.58023  0.54585  1.0000
  N   N39       1.0  0.23049  0.78103  0.53131  1.0000
  H   H934      1.0  0.36567  0.83663  0.70175  1.0000
  H   H935      1.0  0.49256  0.58959  0.64518  1.0000
  H   H936      1.0  0.31894  0.60758  0.68475  1.0000
  H   H937      1.0  0.25946  0.83965  0.69131  1.0000
  C   C531      1.0  0.14799  0.99477  0.50436  1.0000
  C   C532      1.0  0.12736  0.62838  0.53283  1.0000
  C   C533      1.0  0.33089  0.96623  0.62142  1.0000
  H   H938      1.0  0.34061  0.67699  0.53244  1.0000
  H   H939      1.0  0.30603  0.78981  0.52370  1.0000
  C   C534      1.0  0.28074  0.77594  0.52868  1.0000
  H   H940      1.0  0.16422  0.73684  0.52475  1.0000
  C   C535      1.0  0.49409  0.87159  0.65972  1.0000
  C   C536      1.0  0.02911  0.89463  0.49613  1.0000
  S   S155      1.0  0.24346  0.97072  0.63566  1.0000
  C   C537      1.0  0.30798  0.54827  0.69885  1.0000
  H   H941      1.0  0.37365  0.64554  0.67978  1.0000
  H   H942      1.0  0.46494  0.87819  0.71090  1.0000
  S   S156      1.0  0.17897  0.99553  0.64679  1.0000
  H   H943      1.0  0.19120  0.79369  0.70554  1.0000
  H   H944      1.0  0.30656  0.56749  0.56273  1.0000
  Fe  Fe80      1.0  0.23118  0.93993  0.60494  1.0000
  H   H945      1.0  0.14674  0.70825  0.69753  1.0000
  H   H946      1.0  0.28966  0.70310  0.69189  1.0000
  C   C538      1.0  0.29119  0.91838  0.67543  1.0000
  H   H947      1.0  0.36584  0.96417  0.65376  1.0000
  C   C539      1.0  0.33081  0.84019  0.68159  1.0000
  H   H948      1.0  0.35690  0.56365  0.70599  1.0000
  H   H949      1.0  0.45358  0.88282  0.68321  1.0000
  H   H950      1.0  0.19432  0.79442  0.52771  1.0000
  H   H951      1.0  0.22658  0.81393  0.50917  1.0000
  H   H952      1.0  0.26959  0.75555  0.51715  1.0000
  C   C540      1.0  0.31502  0.97964  0.69617  1.0000
  H   H953      1.0  0.24540  0.62493  0.57443  1.0000
  C   C541      1.0  0.23409  0.83333  0.54289  1.0000
  S   S157      1.0  0.19174  0.94905  0.59441  1.0000
  N   N40       1.0  0.13020  0.60061  0.52552  1.0000
  H   H954      1.0  0.35655  0.66046  0.55239  1.0000
  S   S158      1.0  0.26718  0.97900  0.58298  1.0000
  C   C542      1.0  0.16247  0.61261  0.51526  1.0000
  C   C543      1.0  0.46380  0.87069  0.69301  1.0000
  C   C544      1.0  0.17159  0.58774  0.50946  1.0000
  H   H955      1.0  0.12479  0.55812  0.54083  1.0000
  H   H956      1.0  0.14695  0.64359  0.54450  1.0000
  H   H957      1.0  0.10572  0.55924  0.50451  1.0000
  H   H958      1.0  0.16470  0.62539  0.49923  1.0000
  H   H959      1.0  0.18115  0.62993  0.52660  1.0000
  H   H960      1.0  0.10930  0.63783  0.50102  1.0000
  H   H961      1.0  0.22647  0.75959  0.49846  1.0000
  H   H962      1.0  0.30141  0.91811  0.63199  1.0000
  H   H963      1.0  0.14528  0.57765  0.57826  1.0000
  H   H964      1.0  0.17384  0.57607  0.52479  1.0000
  C   C545      1.0  0.19233  0.51454  0.54375  1.0000
  C   C546      1.0  0.23844  0.83216  0.70223  1.0000
  C   C547      1.0  0.19707  0.74075  0.70232  1.0000
  C   C548      1.0  0.12986  0.97465  0.54202  1.0000
  C   C549      1.0  0.16337  0.51311  0.53961  1.0000
  H   H965      1.0  0.06751  0.59147  0.51726  1.0000
  C   C550      1.0  0.22498  0.76982  0.55547  1.0000
  H   H966      1.0  0.11093  0.96368  0.55425  1.0000
  C   C551      1.0  0.49857  0.93239  0.48959  1.0000
  H   H967      1.0  0.31483  0.67479  0.70702  1.0000
  H   H968      1.0  0.14928  0.51321  0.55366  1.0000
  C   C552      1.0  0.32518  0.63221  0.68810  1.0000
  H   H969      1.0  0.02757  0.89948  0.51431  1.0000
  Fe  Fe81      1.0  0.07574  0.98183  0.47779  1.0000
  S   S159      1.0  0.08417  0.96913  0.51269  1.0000
  C   C553      1.0  0.26884  0.61320  0.69445  1.0000
  H   H970      1.0  0.29534  0.83763  0.65853  1.0000
  H   H971      1.0  0.27484  0.67864  0.66761  1.0000
  H   H972      1.0  0.23094  0.75100  0.55767  1.0000
  C   C554      1.0  0.16079  0.98290  0.54832  1.0000
  H   H973      1.0  0.49183  0.92526  0.47173  1.0000
  C   C555      1.0  0.28888  0.60409  0.64630  1.0000
  H   H974      1.0  0.47790  0.94768  0.51662  1.0000
  H   H975      1.0  0.17843  0.76771  0.55861  1.0000
  H   H976      1.0  0.22770  0.82618  0.56076  1.0000
  H   H977      1.0  0.30459  0.98318  0.66157  1.0000
  C   C556      1.0  0.22034  0.80487  0.52681  1.0000
  C   C557      1.0  0.43882  0.83552  0.69167  1.0000
  H   H978      1.0  0.21019  0.79370  0.68023  1.0000
  H   H979      1.0  0.19671  0.72351  0.71468  1.0000
  H   H980      1.0  0.22758  0.84627  0.69692  1.0000
  H   H981      1.0  0.27913  0.81660  0.53874  1.0000
  H   H982      1.0  0.21413  0.51282  0.48949  1.0000
  H   H983      1.0  0.31234  0.60844  0.64049  1.0000
  C   C558      1.0  0.25728  0.91271  0.67234  1.0000
  C   C559      1.0  0.19116  0.75595  0.56487  1.0000
  H   H984      1.0  0.28480  0.94260  0.63569  1.0000
  H   H985      1.0  0.10217  0.57258  0.55380  1.0000
  C   C560      1.0  0.33836  0.55417  0.69339  1.0000
  H   H986      1.0  0.12490  0.66892  0.52109  1.0000
  N   N41       1.0  0.28849  0.61737  0.54470  1.0000
  C   C561      1.0  0.27873  0.62612  0.52289  1.0000
  C   C562      1.0  0.30672  0.64667  0.55867  1.0000
  C   C563      1.0  0.26013  0.59405  0.55803  1.0000
  C   C564      1.0  0.30833  0.60274  0.53912  1.0000
  C   C565      1.0  0.25623  0.59862  0.50749  1.0000
  C   C566      1.0  0.34039  0.67000  0.55029  1.0000
  C   C567      1.0  0.23548  0.60397  0.56337  1.0000
  C   C568      1.0  0.32147  0.59306  0.55950  1.0000
  H   H987      1.0  0.26721  0.64028  0.52616  1.0000
  H   H988      1.0  0.34492  0.99659  0.66668  1.0000
  H   H989      1.0  0.30864  0.64111  0.57663  1.0000
  H   H990      1.0  0.29376  0.65985  0.55953  1.0000
  H   H991      1.0  0.24786  0.57111  0.54928  1.0000
  H   H992      1.0  0.26749  0.58885  0.57454  1.0000
  H   H993      1.0  0.29437  0.58095  0.52915  1.0000
  H   H994      1.0  0.32822  0.61792  0.52760  1.0000
  C   C569      1.0  0.26526  0.75817  0.70534  1.0000
  H   H995      1.0  0.28957  0.96590  0.70054  1.0000
  H   H996      1.0  0.26712  0.58499  0.50131  1.0000
  H   H997      1.0  0.49635  0.92966  0.66226  1.0000
  H   H998      1.0  0.35020  0.69169  0.56062  1.0000
  H   H999      1.0  0.25891  0.66330  0.69531  1.0000
  C   C570      1.0  0.21419  0.75371  0.51514  1.0000
  H   H1000     1.0  0.25084  0.77925  0.67915  1.0000
  H   H1001     1.0  0.28024  0.76780  0.54624  1.0000
  S   S160      1.0  0.32090  0.71015  0.48655  1.0000
  H   H1002     1.0  0.29610  0.92019  0.69384  1.0000
  H   H1003     1.0  0.24726  0.61302  0.68806  1.0000
  C   C571      1.0  0.10554  0.58129  0.50808  1.0000
  Fe  Fe82      1.0  0.20819  0.98419  0.62310  1.0000
  N   N42       1.0  0.49643  0.87984  0.68450  1.0000
  C   C572      1.0  0.34713  0.94557  0.66440  1.0000
  C   C573      1.0  0.47402  0.87734  0.50048  1.0000
  H   H1004     1.0  0.11095  0.59373  0.49161  1.0000
  H   H1005     1.0  0.29070  0.89639  0.67023  1.0000
  H   H1006     1.0  0.17470  0.60395  0.55907  1.0000
  H   H1007     1.0  0.16018  0.51440  0.66655  1.0000
  H   H1008     1.0  0.36785  0.67825  0.68271  1.0000
  C   C574      1.0  0.36212  0.95074  0.68805  1.0000
  C   C575      1.0  0.32059  0.53488  0.65534  1.0000
  C   C576      1.0  0.21052  0.51404  0.52572  1.0000
  H   H1009     1.0  0.49274  0.83604  0.69553  1.0000
  S   S161      1.0  0.32809  0.52557  0.62834  1.0000
  H   H1010     1.0  0.32746  0.68783  0.67920  1.0000
  C   C577      1.0  0.30680  0.67017  0.68909  1.0000
  C   C578      1.0  0.47519  0.84874  0.50991  1.0000
  H   H1011     1.0  0.27744  0.58304  0.65720  1.0000
  S   S162      1.0  0.41700  0.90102  0.71511  1.0000
  H   H1012     1.0  0.28551  0.76256  0.69437  1.0000
  H   H1013     1.0  0.31885  0.96379  0.60496  1.0000
  H   H1014     1.0  0.26051  0.53129  0.68672  1.0000
  C   C579      1.0  0.46249  0.56045  0.68821  1.0000
  H   H1015     1.0  0.34548  0.93477  0.70096  1.0000
  C   C580      1.0  0.49541  0.61046  0.65455  1.0000
  S   S163      1.0  0.25718  0.52573  0.59668  1.0000
  C   C581      1.0  0.21392  0.79723  0.69876  1.0000
  C   C582      1.0  0.50574  0.93599  0.67969  1.0000
  C   C583      1.0  0.47272  0.93853  0.49910  1.0000
  H   H1016     1.0  0.37252  0.97551  0.69344  1.0000
  H   H1017     1.0  0.25646  0.93476  0.67222  1.0000
  H   H1018     1.0  0.45649  0.53778  0.69633  1.0000
  N   N43       1.0  0.22216  0.77389  0.70853  1.0000
  H   H1019     1.0  0.31024  0.65439  0.64795  1.0000
  C   C584      1.0  0.17057  0.51081  0.49935  1.0000
  H   H1020     1.0  0.48753  0.84659  0.65759  1.0000
  H   H1021     1.0  0.45094  0.55483  0.67137  1.0000
  C   C585      1.0  0.16268  0.73390  0.69965  1.0000
  H   H1022     1.0  0.15408  0.74134  0.71428  1.0000
  C   C586      1.0  0.32074  0.97706  0.67076  1.0000
  H   H1023     1.0  0.32844  0.97268  0.70750  1.0000
  H   H1024     1.0  0.46515  0.87212  0.48273  1.0000
  H   H1025     1.0  0.20049  0.51583  0.56095  1.0000
  H   H1026     1.0  0.04872  0.86299  0.50110  1.0000
  H   H1027     1.0  0.06511  0.88958  0.47712  1.0000
  C   C587      1.0  0.50802  0.86169  0.69821  1.0000
  H   H1028     1.0  0.33046  0.63565  0.70651  1.0000
  S   S164      1.0  0.29073  0.76276  0.46858  1.0000
  H   H1029     1.0  0.48725  0.93557  0.69084  1.0000
  H   H1030     1.0  0.45812  0.82748  0.50040  1.0000
  H   H1031     1.0  0.49595  0.63359  0.62308  1.0000
  H   H1032     1.0  0.46855  0.84506  0.52807  1.0000
  C   C588      1.0  0.19998  0.51296  0.50349  1.0000
  C   C589      1.0  0.15199  0.51027  0.51749  1.0000
  H   H1033     1.0  0.50197  0.67181  0.67856  1.0000
  H   H1034     1.0  0.49829  0.85007  0.50771  1.0000
  S   S165      1.0  0.11337  0.50333  0.51347  1.0000
  H   H1035     1.0  0.50794  0.58176  0.70391  1.0000
  H   H1036     1.0  0.50719  0.56744  0.67628  1.0000
  C   C590      1.0  0.01214  0.97723  0.73948  1.0000
  H   H1037     1.0  0.40067  0.81598  0.80429  1.0000
  H   H1038     1.0  0.34068  0.51684  0.83766  1.0000
  Fe  Fe83      1.0  0.27309  0.51908  0.94529  1.0000
  H   H1039     1.0  0.40708  0.85859  0.88046  1.0000
  C   C591      1.0  0.42105  0.86580  0.81352  1.0000
  H   H1040     1.0  0.37532  0.83177  0.79980  1.0000
  H   H1041     1.0  0.23064  0.60989  0.88661  1.0000
  H   H1042     1.0  0.44688  0.82720  0.82115  1.0000
  S   S166      1.0  0.20566  0.98837  0.91960  1.0000
  H   H1043     1.0  0.50436  0.61879  0.83486  1.0000
  H   H1044     1.0  0.26079  0.57983  0.82200  1.0000
  Fe  Fe84      1.0  0.38549  0.90548  0.77408  1.0000
  S   S167      1.0  0.43633  0.92130  0.76710  1.0000
  S   S168      1.0  0.37124  0.90909  0.80967  1.0000
  S   S169      1.0  0.36722  0.85941  0.75614  1.0000
  S   S170      1.0  0.37986  0.93056  0.74434  1.0000
  Fe  Fe85      1.0  0.37229  0.61678  0.78962  1.0000
  S   S171      1.0  0.41669  0.65659  0.77478  1.0000
  S   S172      1.0  0.36768  0.61047  0.82731  1.0000
  Fe  Fe86      1.0  0.34388  0.59160  0.74391  1.0000
  S   S173      1.0  0.45823  0.61639  0.74446  1.0000
  C   C592      1.0  0.18867  0.56969  0.85167  1.0000
  Fe  Fe87      1.0  0.41395  0.61902  0.75157  1.0000
  C   C593      1.0  0.40442  0.93510  0.84869  1.0000
  Fe  Fe88      1.0  0.38438  0.66220  0.75016  1.0000
  H   H1045     1.0  0.49001  0.55544  0.82824  1.0000
  S   S174      1.0  0.37155  0.57926  0.76791  1.0000
  S   S175      1.0  0.34028  0.62521  0.76728  1.0000
  H   H1046     1.0  0.22779  0.58533  0.81425  1.0000
  H   H1047     1.0  0.07690  0.51789  0.96690  1.0000
  H   H1048     1.0  0.38285  0.80328  0.73214  1.0000
  C   C594      1.0  0.36344  0.94783  0.92934  1.0000
  C   C595      1.0  0.39518  0.74170  0.74226  1.0000
  H   H1049     1.0  0.16218  0.96492  0.96369  1.0000
  C   C596      1.0  0.39416  0.79076  0.73858  1.0000
  H   H1050     1.0  0.19195  0.52691  0.82595  1.0000
  Fe  Fe89      1.0  0.42965  0.94364  0.73622  1.0000
  H   H1051     1.0  0.44939  0.52920  0.81950  1.0000
  C   C597      1.0  0.43563  0.55184  0.74775  1.0000
  H   H1052     1.0  0.42997  0.87309  0.79608  1.0000
  H   H1053     1.0  0.49221  0.85522  0.84891  1.0000
  H   H1054     1.0  0.38724  0.96345  0.93674  1.0000
  C   C598      1.0  0.47066  0.90512  0.83089  1.0000
  C   C599      1.0  0.30287  0.54398  0.86855  1.0000
  C   C600      1.0  0.32983  0.57061  0.86027  1.0000
  C   C601      1.0  0.33371  0.57666  0.83702  1.0000
  C   C602      1.0  0.31066  0.55565  0.82202  1.0000
  C   C603      1.0  0.37829  0.54295  0.91168  1.0000
  S   S176      1.0  0.38618  0.62841  0.72543  1.0000
  H   H1055     1.0  0.34769  0.58661  0.87196  1.0000
  H   H1056     1.0  0.31357  0.56008  0.80402  1.0000
  H   H1057     1.0  0.43066  0.89602  0.86777  1.0000
  H   H1058     1.0  0.03700  0.99691  0.73994  1.0000
  H   H1059     1.0  0.43174  0.54983  0.85249  1.0000
  C   C604      1.0  0.45887  0.97872  0.82575  1.0000
  C   C605      1.0  0.43094  0.95972  0.81377  1.0000
  C   C606      1.0  0.40409  0.93697  0.82507  1.0000
  H   H1060     1.0  0.43525  0.62047  0.82880  1.0000
  H   H1061     1.0  0.38008  0.54795  0.89381  1.0000
  H   H1062     1.0  0.27080  0.63853  0.72587  1.0000
  H   H1063     1.0  0.43034  0.96254  0.79571  1.0000
  C   C607      1.0  0.43532  0.85782  0.85237  1.0000
  H   H1064     1.0  0.46382  0.62808  0.85022  1.0000
  H   H1065     1.0  0.28678  0.93851  0.88853  1.0000
  C   C608      1.0  0.45494  0.56511  0.84436  1.0000
  S   S177      1.0  0.46697  0.99254  0.72577  1.0000
  H   H1066     1.0  0.14349  0.57292  0.94025  1.0000
  S   S178      1.0  0.44211  0.84818  0.75424  1.0000
  C   C609      1.0  0.13090  0.55056  0.93172  1.0000
  C   C610      1.0  0.41754  0.59246  0.85890  1.0000
  H   H1067     1.0  0.33402  0.99332  0.94914  1.0000
  H   H1068     1.0  0.17833  0.57259  0.88852  1.0000
  H   H1069     1.0  0.46708  0.85689  0.80105  1.0000
  C   C611      1.0  0.39911  0.54819  0.81234  1.0000
  Fe  Fe90      1.0  0.36730  0.88634  0.72541  1.0000
  H   H1070     1.0  0.19511  0.79527  0.74304  1.0000
  H   H1071     1.0  0.48854  0.65525  0.81641  1.0000
  H   H1072     1.0  0.47118  0.57730  0.85883  1.0000
  C   C612      1.0  0.35034  0.53523  0.94718  1.0000
  H   H1073     1.0  0.49552  0.59693  0.80931  1.0000
  S   S179      1.0  0.29980  0.55757  0.72559  1.0000
  C   C613      1.0  0.14529  0.53219  0.92924  1.0000
  Fe  Fe91      1.0  0.21085  0.51993  0.93529  1.0000
  C   C614      1.0  0.46163  0.58251  0.74810  1.0000
  H   H1074     1.0  0.35663  0.99042  0.83972  1.0000
  H   H1075     1.0  0.24895  0.79983  0.73791  1.0000
  C   C615      1.0  0.35244  0.54048  0.92386  1.0000
  C   C616      1.0  0.39316  0.83194  0.81157  1.0000
  H   H1076     1.0  0.39012  0.53250  0.79738  1.0000
  H   H1077     1.0  0.09009  0.55532  0.92424  1.0000
  H   H1078     1.0  0.46292  0.52564  0.84678  1.0000
  C   C617      1.0  0.44359  0.60876  0.84091  1.0000
  H   H1079     1.0  0.43297  0.95213  0.87891  1.0000
  C   C618      1.0  0.40184  0.53934  0.92257  1.0000
  H   H1080     1.0  0.41717  0.53017  0.95440  1.0000
  C   C619      1.0  0.16870  0.57131  0.87141  1.0000
  H   H1081     1.0  0.23365  0.55616  0.80073  1.0000
  H   H1082     1.0  0.38360  0.91764  0.85750  1.0000
  N   N44       1.0  0.44755  0.87046  0.82905  1.0000
  C   C620      1.0  0.38078  0.75847  0.73423  1.0000
  C   C621      1.0  0.43364  0.57366  0.80803  1.0000
  Fe  Fe92      1.0  0.22481  0.98120  0.95226  1.0000
  C   C622      1.0  0.39905  0.53274  0.94576  1.0000
  C   C623      1.0  0.27954  0.52323  0.85370  1.0000
  H   H1083     1.0  0.42066  0.83179  0.85221  1.0000
  C   C624      1.0  0.24007  0.59374  0.88887  1.0000
  H   H1084     1.0  0.01426  0.99086  0.77449  1.0000
  C   C625      1.0  0.21458  0.54283  0.83476  1.0000
  C   C626      1.0  0.19245  0.52712  0.87246  1.0000
  H   H1085     1.0  0.44439  0.56388  0.79639  1.0000
  C   C627      1.0  0.28364  0.52890  0.83037  1.0000
  H   H1086     1.0  0.38094  0.82264  0.82790  1.0000
  H   H1087     1.0  0.16675  0.59268  0.86937  1.0000
  S   S180      1.0  0.31980  0.53529  0.96314  1.0000
  H   H1088     1.0  0.45827  0.91779  0.83629  1.0000
  H   H1089     1.0  0.29370  0.90698  0.89468  1.0000
  C   C628      1.0  0.46496  0.54285  0.83376  1.0000
  H   H1090     1.0  0.23102  0.75870  0.74075  1.0000
  H   H1091     1.0  0.20375  0.59390  0.84502  1.0000
  S   S181      1.0  0.25821  0.54068  0.91783  1.0000
  C   C629      1.0  0.42267  0.80690  0.75048  1.0000
  C   C630      1.0  0.36833  0.93295  0.90796  1.0000
  C   C631      1.0  0.43703  0.79017  0.75865  1.0000
  S   S182      1.0  0.43485  0.54406  0.90694  1.0000
  H   H1092     1.0  0.17130  0.55642  0.83803  1.0000
  H   H1093     1.0  0.22708  0.57655  0.90239  1.0000
  H   H1094     1.0  0.39484  0.86644  0.85403  1.0000
  H   H1095     1.0  0.30035  0.53936  0.88643  1.0000
  C   C632      1.0  0.48756  0.60995  0.82030  1.0000
  H   H1096     1.0  0.43213  0.59154  0.79742  1.0000
  H   H1097     1.0  0.35922  0.74643  0.72441  1.0000
  S   S183      1.0  0.42492  0.94742  0.96560  1.0000
  C   C633      1.0  0.23539  0.56786  0.81714  1.0000
  C   C634      1.0  0.45978  0.97574  0.84920  1.0000
  C   C635      1.0  0.49213  0.58687  0.75010  1.0000
  H   H1098     1.0  0.38300  0.92235  0.91266  1.0000
  C   C636      1.0  0.08443  0.51222  0.91097  1.0000
  Fe  Fe93      1.0  0.46004  0.98781  0.94476  1.0000
  H   H1099     1.0  0.14397  0.55141  0.87064  1.0000
  N   N45       1.0  0.45413  0.58877  0.82849  1.0000
  H   H1100     1.0  0.45913  0.80244  0.76780  1.0000
  C   C637      1.0  0.49693  0.56118  0.75113  1.0000
  H   H1101     1.0  0.39631  0.53255  0.82659  1.0000
  H   H1102     1.0  0.26483  0.60824  0.89492  1.0000
  H   H1103     1.0  0.29713  0.95478  0.92461  1.0000
  S   S184      1.0  0.50242  0.98874  0.92938  1.0000
  C   C638      1.0  0.49460  0.86029  0.83054  1.0000
  C   C639      1.0  0.46295  0.85297  0.81955  1.0000
  C   C640      1.0  0.10056  0.54057  0.92275  1.0000
  H   H1104     1.0  0.30138  0.92222  0.93122  1.0000
  H   H1105     1.0  0.41141  0.88118  0.81833  1.0000
  C   C641      1.0  0.24033  0.57827  0.86639  1.0000
  H   H1106     1.0  0.14485  0.50623  0.85689  1.0000
  H   H1107     1.0  0.48268  0.90624  0.79408  1.0000
  H   H1108     1.0  0.18695  0.53354  0.88904  1.0000
  H   H1109     1.0  0.25364  0.59824  0.85462  1.0000
  H   H1110     1.0  0.47901  0.63241  0.79076  1.0000
  H   H1111     1.0  0.43464  0.74511  0.76090  1.0000
  Fe  Fe94      1.0  0.45639  0.51498  0.91846  1.0000
  H   H1112     1.0  0.38400  0.55885  0.81497  1.0000
  H   H1113     1.0  0.33485  0.54402  0.91543  1.0000
  N   N46       1.0  0.34573  0.96547  0.92685  1.0000
  H   H1114     1.0  0.01341  0.95707  0.73232  1.0000
  C   C642      1.0  0.30445  0.93285  0.89564  1.0000
  S   S185      1.0  0.37824  0.70153  0.73483  1.0000
  H   H1115     1.0  0.25528  0.56723  0.86879  1.0000
  C   C643      1.0  0.47134  0.53052  0.75016  1.0000
  H   H1116     1.0  0.38154  0.95006  0.89444  1.0000
  H   H1117     1.0  0.20868  0.51814  0.87667  1.0000
  H   H1118     1.0  0.27444  0.76314  0.72291  1.0000
  C   C644      1.0  0.43227  0.95462  0.86079  1.0000
  H   H1119     1.0  0.39634  0.57133  0.85250  1.0000
  C   C645      1.0  0.37364  0.53119  0.95807  1.0000
  C   C646      1.0  0.48896  0.92158  0.80907  1.0000
  C   C647      1.0  0.42320  0.75766  0.75478  1.0000
  S   S186      1.0  0.50237  0.52649  0.93589  1.0000
  C   C648      1.0  0.31162  0.94375  0.92057  1.0000
  C   C649      1.0  0.44050  0.52581  0.74873  1.0000
  C   C650      1.0  0.41589  0.87069  0.86398  1.0000
  N   N47       1.0  0.20857  0.55478  0.85664  1.0000
  H   H1120     1.0  0.32508  0.94336  0.88423  1.0000
  H   H1121     1.0  0.26583  0.51277  0.81872  1.0000
  S   S187      1.0  0.18385  0.54610  0.94028  1.0000
  H   H1122     1.0  0.40974  0.60898  0.86461  1.0000
  Fe  Fe95      1.0  0.41795  0.87677  0.74723  1.0000
  H   H1123     1.0  0.42688  0.58652  0.87408  1.0000
  H   H1124     1.0  0.41194  0.54817  0.74608  1.0000
  H   H1125     1.0  0.08935  0.97472  0.95273  1.0000
  H   H1126     1.0  0.45523  0.86308  0.86406  1.0000
  C   C651      1.0  0.22705  0.77742  0.73376  1.0000
  H   H1127     1.0  0.35119  0.92798  0.94138  1.0000
  C   C652      1.0  0.19998  0.77631  0.74772  1.0000
  C   C653      1.0  0.34681  0.97998  0.94958  1.0000
  H   H1128     1.0  0.20705  0.77988  0.76581  1.0000
  H   H1129     1.0  0.22582  0.52839  0.83811  1.0000
  H   H1130     1.0  0.34576  0.91353  0.90143  1.0000
  H   H1131     1.0  0.48458  0.94100  0.80462  1.0000
  H   H1132     1.0  0.17821  0.75315  0.74655  1.0000
  C   C654      1.0  0.49320  0.63895  0.80647  1.0000
  H   H1133     1.0  0.50277  0.84512  0.82270  1.0000
  H   H1134     1.0  0.24582  0.83810  0.72008  1.0000
  C   C655      1.0  0.12877  0.50345  0.91804  1.0000
  H   H1135     1.0  0.36820  0.98493  0.89423  1.0000
  C   C656      1.0  0.36280  0.99231  0.91041  1.0000
  H   H1136     1.0  0.18447  0.99262  0.85384  1.0000
  H   H1137     1.0  0.37165  0.99734  0.95426  1.0000
  H   H1138     1.0  0.47995  0.99543  0.81677  1.0000
  S   S188      1.0  0.49597  0.99711  0.86337  1.0000
  H   H1139     1.0  0.16927  0.99958  0.87920  1.0000
  S   S189      1.0  0.27262  0.99595  0.93793  1.0000
  S   S190      1.0  0.04542  0.99667  0.94785  1.0000
  H   H1140     1.0  0.32333  0.99530  0.89446  1.0000
  C   C657      1.0  0.10178  0.99730  0.94442  1.0000
  H   H1141     1.0  0.14685  0.99883  0.94476  1.0000
  S   S191      1.0  0.26828  0.00025  0.87190  1.0000
  H   H1142     1.0  0.24677  0.59693  0.72726  1.0000
  S   S192      1.0  0.22836  0.50421  0.96487  1.0000
  H   H1143     1.0  0.28858  0.61401  0.72832  1.0000
  C   C658      1.0  0.26927  0.61634  0.72041  1.0000
  H   H1144     1.0  0.48828  0.90998  0.84454  1.0000
  Fe  Fe96      1.0  0.88261  0.46380  0.09314  1.0000
  S   S193      1.0  0.84979  0.42194  0.07282  1.0000
  C   C659      1.0  0.94941  0.38087  0.97586  1.0000
  Fe  Fe97      1.0  0.86057  0.42658  0.13686  1.0000
  S   S194      1.0  0.82479  0.38241  0.11914  1.0000
  S   S195      1.0  0.87095  0.42646  0.17399  1.0000
  Fe  Fe98      1.0  0.86520  0.39533  0.09505  1.0000
  S   S196      1.0  0.88438  0.36582  0.08045  1.0000
  Fe  Fe99      1.0  0.81358  0.41470  0.09912  1.0000
  S   S197      1.0  0.76865  0.41051  0.08398  1.0000
  S   S198      1.0  0.90092  0.43801  0.11350  1.0000
  S   S199      1.0  0.84630  0.45793  0.11877  1.0000
  H   H1145     1.0  0.62114  0.35863  0.98403  1.0000
  H   H1146     1.0  0.96214  0.09695  0.03536  1.0000
  Fe  Fe100     1.0  0.54973  0.40456  0.11917  1.0000
  S   S200      1.0  0.55872  0.43629  0.08976  1.0000
  H   H1147     1.0  0.63464  0.48683  0.18655  1.0000
  Fe  Fe101     1.0  0.61848  0.41709  0.11901  1.0000
  S   S201      1.0  0.63195  0.45017  0.08960  1.0000
  S   S202      1.0  0.65379  0.40693  0.13676  1.0000
  Fe  Fe102     1.0  0.60401  0.46865  0.10752  1.0000
  H   H1148     1.0  0.68090  0.13976  0.20309  1.0000
  Fe  Fe103     1.0  0.58499  0.41395  0.07547  1.0000
  S   S203      1.0  0.57321  0.39355  0.04061  1.0000
  S   S204      1.0  0.59367  0.43815  0.13801  1.0000
  S   S205      1.0  0.57282  0.37948  0.10382  1.0000
  H   H1149     1.0  0.63577  0.06653  0.97747  1.0000
  C   C660      1.0  0.80990  0.49283  0.04601  1.0000
  C   C661      1.0  0.69694  0.00956  0.19659  1.0000
  C   C662      1.0  0.79068  0.19757  0.18667  1.0000
  H   H1150     1.0  0.94530  0.27900  0.15600  1.0000
  H   H1151     1.0  0.79218  0.40777  0.00950  1.0000
  H   H1152     1.0  0.65422  0.45513  0.16443  1.0000
  H   H1153     1.0  0.97152  0.36042  0.16659  1.0000
  H   H1154     1.0  0.60917  0.37010  0.06774  1.0000
  C   C663      1.0  0.95144  0.44394  0.16443  1.0000
  H   H1155     1.0  0.97800  0.46639  0.07376  1.0000
  S   S206      1.0  0.73396  0.01379  0.97054  1.0000
  C   C664      1.0  0.76518  0.45837  0.00678  1.0000
  H   H1156     1.0  0.97707  0.00667  0.05832  1.0000
  H   H1157     1.0  0.82137  0.02199  0.09270  1.0000
  H   H1158     1.0  0.97277  0.34354  0.97880  1.0000
  H   H1159     1.0  0.70555  0.47598  0.14951  1.0000
  C   C665      1.0  0.60536  0.39712  0.02510  1.0000
  C   C666      1.0  0.60014  0.37407  0.00920  1.0000
  C   C667      1.0  0.62529  0.37652  0.99633  1.0000
  C   C668      1.0  0.65553  0.40259  0.99876  1.0000
  C   C669      1.0  0.66079  0.42593  0.01446  1.0000
  C   C670      1.0  0.63577  0.42293  0.02793  1.0000
  H   H1160     1.0  0.57659  0.35422  0.00689  1.0000
  H   H1161     1.0  0.91754  0.33869  0.15989  1.0000
  H   H1162     1.0  0.62407  0.02812  0.01624  1.0000
  H   H1163     1.0  0.63983  0.44102  0.03998  1.0000
  H   H1164     1.0  0.54718  0.41009  0.19955  1.0000
  H   H1165     1.0  0.90987  0.33335  0.98351  1.0000
  H   H1166     1.0  0.00802  0.32746  0.17736  1.0000
  C   C671      1.0  0.81620  0.45048  0.02997  1.0000
  H   H1167     1.0  0.63379  0.02088  0.14422  1.0000
  H   H1168     1.0  0.53013  0.49512  0.18565  1.0000
  H   H1169     1.0  0.68417  0.44620  0.01630  1.0000
  C   C672      1.0  0.91395  0.31458  0.15977  1.0000
  H   H1170     1.0  0.95811  0.39312  0.14408  1.0000
  C   C673      1.0  0.58434  0.44590  0.99701  1.0000
  H   H1171     1.0  0.73429  0.46424  0.19247  1.0000
  H   H1172     1.0  0.58895  0.00746  0.03264  1.0000
  H   H1173     1.0  0.75671  0.21132  0.19581  1.0000
  C   C674      1.0  0.99804  0.34204  0.18340  1.0000
  H   H1174     1.0  0.59672  0.33606  0.05082  1.0000
  H   H1175     1.0  0.95280  0.41028  0.18712  1.0000
  C   C675      1.0  0.54202  0.45307  0.01304  1.0000
  H   H1176     1.0  0.53667  0.49461  0.07069  1.0000
  C   C676      1.0  0.96745  0.39572  0.01479  1.0000
  C   C677      1.0  0.86469  0.38936  0.18194  1.0000
  C   C678      1.0  0.86159  0.36776  0.16546  1.0000
  C   C679      1.0  0.85475  0.33755  0.17161  1.0000
  C   C680      1.0  0.85175  0.32895  0.19440  1.0000
  H   H1177     1.0  0.00070  0.42527  0.17125  1.0000
  C   C681      1.0  0.86278  0.38119  0.20480  1.0000
  H   H1178     1.0  0.86420  0.37418  0.14788  1.0000
  H   H1179     1.0  0.85144  0.32077  0.15862  1.0000
  H   H1180     1.0  0.00248  0.45186  0.08519  1.0000
  C   C682      1.0  0.51660  0.48424  0.20146  1.0000
  C   C683      1.0  0.91993  0.37290  0.09344  1.0000
  C   C684      1.0  0.72541  0.15824  0.16937  1.0000
  H   H1181     1.0  0.95497  0.40907  0.01166  1.0000
  H   H1182     1.0  0.00599  0.43209  0.98106  1.0000
  C   C685      1.0  0.97234  0.37832  0.09069  1.0000
  C   C686      1.0  0.92553  0.38092  0.11630  1.0000
  H   H1183     1.0  0.93870  0.36425  0.06325  1.0000
  H   H1184     1.0  0.81093  0.02416  0.05232  1.0000
  H   H1185     1.0  0.61848  0.43657  0.98025  1.0000
  H   H1186     1.0  0.90752  0.38181  0.12626  1.0000
  C   C687      1.0  0.74030  0.41412  0.10032  1.0000
  C   C688      1.0  0.73290  0.40244  0.12237  1.0000
  C   C689      1.0  0.70671  0.40096  0.13353  1.0000
  C   C690      1.0  0.68802  0.41156  0.12290  1.0000
  C   C691      1.0  0.69643  0.42471  0.10129  1.0000
  C   C692      1.0  0.72221  0.42563  0.08997  1.0000
  H   H1187     1.0  0.74645  0.39323  0.13046  1.0000
  H   H1188     1.0  0.70045  0.39079  0.15026  1.0000
  H   H1189     1.0  0.68246  0.43320  0.09296  1.0000
  H   H1190     1.0  0.72773  0.43472  0.07292  1.0000
  H   H1191     1.0  0.69182  0.13385  0.14219  1.0000
  C   C693      1.0  0.92975  0.46964  0.05117  1.0000
  C   C694      1.0  0.94504  0.46246  0.03425  1.0000
  C   C695      1.0  0.51238  0.49014  0.07438  1.0000
  H   H1192     1.0  0.85883  0.49183  0.98620  1.0000
  H   H1193     1.0  0.99483  0.01510  0.02069  1.0000
  H   H1194     1.0  0.91944  0.45387  0.06533  1.0000
  C   C696      1.0  0.66317  0.46376  0.18174  1.0000
  H   H1195     1.0  0.56885  0.42019  0.99601  1.0000
  H   H1196     1.0  0.70499  0.47885  0.21401  1.0000
  H   H1197     1.0  0.94188  0.11333  0.97306  1.0000
  H   H1198     1.0  0.59000  0.02988  0.00788  1.0000
  H   H1199     1.0  0.82609  0.02884  0.01653  1.0000
  C   C697      1.0  0.61534  0.06858  0.17415  1.0000
  S   S207      1.0  0.60973  0.03198  0.10229  1.0000
  N   N48       1.0  0.82044  0.48245  0.02537  1.0000
  H   H1200     1.0  0.64341  0.47282  0.21241  1.0000
  H   H1201     1.0  0.90838  0.36423  0.99913  1.0000
  H   H1202     1.0  0.66343  0.44378  0.19029  1.0000
  H   H1203     1.0  0.99878  0.36037  0.02750  1.0000
  H   H1204     1.0  0.95888  0.36685  0.20360  1.0000
  H   H1205     1.0  0.98331  0.06575  0.05630  1.0000
  C   C698      1.0  0.00453  0.06691  0.00070  1.0000
  H   H1206     1.0  0.60456  0.33559  0.08083  1.0000
  H   H1207     1.0  0.99024  0.37701  0.08077  1.0000
  S   S208      1.0  0.68645  0.40592  0.98191  1.0000
  H   H1208     1.0  0.68464  0.34257  0.10063  1.0000
  H   H1209     1.0  0.97399  0.10295  0.00558  1.0000
  H   H1210     1.0  0.92944  0.26042  0.20604  1.0000
  C   C699      1.0  0.51509  0.41871  0.01289  1.0000
  C   C700      1.0  0.62479  0.03649  0.14762  1.0000
  N   N49       1.0  0.56616  0.46304  0.99434  1.0000
  H   H1211     1.0  0.98128  0.49796  0.19031  1.0000
  H   H1212     1.0  0.83584  0.45302  0.04086  1.0000
  H   H1213     1.0  0.94369  0.24472  0.18510  1.0000
  H   H1214     1.0  0.79427  0.43596  0.03995  1.0000
  C   C701      1.0  0.76054  0.19125  0.19952  1.0000
  S   S209      1.0  0.61681  0.08329  0.20152  1.0000
  C   C702      1.0  0.58955  0.49748  0.99764  1.0000
  C   C703      1.0  0.97019  0.33732  0.16833  1.0000
  H   H1215     1.0  0.83068  0.00289  0.05825  1.0000
  C   C704      1.0  0.97288  0.35378  0.99556  1.0000
  H   H1216     1.0  0.95073  0.37530  0.02521  1.0000
  H   H1217     1.0  0.91852  0.35405  0.19471  1.0000
  C   C705      1.0  0.60255  0.06775  0.13433  1.0000
  H   H1218     1.0  0.69975  0.02918  0.18570  1.0000
  H   H1219     1.0  0.88863  0.00424  0.00273  1.0000
  C   C706      1.0  0.95422  0.38733  0.12636  1.0000
  H   H1220     1.0  0.53895  0.01440  0.05342  1.0000
  C   C707      1.0  0.00605  0.40970  0.98344  1.0000
  H   H1221     1.0  0.52983  0.46695  0.01264  1.0000
  H   H1222     1.0  0.54451  0.04964  0.02631  1.0000
  H   H1223     1.0  0.70077  0.43542  0.17636  1.0000
  H   H1224     1.0  0.64952  0.34587  0.10380  1.0000
  H   H1225     1.0  0.78815  0.19870  0.16812  1.0000
  C   C708      1.0  0.70857  0.50010  0.20479  1.0000
  H   H1226     1.0  0.67477  0.14321  0.16529  1.0000
  C   C709      1.0  0.89151  0.09352  0.96984  1.0000
  C   C710      1.0  0.70401  0.16089  0.20666  1.0000
  H   H1227     1.0  0.79802  0.18022  0.19092  1.0000
  H   H1228     1.0  0.67587  0.31136  0.01859  1.0000
  H   H1229     1.0  0.89726  0.31074  0.12517  1.0000
  N   N50       1.0  0.97452  0.38497  0.99270  1.0000
  N   N51       1.0  0.73095  0.16036  0.19461  1.0000
  H   H1230     1.0  0.53173  0.46450  0.97196  1.0000
  H   H1231     1.0  0.89882  0.35864  0.96977  1.0000
  C   C711      1.0  0.62618  0.04768  0.16967  1.0000
  H   H1232     1.0  0.94231  0.00894  0.05241  1.0000
  H   H1233     1.0  0.55254  0.00493  0.19161  1.0000
  H   H1234     1.0  0.93343  0.08385  0.01347  1.0000
  C   C712      1.0  0.95679  0.08670  0.01816  1.0000
  H   H1235     1.0  0.96302  0.43719  0.09511  1.0000
  H   H1236     1.0  0.97603  0.33284  0.15109  1.0000
  C   C713      1.0  0.73642  0.13443  0.20281  1.0000
  C   C714      1.0  0.80430  0.00864  0.00960  1.0000
  N   N52       1.0  0.97898  0.45571  0.20329  1.0000
  H   H1237     1.0  0.93133  0.42461  0.15522  1.0000
  C   C715      1.0  0.82770  0.49564  0.06831  1.0000
  H   H1238     1.0  0.65064  0.28046  0.03812  1.0000
  H   H1239     1.0  0.64941  0.31116  0.11222  1.0000
  C   C716      1.0  0.99646  0.48335  0.10822  1.0000
  H   H1240     1.0  0.70606  0.08847  0.18700  1.0000
  C   C717      1.0  0.54158  0.04565  0.07994  1.0000
  H   H1241     1.0  0.82915  0.47440  0.07213  1.0000
  C   C718      1.0  0.52438  0.41000  0.20006  1.0000
  C   C719      1.0  0.61257  0.04620  0.12995  1.0000
  H   H1242     1.0  0.97497  0.47967  0.11739  1.0000
  C   C720      1.0  0.72274  0.45857  0.17567  1.0000
  H   H1243     1.0  0.54107  0.06623  0.07308  1.0000
  H   H1244     1.0  0.74157  0.15185  0.16063  1.0000
  H   H1245     1.0  0.75269  0.46404  0.01993  1.0000
  C   C721      1.0  0.81484  0.43043  0.00941  1.0000
  H   H1246     1.0  0.73902  0.45601  0.16391  1.0000
  C   C722      1.0  0.95875  0.48260  0.01583  1.0000
  H   H1247     1.0  0.59495  0.45004  0.01424  1.0000
  H   H1248     1.0  0.70059  0.33613  0.05271  1.0000
  H   H1249     1.0  0.63604  0.28375  0.01113  1.0000
  C   C723      1.0  0.91429  0.30623  0.13464  1.0000
  H   H1250     1.0  0.81721  0.44146  0.99280  1.0000
  N   N53       1.0  0.98412  0.05314  0.02138  1.0000
  H   H1251     1.0  0.68254  0.11109  0.16727  1.0000
  C   C724      1.0  0.69164  0.13514  0.16093  1.0000
  H   H1252     1.0  0.80983  0.48064  0.98928  1.0000
  H   H1253     1.0  0.51150  0.39825  0.18443  1.0000
  H   H1254     1.0  0.90649  0.28108  0.13230  1.0000
  H   H1255     1.0  0.75455  0.13321  0.19221  1.0000
  H   H1256     1.0  0.94347  0.31138  0.21164  1.0000
  C   C725      1.0  0.63793  0.46814  0.19416  1.0000
  H   H1257     1.0  0.72916  0.37855  0.02857  1.0000
  H   H1258     1.0  0.94295  0.04332  0.00141  1.0000
  H   H1259     1.0  0.51173  0.02589  0.00735  1.0000
  N   N54       1.0  0.93745  0.31205  0.17507  1.0000
  C   C726      1.0  0.92940  0.31583  0.19900  1.0000
  C   C727      1.0  0.93339  0.27982  0.17182  1.0000
  H   H1260     1.0  0.83400  0.42455  0.01078  1.0000
  C   C728      1.0  0.94502  0.26674  0.19097  1.0000
  H   H1261     1.0  0.88930  0.29906  0.16589  1.0000
  H   H1262     1.0  0.96980  0.28281  0.19594  1.0000
  H   H1263     1.0  0.99070  0.05564  0.98517  1.0000
  H   H1264     1.0  0.90783  0.26204  0.16965  1.0000
  C   C729      1.0  0.97438  0.01881  0.02281  1.0000
  H   H1265     1.0  0.92914  0.42578  0.19626  1.0000
  H   H1266     1.0  0.93592  0.04027  0.03084  1.0000
  H   H1267     1.0  0.63291  0.47711  0.98511  1.0000
  H   H1268     1.0  0.55388  0.45757  0.02986  1.0000
  C   C730      1.0  0.93377  0.34816  0.20502  1.0000
  C   C731      1.0  0.97782  0.38635  0.11358  1.0000
  H   H1269     1.0  0.52375  0.40183  0.01377  1.0000
  S   S210      1.0  0.84257  0.29060  0.20141  1.0000
  H   H1270     1.0  0.73111  0.18155  0.16239  1.0000
  H   H1271     1.0  0.70986  0.39973  0.03794  1.0000
  C   C732      1.0  0.94320  0.37106  0.08077  1.0000
  N   N55       1.0  0.69596  0.49204  0.18098  1.0000
  H   H1272     1.0  0.59354  0.07574  0.12069  1.0000
  H   H1273     1.0  0.90443  0.29788  0.20269  1.0000
  H   H1274     1.0  0.93769  0.32083  0.12664  1.0000
  H   H1275     1.0  0.61480  0.44606  0.19300  1.0000
  H   H1276     1.0  0.69139  0.36812  0.01794  1.0000
  H   H1277     1.0  0.99218  0.33744  0.20151  1.0000
  H   H1278     1.0  0.54809  0.45727  0.18758  1.0000
  C   C733      1.0  0.71647  0.48431  0.16647  1.0000
  H   H1279     1.0  0.56700  0.05248  0.07964  1.0000
  C   C734      1.0  0.60388  0.07885  0.15634  1.0000
  H   H1280     1.0  0.75423  0.45855  0.99038  1.0000
  H   H1281     1.0  0.98652  0.42076  0.04639  1.0000
  H   H1282     1.0  0.94623  0.44124  0.03563  1.0000
  C   C735      1.0  0.99570  0.41759  0.03005  1.0000
  C   C736      1.0  0.95244  0.43254  0.18851  1.0000
  C   C737      1.0  0.80076  0.48297  0.00586  1.0000
  H   H1283     1.0  0.95029  0.33651  0.00378  1.0000
  C   C738      1.0  0.70786  0.10075  0.20311  1.0000
  N   N56       1.0  0.65650  0.33711  0.05594  1.0000
  C   C739      1.0  0.64694  0.31480  0.07569  1.0000
  C   C740      1.0  0.63960  0.31871  0.03509  1.0000
  C   C741      1.0  0.64750  0.36180  0.05973  1.0000
  C   C742      1.0  0.69190  0.35312  0.05332  1.0000
  C   C743      1.0  0.65849  0.32994  0.09920  1.0000
  C   C744      1.0  0.65154  0.29747  0.02545  1.0000
  C   C745      1.0  0.61237  0.34960  0.06507  1.0000
  C   C746      1.0  0.70612  0.37626  0.03336  1.0000
  H   H1284     1.0  0.62075  0.29965  0.07660  1.0000
  H   H1285     1.0  0.65602  0.29830  0.07353  1.0000
  H   H1286     1.0  0.64046  0.33441  0.02120  1.0000
  H   H1287     1.0  0.61388  0.30328  0.03850  1.0000
  H   H1288     1.0  0.66170  0.37784  0.07353  1.0000
  H   H1289     1.0  0.65329  0.37716  0.04462  1.0000
  H   H1290     1.0  0.70377  0.36721  0.06855  1.0000
  C   C747      1.0  0.91484  0.35789  0.98282  1.0000
  H   H1291     1.0  0.71900  0.00854  0.19491  1.0000
  H   H1292     1.0  0.95784  0.00540  0.00876  1.0000
  C   C748      1.0  0.98451  0.45855  0.08931  1.0000
  H   H1293     1.0  0.59592  0.09539  0.15957  1.0000
  C   C749      1.0  0.99933  0.35377  0.00973  1.0000
  H   H1294     1.0  0.63627  0.04057  0.18295  1.0000
  C   C750      1.0  0.61157  0.45488  0.98009  1.0000
  C   C751      1.0  0.95401  0.05426  0.01792  1.0000
  H   H1295     1.0  0.53040  0.40605  0.97242  1.0000
  S   S211      1.0  0.98018  0.47416  0.99605  1.0000
  C   C752      1.0  0.00090  0.06947  0.04292  1.0000
  H   H1296     1.0  0.53360  0.04177  0.09782  1.0000
  H   H1297     1.0  0.99566  0.32964  0.01009  1.0000
  H   H1298     1.0  0.65508  0.49636  0.14728  1.0000
  H   H1299     1.0  0.76060  0.43423  0.00937  1.0000
  H   H1300     1.0  0.89148  0.11288  0.97840  1.0000
  H   H1301     1.0  0.78456  0.47611  0.04976  1.0000
  H   H1302     1.0  0.95038  0.47754  0.20968  1.0000
  H   H1303     1.0  0.78069  0.00772  0.08683  1.0000
  H   H1304     1.0  0.87591  0.47907  0.00818  1.0000
  H   H1305     1.0  0.80959  0.00665  0.99164  1.0000
  H   H1306     1.0  0.70123  0.18067  0.20024  1.0000
  H   H1307     1.0  0.71110  0.08742  0.21700  1.0000
  H   H1308     1.0  0.95102  0.40386  0.97235  1.0000
  C   C753      1.0  0.55086  0.45846  0.97139  1.0000
  C   C754      1.0  0.92899  0.49755  0.05023  1.0000
  C   C755      1.0  0.52258  0.01551  0.06596  1.0000
  H   H1309     1.0  0.60500  0.49458  0.15544  1.0000
  H   H1310     1.0  0.97321  0.45022  0.15477  1.0000
  H   H1311     1.0  0.68497  0.09916  0.20676  1.0000
  C   C756      1.0  0.52093  0.04467  0.02028  1.0000
  C   C757      1.0  0.53154  0.44404  0.20166  1.0000
  H   H1312     1.0  0.78457  0.01367  0.00964  1.0000
  C   C758      1.0  0.59785  0.01411  0.01513  1.0000
  H   H1313     1.0  0.94676  0.46376  0.16456  1.0000
  S   S212      1.0  0.72424  0.49741  0.97674  1.0000
  H   H1314     1.0  0.81048  0.22084  0.19191  1.0000
  H   H1315     1.0  0.52441  0.06612  0.01147  1.0000
  C   C759      1.0  0.80013  0.00251  0.08453  1.0000
  C   C760      1.0  0.97539  0.48418  0.20626  1.0000
  H   H1316     1.0  0.69474  0.01574  0.21418  1.0000
  C   C761      1.0  0.85645  0.35105  0.21102  1.0000
  H   H1317     1.0  0.54074  0.47627  0.11929  1.0000
  H   H1318     1.0  0.81456  0.49853  0.08253  1.0000
  C   C762      1.0  0.53067  0.49040  0.12608  1.0000
  C   C763      1.0  0.87153  0.49805  0.00252  1.0000
  H   H1319     1.0  0.51177  0.39632  0.21526  1.0000
  H   H1320     1.0  0.54185  0.49991  0.14274  1.0000
  H   H1321     1.0  0.60197  0.50156  0.01421  1.0000
  H   H1322     1.0  0.97594  0.41325  0.29909  1.0000
  S   S213      1.0  0.71987  0.05416  0.25625  1.0000
  H   H1323     1.0  0.61887  0.07045  0.39567  1.0000
  C   C764      1.0  0.97378  0.36144  0.26043  1.0000
  H   H1324     1.0  0.93457  0.44227  0.23632  1.0000
  Fe  Fe104     1.0  0.61914  0.04879  0.28178  1.0000
  S   S214      1.0  0.84224  0.35154  0.44340  1.0000
  H   H1325     1.0  0.81756  0.29314  0.37017  1.0000
  Fe  Fe105     1.0  0.60115  0.02207  0.43045  1.0000
  S   S215      1.0  0.59970  0.45832  0.25317  1.0000
  C   C765      1.0  0.54449  0.45111  0.27207  1.0000
  H   H1326     1.0  0.56452  0.44212  0.39806  1.0000
  C   C766      1.0  0.55960  0.43672  0.26164  1.0000
  H   H1327     1.0  0.70773  0.03826  0.33474  1.0000
  C   C767      1.0  0.00252  0.38117  0.24930  1.0000
  H   H1328     1.0  0.54658  0.45473  0.36447  1.0000
  C   C768      1.0  0.63523  0.04118  0.38116  1.0000
  S   S216      1.0  0.57360  0.46728  0.44618  1.0000
  S   S217      1.0  0.99293  0.41609  0.44719  1.0000
  C   C769      1.0  0.63362  0.03817  0.34019  1.0000
  H   H1329     1.0  0.71088  0.14563  0.24027  1.0000
  H   H1330     1.0  0.58998  0.47742  0.30733  1.0000
  C   C770      1.0  0.80762  0.14726  0.33124  1.0000
  Fe  Fe106     1.0  0.81719  0.26494  0.28514  1.0000
  S   S218      1.0  0.85767  0.26085  0.29899  1.0000
  S   S219      1.0  0.77509  0.25357  0.30692  1.0000
  Fe  Fe107     1.0  0.84611  0.28121  0.23819  1.0000
  S   S220      1.0  0.88768  0.27631  0.24858  1.0000
  Fe  Fe108     1.0  0.85120  0.23339  0.26728  1.0000
  S   S221      1.0  0.84691  0.18557  0.26795  1.0000
  Fe  Fe109     1.0  0.88903  0.30432  0.27893  1.0000
  S   S222      1.0  0.93021  0.34779  0.29471  1.0000
  S   S223      1.0  0.80988  0.23619  0.25422  1.0000
  S   S224      1.0  0.84865  0.31073  0.26776  1.0000
  C   C771      1.0  0.51359  0.43279  0.28058  1.0000
  H   H1331     1.0  0.55695  0.47620  0.27436  1.0000
  H   H1332     1.0  0.67011  0.13835  0.41039  1.0000
  Fe  Fe110     1.0  0.78323  0.23373  0.42923  1.0000
  S   S225      1.0  0.77309  0.27167  0.41890  1.0000
  S   S226      1.0  0.79061  0.20575  0.40229  1.0000
  C   C772      1.0  0.60401  0.44478  0.33919  1.0000
  S   S227      1.0  0.52888  0.01295  0.46359  1.0000
  Fe  Fe111     1.0  0.73402  0.24918  0.44455  1.0000
  S   S228      1.0  0.68337  0.23673  0.43776  1.0000
  C   C773      1.0  0.88415  0.38344  0.37811  1.0000
  H   H1333     1.0  0.57126  0.15924  0.43003  1.0000
  C   C774      1.0  0.77657  0.23678  0.33271  1.0000
  C   C775      1.0  0.76014  0.23879  0.35130  1.0000
  C   C776      1.0  0.76303  0.22757  0.37244  1.0000
  C   C777      1.0  0.78352  0.21577  0.37532  1.0000
  C   C778      1.0  0.79912  0.21279  0.35656  1.0000
  C   C779      1.0  0.79483  0.22238  0.33517  1.0000
  H   H1334     1.0  0.74578  0.24969  0.34942  1.0000
  H   H1335     1.0  0.74933  0.22799  0.38650  1.0000
  H   H1336     1.0  0.81510  0.20376  0.35864  1.0000
  H   H1337     1.0  0.80563  0.21856  0.32063  1.0000
  C   C780      1.0  0.59737  0.13659  0.43992  1.0000
  C   C781      1.0  0.59422  0.16262  0.43467  1.0000
  C   C782      1.0  0.62063  0.19297  0.43476  1.0000
  C   C783      1.0  0.65074  0.19799  0.44016  1.0000
  C   C784      1.0  0.65394  0.17209  0.44611  1.0000
  C   C785      1.0  0.62734  0.14145  0.44597  1.0000
  H   H1338     1.0  0.58727  0.48296  0.36791  1.0000
  H   H1339     1.0  0.61774  0.21268  0.43023  1.0000
  C   C786      1.0  0.96433  0.37274  0.27870  1.0000
  C   C787      1.0  0.88408  0.36924  0.44521  1.0000
  C   C788      1.0  0.95110  0.39910  0.44685  1.0000
  H   H1340     1.0  0.63022  0.12166  0.44996  1.0000
  H   H1341     1.0  0.83091  0.27382  0.39931  1.0000
  H   H1342     1.0  0.80692  0.13105  0.31799  1.0000
  C   C789      1.0  0.89896  0.35137  0.44705  1.0000
  C   C790      1.0  0.93223  0.36622  0.44774  1.0000
  H   H1343     1.0  0.63708  0.02852  0.32494  1.0000
  H   H1344     1.0  0.86837  0.32982  0.40491  1.0000
  H   H1345     1.0  0.88488  0.32609  0.44766  1.0000
  C   C791      1.0  0.53224  0.01505  0.34995  1.0000
  H   H1346     1.0  0.57989  0.12852  0.38685  1.0000
  H   H1347     1.0  0.90533  0.29494  0.33590  1.0000
  C   C792      1.0  0.78083  0.14849  0.26476  1.0000
  C   C793      1.0  0.81040  0.15008  0.26479  1.0000
  C   C794      1.0  0.81135  0.12232  0.26253  1.0000
  H   H1348     1.0  0.86916  0.31534  0.33325  1.0000
  H   H1349     1.0  0.63276  0.15670  0.40092  1.0000
  H   H1350     1.0  0.77966  0.16965  0.26687  1.0000
  H   H1351     1.0  0.83394  0.12316  0.26264  1.0000
  C   C795      1.0  0.65315  0.16306  0.34535  1.0000
  H   H1352     1.0  0.52249  0.39417  0.35621  1.0000
  C   C796      1.0  0.56762  0.49723  0.32702  1.0000
  S   S229      1.0  0.63297  0.01165  0.28048  1.0000
  H   H1353     1.0  0.51860  0.39389  0.45538  1.0000
  H   H1354     1.0  0.54886  0.38463  0.34076  1.0000
  C   C797      1.0  0.54793  0.42643  0.32827  1.0000
  H   H1355     1.0  0.59749  0.42283  0.34852  1.0000
  C   C798      1.0  0.98335  0.40422  0.28522  1.0000
  C   C799      1.0  0.97728  0.44011  0.22559  1.0000
  Fe  Fe112     1.0  0.66966  0.04488  0.25593  1.0000
  Fe  Fe113     1.0  0.62319  0.05783  0.23086  1.0000
  C   C800      1.0  0.90471  0.30935  0.35007  1.0000
  H   H1356     1.0  0.62493  0.46360  0.34833  1.0000
  H   H1357     1.0  0.63492  0.20642  0.38465  1.0000
  H   H1358     1.0  0.78485  0.07233  0.25799  1.0000
  C   C801      1.0  0.70690  0.16386  0.23260  1.0000
  H   H1359     1.0  0.97770  0.38229  0.36589  1.0000
  N   N57       1.0  0.57745  0.45207  0.33926  1.0000
  H   H1360     1.0  0.59688  0.42261  0.30543  1.0000
  H   H1361     1.0  0.53904  0.01918  0.30493  1.0000
  C   C802      1.0  0.62308  0.06148  0.38020  1.0000
  H   H1362     1.0  0.92419  0.33358  0.34703  1.0000
  Fe  Fe114     1.0  0.56439  0.05381  0.44270  1.0000
  C   C803      1.0  0.87221  0.30746  0.35027  1.0000
  H   H1363     1.0  0.70462  0.17709  0.40778  1.0000
  S   S230      1.0  0.56354  0.09879  0.43697  1.0000
  C   C804      1.0  0.61563  0.06958  0.35931  1.0000
  H   H1364     1.0  0.54091  0.01788  0.36762  1.0000
  H   H1365     1.0  0.67688  0.17546  0.45037  1.0000
  H   H1366     1.0  0.67289  0.17722  0.31164  1.0000
  H   H1367     1.0  0.90341  0.40781  0.37479  1.0000
  H   H1368     1.0  0.60034  0.44780  0.38576  1.0000
  H   H1369     1.0  0.88397  0.37946  0.39655  1.0000
  H   H1370     1.0  0.83061  0.15656  0.34020  1.0000
  H   H1371     1.0  0.63541  0.16996  0.34086  1.0000
  C   C805      1.0  0.89045  0.36053  0.36441  1.0000
  C   C806      1.0  0.98486  0.39966  0.35194  1.0000
  H   H1372     1.0  0.86094  0.26812  0.38595  1.0000
  H   H1373     1.0  0.80273  0.33085  0.34946  1.0000
  C   C807      1.0  0.87455  0.31793  0.39163  1.0000
  H   H1374     1.0  0.91509  0.36649  0.36850  1.0000
  H   H1375     1.0  0.67098  0.24168  0.37944  1.0000
  C   C808      1.0  0.75395  0.09163  0.25965  1.0000
  H   H1376     1.0  0.92917  0.40349  0.23508  1.0000
  C   C809      1.0  0.85663  0.28286  0.39788  1.0000
  S   S231      1.0  0.60962  0.06755  0.31359  1.0000
  H   H1377     1.0  0.82795  0.32914  0.38253  1.0000
  H   H1378     1.0  0.84130  0.34941  0.33810  1.0000
  C   C810      1.0  0.53246  0.39394  0.33945  1.0000
  N   N58       1.0  0.74744  0.11221  0.33878  1.0000
  C   C811      1.0  0.78040  0.13082  0.34853  1.0000
  C   C812      1.0  0.72455  0.10138  0.35833  1.0000
  C   C813      1.0  0.74195  0.13419  0.32416  1.0000
  C   C814      1.0  0.74559  0.08549  0.32507  1.0000
  N   N59       1.0  0.86774  0.32615  0.36852  1.0000
  C   C815      1.0  0.72949  0.08170  0.37646  1.0000
  C   C816      1.0  0.70907  0.12076  0.31318  1.0000
  C   C817      1.0  0.71246  0.05641  0.32178  1.0000
  H   H1379     1.0  0.78193  0.14897  0.36047  1.0000
  H   H1380     1.0  0.78636  0.11554  0.35882  1.0000
  H   H1381     1.0  0.69967  0.08741  0.35267  1.0000
  H   H1382     1.0  0.72582  0.12195  0.36716  1.0000
  H   H1383     1.0  0.74635  0.15522  0.33406  1.0000
  H   H1384     1.0  0.75888  0.14314  0.30983  1.0000
  H   H1385     1.0  0.75611  0.09386  0.30802  1.0000
  H   H1386     1.0  0.76004  0.07646  0.33325  1.0000
  C   C818      1.0  0.61584  0.44135  0.31576  1.0000
  H   H1387     1.0  0.85354  0.28229  0.35112  1.0000
  H   H1388     1.0  0.52756  0.49258  0.23808  1.0000
  H   H1389     1.0  0.75000  0.09672  0.38749  1.0000
  H   H1390     1.0  0.70836  0.07039  0.38762  1.0000
  H   H1391     1.0  0.73268  0.06285  0.36907  1.0000
  H   H1392     1.0  0.70818  0.13988  0.30383  1.0000
  H   H1393     1.0  0.68953  0.11155  0.32563  1.0000
  H   H1394     1.0  0.70500  0.10276  0.30037  1.0000
  H   H1395     1.0  0.55277  0.42324  0.31048  1.0000
  H   H1396     1.0  0.69288  0.06136  0.32124  1.0000
  H   H1397     1.0  0.52912  0.43281  0.32758  1.0000
  N   N60       1.0  0.66030  0.16659  0.37036  1.0000
  C   C819      1.0  0.68319  0.15501  0.37494  1.0000
  C   C820      1.0  0.78346  0.09344  0.25989  1.0000
  C   C821      1.0  0.67568  0.20033  0.37776  1.0000
  C   C822      1.0  0.69127  0.15350  0.40004  1.0000
  H   H1398     1.0  0.59883  0.16248  0.36928  1.0000
  H   H1399     1.0  0.67391  0.13106  0.36780  1.0000
  H   H1400     1.0  0.70629  0.17014  0.36657  1.0000
  H   H1401     1.0  0.97960  0.41905  0.22303  1.0000
  H   H1402     1.0  0.64229  0.13794  0.34036  1.0000
  H   H1403     1.0  0.62699  0.12282  0.38709  1.0000
  H   H1404     1.0  0.69874  0.21452  0.36924  1.0000
  C   C823      1.0  0.54283  0.40408  0.25862  1.0000
  H   H1405     1.0  0.70698  0.14326  0.40110  1.0000
  C   C824      1.0  0.65644  0.21685  0.37400  1.0000
  H   H1406     1.0  0.59175  0.12507  0.35900  1.0000
  H   H1407     1.0  0.70007  0.17572  0.33084  1.0000
  C   C825      1.0  0.51161  0.38583  0.26658  1.0000
  C   C826      1.0  0.57489  0.43898  0.38230  1.0000
  Fe  Fe115     1.0  0.53112  0.46671  0.43064  1.0000
  H   H1408     1.0  0.72996  0.11806  0.26245  1.0000
  C   C827      1.0  0.75262  0.11924  0.26233  1.0000
  S   S232      1.0  0.64004  0.02739  0.40733  1.0000
  C   C828      1.0  0.82300  0.32726  0.34582  1.0000
  C   C829      1.0  0.83384  0.31873  0.36793  1.0000
  H   H1409     1.0  0.62720  0.46372  0.30616  1.0000
  H   H1410     1.0  0.74737  0.13960  0.21990  1.0000
  H   H1411     1.0  0.60494  0.08413  0.35867  1.0000
  S   S233      1.0  0.60719  0.05579  0.45798  1.0000
  C   C830      1.0  0.63052  0.14659  0.38390  1.0000
  C   C831      1.0  0.64118  0.03005  0.36111  1.0000
  H   H1412     1.0  0.90928  0.29995  0.36576  1.0000
  H   H1413     1.0  0.80789  0.16773  0.32317  1.0000
  H   H1414     1.0  0.69192  0.20780  0.33182  1.0000
  S   S234      1.0  0.65769  0.08287  0.25893  1.0000
  C   C832      1.0  0.59872  0.14071  0.37394  1.0000
  H   H1415     1.0  0.63434  0.43478  0.31817  1.0000
  H   H1416     1.0  0.81562  0.30832  0.33315  1.0000
  H   H1417     1.0  0.86166  0.38220  0.37308  1.0000
  C   C833      1.0  0.68146  0.18219  0.32939  1.0000
  H   H1418     1.0  0.68120  0.20259  0.39611  1.0000
  H   H1419     1.0  0.90027  0.32668  0.39397  1.0000
  H   H1420     1.0  0.89136  0.36667  0.34619  1.0000
  C   C834      1.0  0.62077  0.05790  0.33927  1.0000
  H   H1421     1.0  0.65030  0.21706  0.35600  1.0000
  H   H1422     1.0  0.86476  0.27983  0.41475  1.0000
  H   H1423     1.0  0.56317  0.41357  0.37901  1.0000
  H   H1424     1.0  0.71200  0.04527  0.30539  1.0000
  H   H1425     1.0  0.95171  0.43021  0.25755  1.0000
  H   H1426     1.0  0.54322  0.48175  0.32082  1.0000
  C   C835      1.0  0.57086  0.45810  0.36313  1.0000
  S   S235      1.0  0.74279  0.21022  0.45336  1.0000
  H   H1427     1.0  0.96726  0.38773  0.33824  1.0000
  H   H1428     1.0  0.95952  0.33718  0.25541  1.0000
  H   H1429     1.0  0.98209  0.41947  0.35752  1.0000
  S   S236      1.0  0.63792  0.02214  0.22614  1.0000
  H   H1430     1.0  0.99989  0.45553  0.33024  1.0000
  Fe  Fe116     1.0  0.80605  0.29939  0.44712  1.0000
  S   S237      1.0  0.58291  0.02781  0.25404  1.0000
  C   C836      1.0  0.93623  0.41701  0.44527  1.0000
  H   H1431     1.0  0.55428  0.39275  0.25049  1.0000
  C   C837      1.0  0.58830  0.48167  0.32559  1.0000
  S   S238      1.0  0.55997  0.02221  0.41395  1.0000
  H   H1432     1.0  0.54541  0.45317  0.21753  1.0000
  C   C838      1.0  0.51089  0.02981  0.34891  1.0000
  C   C839      1.0  0.90289  0.40211  0.44439  1.0000
  H   H1433     1.0  0.99787  0.45518  0.23664  1.0000
  H   H1434     1.0  0.92657  0.34770  0.22288  1.0000
  H   H1435     1.0  0.68435  0.16057  0.23963  1.0000
  H   H1436     1.0  0.55378  0.03030  0.34000  1.0000
  H   H1437     1.0  0.76685  0.19323  0.21775  1.0000
  H   H1438     1.0  0.65030  0.01408  0.36182  1.0000
  C   C840      1.0  0.94634  0.42838  0.23919  1.0000
  S   S239      1.0  0.81852  0.26265  0.45613  1.0000
  H   H1439     1.0  0.94349  0.35214  0.44895  1.0000
  H   H1440     1.0  0.95040  0.44230  0.44451  1.0000
  H   H1441     1.0  0.55201  0.39009  0.46241  1.0000
  H   H1442     1.0  0.99012  0.49701  0.24183  1.0000
  H   H1443     1.0  0.85432  0.34477  0.22862  1.0000
  H   H1444     1.0  0.61256  0.49976  0.33074  1.0000
  H   H1445     1.0  0.89164  0.41617  0.44294  1.0000
  H   H1446     1.0  0.72580  0.18745  0.23799  1.0000
  H   H1447     1.0  0.52417  0.05392  0.35595  1.0000
  H   H1448     1.0  0.86539  0.39788  0.21767  1.0000
  H   H1449     1.0  0.51223  0.37727  0.32877  1.0000
  S   S240      1.0  0.53121  0.50162  0.45526  1.0000
  H   H1450     1.0  0.67414  0.08241  0.54527  1.0000
  C   C841      1.0  0.59523  0.48372  0.54332  1.0000
  H   H1451     1.0  0.73404  0.10827  0.71210  1.0000
  C   C842      1.0  0.51438  0.20750  0.70884  1.0000
  C   C843      1.0  0.73859  0.25357  0.70776  1.0000
  H   H1452     1.0  0.69175  0.06463  0.66280  1.0000
  C   C844      1.0  0.70404  0.08985  0.65778  1.0000
  Fe  Fe117     1.0  0.65428  0.21185  0.60429  1.0000
  S   S241      1.0  0.60256  0.17699  0.60697  1.0000
  S   S242      1.0  0.66994  0.23929  0.57187  1.0000
  Fe  Fe118     1.0  0.66751  0.19694  0.65121  1.0000
  S   S243      1.0  0.61686  0.16036  0.65766  1.0000
  S   S244      1.0  0.70641  0.20795  0.67615  1.0000
  Fe  Fe119     1.0  0.61804  0.14498  0.62211  1.0000
  S   S245      1.0  0.59828  0.09709  0.60620  1.0000
  Fe  Fe120     1.0  0.60644  0.19600  0.64190  1.0000
  S   S246      1.0  0.56869  0.20494  0.65605  1.0000
  S   S247      1.0  0.66963  0.17873  0.61693  1.0000
  S   S248      1.0  0.65706  0.23364  0.63809  1.0000
  H   H1453     1.0  0.55366  0.19857  0.71006  1.0000
  H   H1454     1.0  0.72413  0.35759  0.71365  1.0000
  S   S249      1.0  0.54636  0.31631  0.62716  1.0000
  C   C845      1.0  0.62068  0.45398  0.51788  1.0000
  C   C846      1.0  0.65655  0.46416  0.69291  1.0000
  S   S250      1.0  0.63397  0.45916  0.61711  1.0000
  C   C847      1.0  0.60969  0.47209  0.50703  1.0000
  H   H1455     1.0  0.87079  0.30247  0.48773  1.0000
  Fe  Fe121     1.0  0.57201  0.01305  0.47703  1.0000
  H   H1456     1.0  0.58382  0.48155  0.68740  1.0000
  H   H1457     1.0  0.66360  0.12154  0.56406  1.0000
  C   C848      1.0  0.90321  0.38612  0.52791  1.0000
  H   H1458     1.0  0.71571  0.16290  0.49489  1.0000
  H   H1459     1.0  0.87978  0.34152  0.54425  1.0000
  H   H1460     1.0  0.68887  0.11973  0.64032  1.0000
  H   H1461     1.0  0.69862  0.38708  0.66634  1.0000
  H   H1462     1.0  0.73227  0.36799  0.68497  1.0000
  H   H1463     1.0  0.76910  0.12515  0.65600  1.0000
  H   H1464     1.0  0.79961  0.29895  0.52204  1.0000
  H   H1465     1.0  0.64486  0.06470  0.56654  1.0000
  H   H1466     1.0  0.54219  0.42783  0.68574  1.0000
  H   H1467     1.0  0.63832  0.15896  0.51899  1.0000
  H   H1468     1.0  0.58414  0.07219  0.53452  1.0000
  C   C849      1.0  0.75743  0.08041  0.67057  1.0000
  Fe  Fe122     1.0  0.58358  0.43281  0.62882  1.0000
  H   H1469     1.0  0.52261  0.43088  0.71021  1.0000
  H   H1470     1.0  0.66186  0.07869  0.63836  1.0000
  H   H1471     1.0  0.74035  0.15298  0.65743  1.0000
  C   C850      1.0  0.54983  0.21879  0.71239  1.0000
  H   H1472     1.0  0.70215  0.42015  0.70152  1.0000
  H   H1473     1.0  0.63257  0.05870  0.53780  1.0000
  C   C851      1.0  0.59739  0.06505  0.62028  1.0000
  C   C852      1.0  0.59618  0.04067  0.60735  1.0000
  C   C853      1.0  0.51268  0.41867  0.52279  1.0000
  H   H1474     1.0  0.80379  0.00539  0.66595  1.0000
  C   C854      1.0  0.59349  0.03565  0.65436  1.0000
  C   C855      1.0  0.59634  0.06266  0.64388  1.0000
  H   H1475     1.0  0.59638  0.04207  0.58911  1.0000
  H   H1476     1.0  0.62701  0.11559  0.49669  1.0000
  H   H1477     1.0  0.59197  0.03351  0.67258  1.0000
  H   H1478     1.0  0.59710  0.08125  0.65400  1.0000
  C   C856      1.0  0.56606  0.23720  0.64575  1.0000
  C   C857      1.0  0.53871  0.23134  0.63410  1.0000
  H   H1479     1.0  0.55318  0.09079  0.67777  1.0000
  C   C858      1.0  0.55595  0.28703  0.63369  1.0000
  C   C859      1.0  0.58368  0.29323  0.64516  1.0000
  C   C860      1.0  0.58866  0.26826  0.65129  1.0000
  H   H1480     1.0  0.53117  0.44344  0.51949  1.0000
  C   C861      1.0  0.57240  0.49667  0.63798  1.0000
  H   H1481     1.0  0.60078  0.31705  0.64982  1.0000
  H   H1482     1.0  0.60951  0.27289  0.66081  1.0000
  C   C862      1.0  0.69804  0.23474  0.55636  1.0000
  C   C863      1.0  0.70027  0.24001  0.53301  1.0000
  C   C864      1.0  0.72272  0.23691  0.52027  1.0000
  C   C865      1.0  0.74380  0.22951  0.53085  1.0000
  C   C866      1.0  0.74108  0.22349  0.55414  1.0000
  C   C867      1.0  0.71821  0.22606  0.56688  1.0000
  H   H1483     1.0  0.68436  0.24615  0.52468  1.0000
  H   H1484     1.0  0.63434  0.44907  0.68462  1.0000
  H   H1485     1.0  0.75710  0.21748  0.56243  1.0000
  H   H1486     1.0  0.71686  0.22222  0.58492  1.0000
  C   C868      1.0  0.65736  0.32617  0.54243  1.0000
  C   C869      1.0  0.87281  0.35840  0.53789  1.0000
  N   N61       1.0  0.64890  0.12287  0.52974  1.0000
  H   H1487     1.0  0.64656  0.34129  0.54327  1.0000
  C   C870      1.0  0.53237  0.40094  0.49168  1.0000
  C   C871      1.0  0.70329  0.39821  0.70298  1.0000
  N   N62       1.0  0.51327  0.08518  0.65802  1.0000
  H   H1488     1.0  0.69997  0.14686  0.53307  1.0000
  C   C872      1.0  0.75996  0.43392  0.69324  1.0000
  C   C873      1.0  0.68803  0.26362  0.71598  1.0000
  C   C874      1.0  0.86039  0.49880  0.71484  1.0000
  C   C875      1.0  0.71036  0.23654  0.69561  1.0000
  C   C876      1.0  0.85216  0.33089  0.50107  1.0000
  H   H1489     1.0  0.74111  0.06463  0.65737  1.0000
  H   H1490     1.0  0.53495  0.50003  0.69205  1.0000
  H   H1491     1.0  0.66313  0.22839  0.69052  1.0000
  H   H1492     1.0  0.88567  0.31723  0.51504  1.0000
  S   S251      1.0  0.63124  0.42676  0.55478  1.0000
  C   C877      1.0  0.82100  0.00943  0.67958  1.0000
  H   H1493     1.0  0.54440  0.26538  0.68960  1.0000
  H   H1494     1.0  0.75022  0.15937  0.70933  1.0000
  H   H1495     1.0  0.60184  0.12998  0.55428  1.0000
  S   S252      1.0  0.77435  0.22898  0.51540  1.0000
  H   H1496     1.0  0.67037  0.17231  0.53815  1.0000
  C   C878      1.0  0.83628  0.36736  0.51537  1.0000
  H   H1497     1.0  0.85537  0.38606  0.50492  1.0000
  H   H1498     1.0  0.68400  0.11288  0.51559  1.0000
  H   H1499     1.0  0.71697  0.09116  0.64193  1.0000
  C   C879      1.0  0.51978  0.11820  0.66200  1.0000
  H   H1500     1.0  0.63745  0.15158  0.57068  1.0000
  C   C880      1.0  0.60599  0.46547  0.55414  1.0000
  C   C881      1.0  0.68447  0.46625  0.68488  1.0000
  H   H1501     1.0  0.78083  0.17269  0.68792  1.0000
  C   C882      1.0  0.74009  0.37727  0.70225  1.0000
  H   H1502     1.0  0.80023  0.27844  0.55857  1.0000
  H   H1503     1.0  0.68769  0.11829  0.70918  1.0000
  C   C883      1.0  0.68135  0.13332  0.52016  1.0000
  C   C884      1.0  0.62584  0.15078  0.55435  1.0000
  H   H1504     1.0  0.75404  0.40671  0.66175  1.0000
  H   H1505     1.0  0.54093  0.38902  0.50331  1.0000
  H   H1506     1.0  0.51288  0.43347  0.47333  1.0000
  C   C885      1.0  0.64969  0.07631  0.54975  1.0000
  C   C886      1.0  0.82302  0.29862  0.55294  1.0000
  S   S253      1.0  0.59071  0.40264  0.65409  1.0000
  C   C887      1.0  0.68504  0.09470  0.70773  1.0000
  C   C888      1.0  0.71316  0.48580  0.69585  1.0000
  H   H1507     1.0  0.54464  0.13560  0.65733  1.0000
  C   C889      1.0  0.59269  0.01143  0.64136  1.0000
  C   C890      1.0  0.68564  0.37775  0.68234  1.0000
  C   C891      1.0  0.56943  0.47217  0.70306  1.0000
  H   H1508     1.0  0.65821  0.32087  0.52429  1.0000
  C   C892      1.0  0.52280  0.09881  0.61533  1.0000
  H   H1509     1.0  0.72340  0.23999  0.50222  1.0000
  H   H1510     1.0  0.80105  0.37532  0.49886  1.0000
  H   H1511     1.0  0.68702  0.17429  0.50027  1.0000
  N   N63       1.0  0.72682  0.11029  0.67608  1.0000
  C   C893      1.0  0.75824  0.11214  0.67197  1.0000
  C   C894      1.0  0.73217  0.14321  0.67470  1.0000
  H   H1512     1.0  0.74216  0.43602  0.65955  1.0000
  C   C895      1.0  0.71530  0.09592  0.69911  1.0000
  H   H1513     1.0  0.78318  0.44653  0.66053  1.0000
  H   H1514     1.0  0.75580  0.45382  0.69614  1.0000
  H   H1515     1.0  0.58303  0.10556  0.52222  1.0000
  S   S254      1.0  0.68388  0.44387  0.66166  1.0000
  H   H1516     1.0  0.79084  0.40036  0.69320  1.0000
  H   H1517     1.0  0.77545  0.12547  0.68565  1.0000
  H   H1518     1.0  0.62320  0.17189  0.55377  1.0000
  H   H1519     1.0  0.58292  0.32904  0.57000  1.0000
  C   C896      1.0  0.67838  0.09744  0.65002  1.0000
  C   C897      1.0  0.53033  0.08554  0.63664  1.0000
  H   H1520     1.0  0.64980  0.28107  0.55323  1.0000
  C   C898      1.0  0.52015  0.04095  0.67584  1.0000
  H   H1521     1.0  0.51775  0.15047  0.68588  1.0000
  H   H1522     1.0  0.56509  0.23674  0.69986  1.0000
  H   H1523     1.0  0.78453  0.33637  0.50955  1.0000
  C   C899      1.0  0.52536  0.40625  0.54172  1.0000
  H   H1524     1.0  0.53072  0.03644  0.66080  1.0000
  S   S255      1.0  0.76544  0.28199  0.47164  1.0000
  H   H1525     1.0  0.55642  0.09958  0.63919  1.0000
  H   H1526     1.0  0.53090  0.03630  0.69087  1.0000
  N   N64       1.0  0.84463  0.34283  0.52223  1.0000
  H   H1527     1.0  0.87583  0.49569  0.70336  1.0000
  C   C900      1.0  0.81637  0.31663  0.53432  1.0000
  H   H1528     1.0  0.83797  0.28904  0.54716  1.0000
  H   H1529     1.0  0.80240  0.32570  0.54309  1.0000
  H   H1530     1.0  0.83101  0.31886  0.49000  1.0000
  C   C901      1.0  0.80573  0.35565  0.50129  1.0000
  N   N65       1.0  0.73700  0.40573  0.70686  1.0000
  H   H1531     1.0  0.83380  0.37924  0.53060  1.0000
  H   H1532     1.0  0.91178  0.37929  0.51282  1.0000
  H   H1533     1.0  0.62248  0.09720  0.55958  1.0000
  H   H1534     1.0  0.52087  0.20748  0.63014  1.0000
  H   H1535     1.0  0.84296  0.03186  0.67575  1.0000
  C   C902      1.0  0.58982  0.08751  0.51947  1.0000
  C   C903      1.0  0.59446  0.01424  0.61784  1.0000
  S   S256      1.0  0.55376  0.45533  0.63582  1.0000
  C   C904      1.0  0.75629  0.16712  0.69156  1.0000
  C   C905      1.0  0.64583  0.10546  0.55151  1.0000
  Fe  Fe123     1.0  0.77610  0.24366  0.47911  1.0000
  H   H1536     1.0  0.66271  0.37720  0.68042  1.0000
  H   H1537     1.0  0.57471  0.07238  0.50547  1.0000
  H   H1538     1.0  0.52979  0.42087  0.55706  1.0000
  H   H1539     1.0  0.80841  0.34830  0.48418  1.0000
  H   H1540     1.0  0.86656  0.36719  0.55325  1.0000
  H   H1541     1.0  0.57090  0.21952  0.58697  1.0000
  H   H1542     1.0  0.71019  0.07129  0.69941  1.0000
  C   C906      1.0  0.64661  0.15191  0.53430  1.0000
  H   H1543     1.0  0.53485  0.12912  0.69755  1.0000
  H   H1544     1.0  0.67991  0.35312  0.68480  1.0000
  H   H1545     1.0  0.75625  0.18956  0.68991  1.0000
  H   H1546     1.0  0.75818  0.24965  0.70467  1.0000
  C   C907      1.0  0.68512  0.24170  0.69966  1.0000
  H   H1547     1.0  0.63060  0.44251  0.50803  1.0000
  Fe  Fe124     1.0  0.61893  0.42048  0.59173  1.0000
  C   C908      1.0  0.61865  0.45048  0.54144  1.0000
  H   H1548     1.0  0.87010  0.35076  0.49083  1.0000
  H   H1549     1.0  0.60436  0.46291  0.57232  1.0000
  H   H1550     1.0  0.62869  0.08281  0.50726  1.0000
  C   C909      1.0  0.62469  0.10224  0.51245  1.0000
  H   H1551     1.0  0.61133  0.47472  0.48886  1.0000
  H   H1552     1.0  0.66416  0.09866  0.66406  1.0000
  H   H1553     1.0  0.83393  0.31352  0.56805  1.0000
  H   H1554     1.0  0.75122  0.06806  0.68702  1.0000
  Fe  Fe125     1.0  0.64026  0.42653  0.64029  1.0000
  S   S257      1.0  0.56794  0.39639  0.60152  1.0000
  C   C910      1.0  0.86413  0.30763  0.50442  1.0000
  C   C911      1.0  0.69023  0.15368  0.49856  1.0000
  H   H1555     1.0  0.77294  0.35976  0.70038  1.0000
  H   H1556     1.0  0.90029  0.40650  0.52388  1.0000
  H   H1557     1.0  0.66437  0.07926  0.69708  1.0000
  H   H1558     1.0  0.92236  0.39433  0.54076  1.0000
  H   H1559     1.0  0.84532  0.28502  0.51132  1.0000
  C   C912      1.0  0.59670  0.48674  0.51977  1.0000
  H   H1560     1.0  0.67683  0.13969  0.48365  1.0000
  S   S258      1.0  0.63027  0.39024  0.61373  1.0000
  H   H1561     1.0  0.78147  0.08484  0.66629  1.0000
  C   C913      1.0  0.65733  0.48135  0.71200  1.0000
  Fe  Fe126     1.0  0.58025  0.36870  0.62563  1.0000
  H   H1562     1.0  0.58536  0.49517  0.55325  1.0000
  C   C914      1.0  0.75927  0.43016  0.66737  1.0000
  H   H1563     1.0  0.52428  0.45167  0.68435  1.0000
  H   H1564     1.0  0.70988  0.14366  0.67727  1.0000
  N   N66       1.0  0.63214  0.29787  0.58006  1.0000
  C   C915      1.0  0.66406  0.31349  0.59161  1.0000
  C   C916      1.0  0.63773  0.29503  0.55532  1.0000
  C   C917      1.0  0.61235  0.26575  0.59051  1.0000
  C   C918      1.0  0.61728  0.31791  0.58398  1.0000
  C   C919      1.0  0.66368  0.31563  0.61766  1.0000
  C   C920      1.0  0.58539  0.24032  0.57612  1.0000
  C   C921      1.0  0.58563  0.30806  0.57200  1.0000
  H   H1565     1.0  0.67721  0.30104  0.58743  1.0000
  H   H1566     1.0  0.67909  0.33799  0.58556  1.0000
  H   H1567     1.0  0.61530  0.28177  0.54579  1.0000
  H   H1568     1.0  0.62738  0.25549  0.59529  1.0000
  H   H1569     1.0  0.60151  0.26742  0.60650  1.0000
  H   H1570     1.0  0.61228  0.31839  0.60223  1.0000
  H   H1571     1.0  0.63396  0.34304  0.58006  1.0000
  H   H1572     1.0  0.68837  0.32637  0.62402  1.0000
  H   H1573     1.0  0.65439  0.33089  0.62339  1.0000
  H   H1574     1.0  0.65027  0.29230  0.62581  1.0000
  H   H1575     1.0  0.68223  0.33923  0.54835  1.0000
  H   H1576     1.0  0.53701  0.09791  0.60101  1.0000
  H   H1577     1.0  0.59500  0.23235  0.56227  1.0000
  H   H1578     1.0  0.56932  0.24792  0.56913  1.0000
  H   H1579     1.0  0.56541  0.29035  0.58215  1.0000
  H   H1580     1.0  0.58429  0.29930  0.55465  1.0000
  H   H1581     1.0  0.55217  0.42555  0.49009  1.0000
  C   C922      1.0  0.53750  0.44422  0.69559  1.0000
  H   H1582     1.0  0.51852  0.07752  0.69365  1.0000
  H   H1583     1.0  0.78482  0.44337  0.69913  1.0000
  H   H1584     1.0  0.81220  0.01321  0.69586  1.0000
  C   C923      1.0  0.53375  0.25605  0.62808  1.0000
  H   H1585     1.0  0.52871  0.49675  0.63319  1.0000
  H   H1586     1.0  0.66300  0.00597  0.71234  1.0000
  C   C924      1.0  0.52701  0.07508  0.67693  1.0000
  H   H1587     1.0  0.52528  0.06160  0.63205  1.0000
  C   C925      1.0  0.77362  0.38201  0.70474  1.0000
  S   S259      1.0  0.57258  0.00882  0.51483  1.0000
  H   H1588     1.0  0.51218  0.25102  0.61938  1.0000
  H   H1589     1.0  0.52915  0.30203  0.69446  1.0000
  H   H1590     1.0  0.52054  0.35864  0.63446  1.0000
  H   H1591     1.0  0.51140  0.23955  0.67380  1.0000
  C   C926      1.0  0.51812  0.25334  0.68972  1.0000
  H   H1592     1.0  0.54844  0.40844  0.53734  1.0000
  C   C927      1.0  0.51570  0.12702  0.68625  1.0000
  N   N67       1.0  0.56772  0.49782  0.71573  1.0000
  C   C928      1.0  0.50980  0.27968  0.68748  1.0000
  H   H1593     1.0  0.73488  0.48788  0.68952  1.0000
  C   C929      1.0  0.68386  0.00443  0.70863  1.0000
  H   H1594     1.0  0.52951  0.12376  0.61732  1.0000
  H   H1595     1.0  0.58200  0.46256  0.71298  1.0000
  H   H1596     1.0  0.91096  0.06725  0.71511  1.0000
  C   C930      1.0  0.52839  0.38503  0.46848  1.0000
  H   H1597     1.0  0.51346  0.35918  0.46970  1.0000
  C   C931      1.0  0.73782  0.01844  0.71715  1.0000
  S   S260      1.0  0.79537  0.10255  0.72793  1.0000
  S   S261      1.0  0.74505  0.46298  0.93806  1.0000
  H   H1598     1.0  0.78961  0.45213  0.82760  1.0000
  H   H1599     1.0  0.51582  0.05492  0.73351  1.0000
  Fe  Fe127     1.0  0.52875  0.03819  0.94209  1.0000
  C   C932      1.0  0.85571  0.42376  0.86790  1.0000
  H   H1600     1.0  0.75360  0.17401  0.80758  1.0000
  H   H1601     1.0  0.87398  0.07441  0.83316  1.0000
  H   H1602     1.0  0.55789  0.45091  0.74564  1.0000
  S   S262      1.0  0.92235  0.46264  0.94457  1.0000
  C   C933      1.0  0.62397  0.49608  0.92214  1.0000
  H   H1603     1.0  0.91464  0.34596  0.82475  1.0000
  Fe  Fe128     1.0  0.80581  0.37821  0.80292  1.0000
  S   S263      1.0  0.85169  0.39479  0.78492  1.0000
  S   S264      1.0  0.80821  0.40028  0.83658  1.0000
  S   S265      1.0  0.78642  0.32746  0.79458  1.0000
  S   S266      1.0  0.78196  0.38717  0.77379  1.0000
  Fe  Fe129     1.0  0.81141  0.10141  0.79114  1.0000
  S   S267      1.0  0.84922  0.13366  0.76688  1.0000
  S   S268      1.0  0.82380  0.10187  0.82778  1.0000
  Fe  Fe130     1.0  0.76156  0.07375  0.75508  1.0000
  H   H1604     1.0  0.86739  0.26790  0.79359  1.0000
  Fe  Fe131     1.0  0.96210  0.03133  0.93710  1.0000
  Fe  Fe132     1.0  0.82904  0.09052  0.74501  1.0000
  H   H1605     1.0  0.82362  0.45461  0.79867  1.0000
  Fe  Fe133     1.0  0.81163  0.14258  0.75241  1.0000
  S   S269      1.0  0.82783  0.07022  0.96581  1.0000
  S   S270      1.0  0.79359  0.05813  0.77001  1.0000
  S   S271      1.0  0.77556  0.11390  0.77875  1.0000
  C   C934      1.0  0.87488  0.39299  0.88730  1.0000
  C   C935      1.0  0.84509  0.28175  0.76816  1.0000
  C   C936      1.0  0.71776  0.24507  0.79627  1.0000
  H   H1606     1.0  0.89213  0.44207  0.89330  1.0000
  C   C937      1.0  0.82481  0.22193  0.74926  1.0000
  C   C938      1.0  0.81734  0.24304  0.73880  1.0000
  S   S272      1.0  0.99903  0.03613  0.91197  1.0000
  C   C939      1.0  0.87601  0.42161  0.88368  1.0000
  Fe  Fe134     1.0  0.70444  0.44978  0.96142  1.0000
  H   H1607     1.0  0.81038  0.46305  0.75874  1.0000
  H   H1608     1.0  0.83113  0.01554  0.81073  1.0000
  H   H1609     1.0  0.77923  0.45325  0.89249  1.0000
  H   H1610     1.0  0.76080  0.46262  0.82003  1.0000
  C   C940      1.0  0.84894  0.47007  0.80285  1.0000
  C   C941      1.0  0.51815  0.25223  0.73099  1.0000
  C   C942      1.0  0.80468  0.03593  0.87529  1.0000
  C   C943      1.0  0.81770  0.06447  0.86361  1.0000
  C   C944      1.0  0.80863  0.06539  0.84131  1.0000
  C   C945      1.0  0.78697  0.03747  0.83056  1.0000
  H   H1611     1.0  0.94779  0.42224  0.79580  1.0000
  H   H1612     1.0  0.81153  0.03553  0.89264  1.0000
  H   H1613     1.0  0.83436  0.08597  0.87207  1.0000
  H   H1614     1.0  0.77919  0.03793  0.81363  1.0000
  S   S273      1.0  0.84857  0.44283  0.73197  1.0000
  H   H1615     1.0  0.89244  0.02471  0.93908  1.0000
  H   H1616     1.0  0.78101  0.23618  0.78117  1.0000
  C   C946      1.0  0.85293  0.36639  0.87531  1.0000
  C   C947      1.0  0.83294  0.36866  0.85920  1.0000
  C   C948      1.0  0.83438  0.39738  0.85548  1.0000
  H   H1617     1.0  0.80595  0.49027  0.79457  1.0000
  H   H1618     1.0  0.67738  0.49822  0.87006  1.0000
  H   H1619     1.0  0.96944  0.37928  0.81698  1.0000
  H   H1620     1.0  0.81623  0.34813  0.84983  1.0000
  H   H1621     1.0  0.69389  0.19596  0.73547  1.0000
  H   H1622     1.0  0.88965  0.07760  0.78239  1.0000
  H   H1623     1.0  0.75346  0.22012  0.74339  1.0000
  N   N68       1.0  0.70939  0.04702  0.85126  1.0000
  C   C949      1.0  0.73934  0.07813  0.84790  1.0000
  C   C950      1.0  0.95963  0.41811  0.81039  1.0000
  H   H1624     1.0  0.92711  0.45189  0.80235  1.0000
  C   C951      1.0  0.68484  0.05353  0.86125  1.0000
  C   C952      1.0  0.75631  0.09602  0.86966  1.0000
  H   H1625     1.0  0.00648  0.43547  0.84305  1.0000
  C   C953      1.0  0.89935  0.03455  0.84070  1.0000
  N   N69       1.0  0.94076  0.41303  0.83166  1.0000
  H   H1626     1.0  0.75682  0.07496  0.83794  1.0000
  H   H1627     1.0  0.73475  0.09454  0.83785  1.0000
  C   C954      1.0  0.68606  0.50119  0.72277  1.0000
  S   S274      1.0  0.98197  0.45057  0.93667  1.0000
  C   C955      1.0  0.53684  0.42560  0.96053  1.0000
  H   H1628     1.0  0.51482  0.42020  0.95134  1.0000
  H   H1629     1.0  0.74181  0.03345  0.86554  1.0000
  H   H1630     1.0  0.57360  0.01965  0.92163  1.0000
  H   H1631     1.0  0.77773  0.11836  0.86481  1.0000
  H   H1632     1.0  0.74127  0.10210  0.88001  1.0000
  H   H1633     1.0  0.76476  0.08300  0.88017  1.0000
  H   H1634     1.0  0.54446  0.26617  0.73040  1.0000
  C   C956      1.0  0.65079  0.02576  0.86252  1.0000
  C   C957      1.0  0.95579  0.40693  0.85192  1.0000
  H   H1635     1.0  0.76345  0.28867  0.73318  1.0000
  H   H1636     1.0  0.51047  0.27001  0.73189  1.0000
  H   H1637     1.0  0.64133  0.50001  0.87173  1.0000
  H   H1638     1.0  0.67368  0.05073  0.96308  1.0000
  C   C958      1.0  0.78256  0.00816  0.86470  1.0000
  H   H1639     1.0  0.84201  0.02517  0.94344  1.0000
  H   H1640     1.0  0.69954  0.13713  0.80245  1.0000
  C   C959      1.0  0.90711  0.38659  0.82848  1.0000
  H   H1641     1.0  0.71373  0.26479  0.79201  1.0000
  H   H1642     1.0  0.71825  0.02666  0.82185  1.0000
  C   C960      1.0  0.69854  0.14615  0.78542  1.0000
  H   H1643     1.0  0.00109  0.40071  0.94654  1.0000
  C   C961      1.0  0.73593  0.19835  0.75226  1.0000
  H   H1644     1.0  0.99495  0.02256  0.74525  1.0000
  H   H1645     1.0  0.56163  0.47901  0.76649  1.0000
  H   H1646     1.0  0.90178  0.35015  0.85267  1.0000
  S   S275      1.0  0.81040  0.18440  0.73708  1.0000
  H   H1647     1.0  0.84700  0.46324  0.94561  1.0000
  H   H1648     1.0  0.52336  0.44656  0.75858  1.0000
  H   H1649     1.0  0.95591  0.38460  0.85045  1.0000
  H   H1650     1.0  0.73740  0.25451  0.80867  1.0000
  N   N70       1.0  0.78286  0.40311  0.91546  1.0000
  C   C962      1.0  0.77266  0.40514  0.89170  1.0000
  C   C963      1.0  0.79639  0.38149  0.91500  1.0000
  C   C964      1.0  0.80808  0.43574  0.92249  1.0000
  C   C965      1.0  0.75424  0.39072  0.93052  1.0000
  C   C966      1.0  0.76134  0.42896  0.88771  1.0000
  C   C967      1.0  0.77439  0.34803  0.90611  1.0000
  H   H1651     1.0  0.97453  0.00376  0.78296  1.0000
  H   H1652     1.0  0.89426  0.43340  0.82196  1.0000
  H   H1653     1.0  0.79247  0.41145  0.87975  1.0000
  H   H1654     1.0  0.75287  0.38216  0.88594  1.0000
  H   H1655     1.0  0.71502  0.07089  0.80468  1.0000
  H   H1656     1.0  0.81792  0.39181  0.90432  1.0000
  H   H1657     1.0  0.82260  0.44923  0.90763  1.0000
  H   H1658     1.0  0.79717  0.44931  0.92899  1.0000
  H   H1659     1.0  0.74437  0.40662  0.93016  1.0000
  H   H1660     1.0  0.73415  0.36839  0.92408  1.0000
  C   C968      1.0  0.96468  0.39103  0.80285  1.0000
  H   H1661     1.0  0.74555  0.44357  0.75899  1.0000
  H   H1662     1.0  0.75660  0.42944  0.86938  1.0000
  H   H1663     1.0  0.76971  0.34792  0.88774  1.0000
  C   C969      1.0  0.88922  0.02585  0.80010  1.0000
  H   H1664     1.0  0.68395  0.03445  0.79467  1.0000
  C   C970      1.0  0.85371  0.49175  0.82307  1.0000
  H   H1665     1.0  0.96413  0.46357  0.83631  1.0000
  C   C971      1.0  0.92426  0.04562  0.79300  1.0000
  C   C972      1.0  0.54304  0.48479  0.73406  1.0000
  S   S276      1.0  0.86051  0.07705  0.72592  1.0000
  H   H1666     1.0  0.71368  0.43353  0.73981  1.0000
  H   H1667     1.0  0.89074  0.39033  0.83922  1.0000
  H   H1668     1.0  0.63675  0.48383  0.91907  1.0000
  H   H1669     1.0  0.92593  0.04545  0.77428  1.0000
  S   S277      1.0  0.71897  0.30741  0.74890  1.0000
  H   H1670     1.0  0.55792  0.22767  0.72973  1.0000
  H   H1671     1.0  0.68912  0.15830  0.74276  1.0000
  C   C973      1.0  0.91989  0.45041  0.82024  1.0000
  S   S278      1.0  0.95784  0.07077  0.95295  1.0000
  C   C974      1.0  0.86359  0.04400  0.95031  1.0000
  H   H1672     1.0  0.70238  0.18417  0.80570  1.0000
  H   H1673     1.0  0.87395  0.02421  0.78560  1.0000
  H   H1674     1.0  0.98303  0.44005  0.81110  1.0000
  H   H1675     1.0  0.71458  0.03307  0.88512  1.0000
  C   C975      1.0  0.84350  0.47604  0.73125  1.0000
  C   C976      1.0  0.88614  0.06922  0.81934  1.0000
  H   H1676     1.0  0.85837  0.45446  0.80745  1.0000
  C   C977      1.0  0.71630  0.28076  0.72809  1.0000
  H   H1677     1.0  0.67985  0.08426  0.72496  1.0000
  H   H1678     1.0  0.56847  0.47500  0.95902  1.0000
  C   C978      1.0  0.87539  0.07736  0.79704  1.0000
  C   C979      1.0  0.65176  0.04367  0.95416  1.0000
  H   H1679     1.0  0.65060  0.48582  0.84693  1.0000
  H   H1680     1.0  0.94152  0.40401  0.86734  1.0000
  C   C980      1.0  0.89346  0.04635  0.72378  1.0000
  C   C981      1.0  0.61683  0.01781  0.92260  1.0000
  H   H1681     1.0  0.78421  0.47960  0.84457  1.0000
  H   H1682     1.0  0.92000  0.02273  0.71978  1.0000
  H   H1683     1.0  0.99243  0.45509  0.86174  1.0000
  C   C982      1.0  0.84280  0.23098  0.76911  1.0000
  H   H1684     1.0  0.74688  0.18340  0.75180  1.0000
  H   H1685     1.0  0.98616  0.40058  0.79209  1.0000
  C   C983      1.0  0.73888  0.43987  0.74082  1.0000
  C   C984      1.0  0.70619  0.18234  0.73706  1.0000
  H   H1686     1.0  0.79356  0.20339  0.80349  1.0000
  H   H1687     1.0  0.51608  0.10465  0.73914  1.0000
  Fe  Fe135     1.0  0.83095  0.34440  0.77436  1.0000
  C   C985      1.0  0.82693  0.27259  0.74838  1.0000
  H   H1688     1.0  0.76981  0.42161  0.73509  1.0000
  H   H1689     1.0  0.75189  0.33569  0.91564  1.0000
  S   S279      1.0  0.75988  0.03482  0.91901  1.0000
  H   H1690     1.0  0.68381  0.07243  0.85164  1.0000
  H   H1691     1.0  0.85180  0.34416  0.87816  1.0000
  N   N71       1.0  0.73076  0.20591  0.77605  1.0000
  H   H1692     1.0  0.89281  0.06431  0.86554  1.0000
  H   H1693     1.0  0.82090  0.28855  0.74018  1.0000
  H   H1694     1.0  0.85657  0.44592  0.86540  1.0000
  Fe  Fe136     1.0  0.93647  0.43825  0.91937  1.0000
  H   H1695     1.0  0.69132  0.06250  0.87885  1.0000
  Fe  Fe137     1.0  0.82658  0.40062  0.75514  1.0000
  H   H1696     1.0  0.71638  0.14484  0.77473  1.0000
  H   H1697     1.0  0.84935  0.43187  0.93269  1.0000
  S   S280      1.0  0.90110  0.39045  0.90643  1.0000
  C   C986      1.0  0.69309  0.04945  0.80997  1.0000
  H   H1698     1.0  0.68019  0.17754  0.78056  1.0000
  H   H1699     1.0  0.52069  0.25085  0.76764  1.0000
  Fe  Fe138     1.0  0.78066  0.03241  0.95235  1.0000
  C   C987      1.0  0.74164  0.27580  0.72385  1.0000
  C   C988      1.0  0.86307  0.06880  0.96155  1.0000
  C   C989      1.0  0.59523  0.02636  0.93082  1.0000
  H   H1700     1.0  0.58940  0.47150  0.89597  1.0000
  C   C990      1.0  0.64521  0.02643  0.93414  1.0000
  S   S281      1.0  0.52076  0.05902  0.91057  1.0000
  H   H1701     1.0  0.93036  0.44175  0.85375  1.0000
  H   H1702     1.0  0.60502  0.45693  0.96253  1.0000
  C   C991      1.0  0.99025  0.43230  0.85716  1.0000
  H   H1703     1.0  0.70635  0.22919  0.76236  1.0000
  H   H1704     1.0  0.83719  0.02289  0.83994  1.0000
  H   H1705     1.0  0.75876  0.22546  0.80648  1.0000
  C   C992      1.0  0.78495  0.47194  0.82713  1.0000
  H   H1706     1.0  0.92306  0.47366  0.82483  1.0000
  H   H1707     1.0  0.61150  0.00446  0.90714  1.0000
  C   C993      1.0  0.93990  0.44272  0.83649  1.0000
  S   S282      1.0  0.85847  0.31915  0.78028  1.0000
  H   H1708     1.0  0.73590  0.37008  0.96342  1.0000
  S   S283      1.0  0.67458  0.45665  0.93580  1.0000
  C   C994      1.0  0.89232  0.04389  0.94768  1.0000
  C   C995      1.0  0.69961  0.03130  0.82848  1.0000
  H   H1709     1.0  0.73867  0.42194  0.89640  1.0000
  C   C996      1.0  0.73166  0.50121  0.84045  1.0000
  H   H1710     1.0  0.91162  0.08677  0.82173  1.0000
  H   H1711     1.0  0.92492  0.05188  0.83829  1.0000
  H   H1712     1.0  0.78654  0.33420  0.90821  1.0000
  C   C997      1.0  0.59713  0.48913  0.90905  1.0000
  H   H1713     1.0  0.78235  0.38760  0.72232  1.0000
  H   H1714     1.0  0.75378  0.46267  0.73228  1.0000
  Fe  Fe139     1.0  0.71755  0.47497  0.91389  1.0000
  H   H1715     1.0  0.89832  0.01153  0.84127  1.0000
  C   C998      1.0  0.75912  0.38691  0.95580  1.0000
  S   S284      1.0  0.71301  0.46260  0.87721  1.0000
  H   H1716     1.0  0.73060  0.39262  0.74234  1.0000
  H   H1717     1.0  0.67790  0.00794  0.82971  1.0000
  H   H1718     1.0  0.87481  0.33634  0.82957  1.0000
  C   C999      1.0  0.89978  0.35306  0.83423  1.0000
  H   H1719     1.0  0.82162  0.01594  0.74906  1.0000
  H   H1720     1.0  0.93848  0.03598  0.80055  1.0000
  S   S285      1.0  0.71095  0.04225  0.74545  1.0000
  H   H1721     1.0  0.84893  0.21504  0.77722  1.0000
  C   C1000     1.0  0.74458  0.41377  0.73156  1.0000
  Fe  Fe140     1.0  0.76778  0.33817  0.76308  1.0000
  S   S286      1.0  0.81108  0.35200  0.74222  1.0000
  H   H1722     1.0  0.84998  0.06132  0.79356  1.0000
  H   H1723     1.0  0.87875  0.10133  0.79840  1.0000
  H   H1724     1.0  0.94406  0.37340  0.79292  1.0000
  H   H1725     1.0  0.69561  0.22665  0.80414  1.0000
  H   H1726     1.0  0.77238  0.17974  0.78011  1.0000
  C   C1001     1.0  0.60192  0.04403  0.95059  1.0000
  C   C1002     1.0  0.70235  0.17925  0.78733  1.0000
  H   H1727     1.0  0.82176  0.42419  0.95544  1.0000
  C   C1003     1.0  0.85317  0.26092  0.77838  1.0000
  H   H1728     1.0  0.71032  0.48338  0.83234  1.0000
  H   H1729     1.0  0.89897  0.38611  0.81081  1.0000
  C   C1004     1.0  0.83261  0.43841  0.94017  1.0000
  H   H1730     1.0  0.67492  0.12943  0.77828  1.0000
  C   C1005     1.0  0.76048  0.21631  0.78977  1.0000
  C   C1006     1.0  0.76994  0.19150  0.79522  1.0000
  H   H1731     1.0  0.74732  0.25445  0.76708  1.0000
  H   H1732     1.0  0.80465  0.37886  0.93188  1.0000
  H   H1733     1.0  0.93517  0.07058  0.79780  1.0000
  C   C1007     1.0  0.72584  0.23383  0.77424  1.0000
  H   H1734     1.0  0.86188  0.48323  0.78756  1.0000
  H   H1735     1.0  0.63536  0.03421  0.86965  1.0000
  C   C1008     1.0  0.84319  0.01744  0.74293  1.0000
  H   H1736     1.0  0.75883  0.03071  0.72742  1.0000
  S   S287      1.0  0.57480  0.05476  0.96133  1.0000
  S   S288      1.0  0.54913  0.49847  0.89430  1.0000
  H   H1737     1.0  0.84177  0.47662  0.83800  1.0000
  C   C1009     1.0  0.71064  0.01979  0.72243  1.0000
  H   H1738     1.0  0.90688  0.03997  0.87704  1.0000
  C   C1010     1.0  0.77422  0.00880  0.84215  1.0000
  C   C1011     1.0  0.54705  0.46435  0.75214  1.0000
  C   C1012     1.0  0.73906  0.49646  0.86240  1.0000
  C   C1013     1.0  0.96905  0.00979  0.74818  1.0000
  Fe  Fe141     1.0  0.00452  0.49338  0.91492  1.0000
  C   C1014     1.0  0.89045  0.04078  0.86436  1.0000
  H   H1739     1.0  0.71353  0.18023  0.71973  1.0000
  Fe  Fe142     1.0  0.71233  0.01099  0.93621  1.0000
  C   C1015     1.0  0.84517  0.01472  0.82527  1.0000
  N   N72       1.0  0.88006  0.03609  0.82133  1.0000
  H   H1740     1.0  0.67493  0.05537  0.81515  1.0000
  S   S289      1.0  0.67240  0.01711  0.92162  1.0000
  C   C1016     1.0  0.86587  0.04484  0.73190  1.0000
  C   C1017     1.0  0.89859  0.02106  0.72646  1.0000
  S   S290      1.0  0.95969  0.47846  0.89542  1.0000
  H   H1741     1.0  0.55308  0.42560  0.94740  1.0000
  C   C1018     1.0  0.92078  0.06893  0.95590  1.0000
  H   H1742     1.0  0.51460  0.21557  0.75466  1.0000
  C   C1019     1.0  0.82356  0.48049  0.74601  1.0000
  H   H1743     1.0  0.86622  0.02267  0.86939  1.0000
  H   H1744     1.0  0.99861  0.42482  0.87214  1.0000
  H   H1745     1.0  0.96241  0.02793  0.75155  1.0000
  H   H1746     1.0  0.51861  0.47170  0.72701  1.0000
  C   C1020     1.0  0.71675  0.02751  0.86727  1.0000
  H   H1747     1.0  0.66830  0.26724  0.71926  1.0000
  H   H1748     1.0  0.80392  0.23646  0.72321  1.0000
  C   C1021     1.0  0.80871  0.49929  0.81212  1.0000
  H   H1749     1.0  0.77423  0.37650  0.95894  1.0000
  C   C1022     1.0  0.63031  0.05272  0.96221  1.0000
  Fe  Fe143     1.0  0.97049  0.47959  0.95963  1.0000
  H   H1750     1.0  0.64100  0.01573  0.84571  1.0000
  H   H1751     1.0  0.95273  0.37222  0.95934  1.0000
  H   H1752     1.0  0.64894  0.00737  0.87417  1.0000
  H   H1753     1.0  0.76879  0.40968  0.96476  1.0000
  H   H1754     1.0  0.63577  0.47934  0.71845  1.0000
  C   C1023     1.0  0.92011  0.09371  0.96687  1.0000
  H   H1755     1.0  0.68820  0.38540  0.71779  1.0000
  Fe  Fe144     1.0  0.86058  0.94888  0.07796  1.0000
  S   S291      1.0  0.82711  0.89819  0.07066  1.0000
  S   S292      1.0  0.87550  0.98262  0.04876  1.0000
  Fe  Fe145     1.0  0.86410  0.93620  0.12782  1.0000
  S   S293      1.0  0.82996  0.88489  0.12362  1.0000
  S   S294      1.0  0.88473  0.94888  0.16282  1.0000
  Fe  Fe146     1.0  0.85939  0.88989  0.09320  1.0000
  S   S295      1.0  0.87785  0.85664  0.08720  1.0000
  Fe  Fe147     1.0  0.80222  0.89992  0.10194  1.0000
  S   S296      1.0  0.74876  0.87626  0.10089  1.0000
  S   S297      1.0  0.89451  0.94053  0.09819  1.0000
  S   S298      1.0  0.83416  0.95123  0.10833  1.0000
  H   H1756     1.0  0.77822  0.95879  0.01083  1.0000
  S   S299      1.0  0.71329  0.92943  0.98803  1.0000
  Fe  Fe148     1.0  0.56001  0.91767  0.11259  1.0000
  S   S300      1.0  0.56400  0.94720  0.08287  1.0000
  H   H1757     1.0  0.92621  0.73190  0.19883  1.0000
  Fe  Fe149     1.0  0.63150  0.94093  0.11242  1.0000
  S   S301      1.0  0.64015  0.97285  0.08280  1.0000
  S   S302      1.0  0.67450  0.94555  0.13072  1.0000
  S   S303      1.0  0.51234  0.89432  0.12978  1.0000
  N   N73       1.0  0.78296  0.97425  0.04571  1.0000
  Fe  Fe150     1.0  0.59641  0.93152  0.06896  1.0000
  S   S304      1.0  0.59069  0.91812  0.03240  1.0000
  S   S305      1.0  0.60132  0.95636  0.13088  1.0000
  S   S306      1.0  0.58926  0.89849  0.09750  1.0000
  C   C1024     1.0  0.51508  0.91615  0.02494  1.0000
  H   H1758     1.0  0.77102  0.91321  0.02612  1.0000
  H   H1759     1.0  0.78439  0.78160  0.18821  1.0000
  H   H1760     1.0  0.54355  0.53882  0.12066  1.0000
  H   H1761     1.0  0.88018  0.89983  0.00619  1.0000
  H   H1762     1.0  0.90303  0.87228  0.03875  1.0000
  H   H1763     1.0  0.95368  0.82847  0.11677  1.0000
  H   H1764     1.0  0.62979  0.89973  0.19789  1.0000
  Fe  Fe151     1.0  0.60687  0.98500  0.10015  1.0000
  H   H1765     1.0  0.74292  0.80928  0.17443  1.0000
  H   H1766     1.0  0.95634  0.94315  0.21065  1.0000
  H   H1767     1.0  0.55762  0.98282  0.15527  1.0000
  C   C1025     1.0  0.72889  0.95846  0.06476  1.0000
  H   H1768     1.0  0.85440  0.70466  0.14907  1.0000
  C   C1026     1.0  0.73695  0.82717  0.20556  1.0000
  C   C1027     1.0  0.60097  0.91964  0.18786  1.0000
  H   H1769     1.0  0.86975  0.69418  0.20664  1.0000
  C   C1028     1.0  0.62476  0.92088  0.02044  1.0000
  C   C1029     1.0  0.63392  0.93351  0.99873  1.0000
  C   C1030     1.0  0.95013  0.87803  0.03758  1.0000
  C   C1031     1.0  0.67867  0.92504  0.00030  1.0000
  C   C1032     1.0  0.66886  0.91127  0.02166  1.0000
  C   C1033     1.0  0.64235  0.90994  0.03202  1.0000
  H   H1770     1.0  0.68065  0.53691  0.14205  1.0000
  C   C1034     1.0  0.96953  0.86221  0.17918  1.0000
  C   C1035     1.0  0.53776  0.51792  0.11010  1.0000
  H   H1771     1.0  0.63506  0.89972  0.04867  1.0000
  H   H1772     1.0  0.54864  0.98909  0.97158  1.0000
  H   H1773     1.0  0.78477  0.88408  0.19840  1.0000
  C   C1036     1.0  0.55740  0.97132  0.17146  1.0000
  H   H1774     1.0  0.79297  0.63279  0.18095  1.0000
  H   H1775     1.0  0.88305  0.77301  0.16455  1.0000
  C   C1037     1.0  0.75199  0.97416  0.04478  1.0000
  C   C1038     1.0  0.88767  0.98186  0.00368  1.0000
  C   C1039     1.0  0.84726  0.73747  0.19893  1.0000
  H   H1776     1.0  0.74003  0.95938  0.08115  1.0000
  H   H1777     1.0  0.80251  0.50636  0.00470  1.0000
  H   H1778     1.0  0.60289  0.51818  0.19176  1.0000
  H   H1779     1.0  0.58570  0.89972  0.17655  1.0000
  C   C1040     1.0  0.92064  0.84162  0.10397  1.0000
  H   H1780     1.0  0.95533  0.86333  0.16493  1.0000
  H   H1781     1.0  0.72005  0.54007  0.16897  1.0000
  C   C1041     1.0  0.68671  0.94588  0.20668  1.0000
  S   S307      1.0  0.88328  0.82670  0.19592  1.0000
  H   H1782     1.0  0.66851  0.94673  0.97238  1.0000
  H   H1783     1.0  0.54730  0.94581  0.16887  1.0000
  C   C1042     1.0  0.88983  0.91793  0.17249  1.0000
  C   C1043     1.0  0.89008  0.91222  0.19569  1.0000
  C   C1044     1.0  0.81836  0.68275  0.18788  1.0000
  C   C1045     1.0  0.88835  0.86309  0.18752  1.0000
  C   C1046     1.0  0.88983  0.86969  0.16442  1.0000
  C   C1047     1.0  0.89096  0.89719  0.15696  1.0000
  H   H1784     1.0  0.90134  0.81768  0.10298  1.0000
  H   H1785     1.0  0.97031  0.51184  0.09196  1.0000
  H   H1786     1.0  0.88963  0.85331  0.15216  1.0000
  H   H1787     1.0  0.89212  0.90196  0.13905  1.0000
  C   C1048     1.0  0.91555  0.86618  0.09788  1.0000
  C   C1049     1.0  0.60818  0.51777  0.15560  1.0000
  H   H1788     1.0  0.95563  0.83827  0.18643  1.0000
  H   H1789     1.0  0.76379  0.78980  0.15095  1.0000
  C   C1050     1.0  0.61091  0.56136  0.17669  1.0000
  C   C1051     1.0  0.55390  0.55796  0.06717  1.0000
  H   H1790     1.0  0.82546  0.89482  0.20404  1.0000
  H   H1791     1.0  0.81362  0.67793  0.20628  1.0000
  H   H1792     1.0  0.73343  0.84357  0.19466  1.0000
  H   H1793     1.0  0.93746  0.91630  0.09415  1.0000
  C   C1052     1.0  0.72920  0.89707  0.10798  1.0000
  C   C1053     1.0  0.74361  0.92369  0.12172  1.0000
  C   C1054     1.0  0.72674  0.93863  0.12823  1.0000
  C   C1055     1.0  0.69557  0.92747  0.12073  1.0000
  C   C1056     1.0  0.68149  0.90144  0.10643  1.0000
  C   C1057     1.0  0.69818  0.88613  0.10027  1.0000
  H   H1794     1.0  0.76744  0.93226  0.12782  1.0000
  H   H1795     1.0  0.73791  0.95889  0.13914  1.0000
  H   H1796     1.0  0.65752  0.89263  0.10053  1.0000
  H   H1797     1.0  0.68692  0.86560  0.08958  1.0000
  C   C1058     1.0  0.88099  0.96579  0.02427  1.0000
  C   C1059     1.0  0.87934  0.93664  0.02519  1.0000
  C   C1060     1.0  0.88260  0.92285  0.00547  1.0000
  C   C1061     1.0  0.88985  0.93913  0.98500  1.0000
  C   C1062     1.0  0.89325  0.96908  0.98426  1.0000
  H   H1798     1.0  0.97291  0.96501  0.15839  1.0000
  H   H1799     1.0  0.87593  0.92474  0.04109  1.0000
  H   H1800     1.0  0.73853  0.96146  0.02944  1.0000
  C   C1063     1.0  0.94270  0.51786  0.03182  1.0000
  H   H1801     1.0  0.68839  0.92279  0.17521  1.0000
  H   H1802     1.0  0.82749  0.84276  0.21459  1.0000
  H   H1803     1.0  0.81730  0.97540  0.02186  1.0000
  H   H1804     1.0  0.56213  0.92331  0.99188  1.0000
  H   H1805     1.0  0.56078  0.52439  0.10206  1.0000
  H   H1806     1.0  0.78801  0.93595  0.96811  1.0000
  C   C1064     1.0  0.80207  0.85728  0.17871  1.0000
  C   C1065     1.0  0.99221  0.96146  0.16505  1.0000
  C   C1066     1.0  0.74379  0.52543  0.20709  1.0000
  H   H1807     1.0  0.93263  0.91159  0.03301  1.0000
  H   H1808     1.0  0.94934  0.87751  0.05636  1.0000
  C   C1067     1.0  0.99203  0.95153  0.04342  1.0000
  H   H1809     1.0  0.82270  0.75330  0.17552  1.0000
  H   H1810     1.0  0.57473  0.56344  0.07785  1.0000
  H   H1811     1.0  0.97627  0.91382  0.15733  1.0000
  H   H1812     1.0  0.61806  0.60084  0.15660  1.0000
  C   C1068     1.0  0.52287  0.54338  0.08096  1.0000
  H   H1813     1.0  0.54660  0.97101  0.20629  1.0000
  C   C1069     1.0  0.78929  0.79997  0.15476  1.0000
  H   H1814     1.0  0.94030  0.85314  0.03233  1.0000
  H   H1815     1.0  0.94224  0.53956  0.03106  1.0000
  C   C1070     1.0  0.99968  0.87845  0.03103  1.0000
  H   H1816     1.0  0.85173  0.51660  0.06851  1.0000
  H   H1817     1.0  0.51769  0.99599  0.07776  1.0000
  S   S308      1.0  0.91204  0.50733  0.07261  1.0000
  H   H1818     1.0  0.56160  0.51777  0.01145  1.0000
  H   H1819     1.0  0.98891  0.56297  0.07347  1.0000
  H   H1820     1.0  0.60210  0.97411  0.00595  1.0000
  H   H1821     1.0  0.97174  0.88477  0.99432  1.0000
  H   H1822     1.0  0.87733  0.55017  0.97313  1.0000
  H   H1823     1.0  0.62160  0.57770  0.12035  1.0000
  C   C1071     1.0  0.99549  0.52537  0.08645  1.0000
  H   H1824     1.0  0.81998  0.65515  0.15895  1.0000
  S   S309      1.0  0.61751  0.51947  0.10931  1.0000
  C   C1072     1.0  0.92559  0.88696  0.02955  1.0000
  C   C1073     1.0  0.66122  0.93626  0.98891  1.0000
  H   H1825     1.0  0.71472  0.97019  0.06714  1.0000
  H   H1826     1.0  0.99839  0.56700  0.10274  1.0000
  C   C1074     1.0  0.81677  0.65328  0.17752  1.0000
  H   H1827     1.0  0.83408  0.64784  0.18547  1.0000
  C   C1075     1.0  0.80140  0.83272  0.21548  1.0000
  H   H1828     1.0  0.82574  0.96510  0.97845  1.0000
  H   H1829     1.0  0.91597  0.75671  0.18340  1.0000
  H   H1830     1.0  0.79696  0.72453  0.19635  1.0000
  C   C1076     1.0  0.94094  0.89715  0.09910  1.0000
  C   C1077     1.0  0.54057  0.97885  0.19041  1.0000
  H   H1831     1.0  0.64145  0.92143  0.17254  1.0000
  C   C1078     1.0  0.55025  0.93504  0.98367  1.0000
  H   H1832     1.0  0.69325  0.50996  0.13424  1.0000
  C   C1079     1.0  0.54178  0.95055  0.02192  1.0000
  H   H1833     1.0  0.82233  0.81411  0.18218  1.0000
  H   H1834     1.0  0.96794  0.52593  0.00026  1.0000
  C   C1080     1.0  0.90771  0.73854  0.19665  1.0000
  H   H1835     1.0  0.81164  0.51599  0.04299  1.0000
  H   H1836     1.0  0.82776  0.71807  0.15279  1.0000
  H   H1837     1.0  0.94523  0.97637  0.04249  1.0000
  H   H1838     1.0  0.88092  0.69590  0.17790  1.0000
  H   H1839     1.0  0.68180  0.90182  0.03024  1.0000
  N   N74       1.0  0.99503  0.92045  0.19131  1.0000
  H   H1840     1.0  0.81509  0.90631  0.17845  1.0000
  N   N75       1.0  0.98379  0.89797  0.02933  1.0000
  H   H1841     1.0  0.67954  0.92376  0.21608  1.0000
  H   H1842     1.0  0.99757  0.51125  0.14949  1.0000
  H   H1843     1.0  0.74086  0.78641  0.19765  1.0000
  C   C1081     1.0  0.75197  0.81127  0.19198  1.0000
  C   C1082     1.0  0.53738  0.97772  0.98784  1.0000
  C   C1083     1.0  0.63358  0.92191  0.19008  1.0000
  C   C1084     1.0  0.85071  0.72146  0.15928  1.0000
  C   C1085     1.0  0.87597  0.70892  0.19110  1.0000
  N   N76       1.0  0.78757  0.82698  0.19196  1.0000
  H   H1844     1.0  0.71345  0.80890  0.21193  1.0000
  H   H1845     1.0  0.97077  0.91879  0.00167  1.0000
  H   H1846     1.0  0.82609  0.86346  0.17265  1.0000
  H   H1847     1.0  0.74893  0.54809  0.19954  1.0000
  H   H1848     1.0  0.52602  0.56143  0.09356  1.0000
  C   C1086     1.0  0.88942  0.88480  0.20323  1.0000
  H   H1849     1.0  0.58860  0.91492  0.20432  1.0000
  C   C1087     1.0  0.00457  0.53270  0.13939  1.0000
  H   H1850     1.0  0.97527  0.84954  0.06130  1.0000
  C   C1088     1.0  0.97497  0.88633  0.19780  1.0000
  H   H1851     1.0  0.64772  0.98407  0.18808  1.0000
  H   H1852     1.0  0.59596  0.54440  0.99607  1.0000
  H   H1853     1.0  0.99064  0.92711  0.10716  1.0000
  N   N77       1.0  0.55385  0.96179  0.99818  1.0000
  H   H1854     1.0  0.60267  0.94091  0.18019  1.0000
  C   C1089     1.0  0.99960  0.93951  0.21238  1.0000
  H   H1855     1.0  0.81683  0.92544  0.97757  1.0000
  C   C1090     1.0  0.00387  0.56002  0.08633  1.0000
  H   H1856     1.0  0.79761  0.68368  0.18104  1.0000
  C   C1091     1.0  0.57598  0.51984  0.99638  1.0000
  C   C1092     1.0  0.97119  0.90325  0.10617  1.0000
  C   C1093     1.0  0.87694  0.75442  0.15186  1.0000
  H   H1857     1.0  0.88954  0.92837  0.20779  1.0000
  H   H1858     1.0  0.89954  0.98223  0.96864  1.0000
  H   H1859     1.0  0.67150  0.97539  0.17070  1.0000
  C   C1094     1.0  0.61726  0.56452  0.13587  1.0000
  H   H1860     1.0  0.86858  0.76211  0.13699  1.0000
  H   H1861     1.0  0.99979  0.91927  0.06212  1.0000
  H   H1862     1.0  0.92019  0.88186  0.01130  1.0000
  C   C1095     1.0  0.75844  0.91442  0.04135  1.0000
  C   C1096     1.0  0.69558  0.51999  0.17087  1.0000
  H   H1863     1.0  0.79631  0.78307  0.14856  1.0000
  H   H1864     1.0  0.53998  0.99717  0.99873  1.0000
  H   H1865     1.0  0.75266  0.89342  0.05174  1.0000
  H   H1866     1.0  0.85726  0.52947  0.01672  1.0000
  C   C1097     1.0  0.79573  0.97776  0.02196  1.0000
  C   C1098     1.0  0.61401  0.53466  0.13540  1.0000
  H   H1867     1.0  0.62029  0.94167  0.98955  1.0000
  S   S310      1.0  0.61007  0.57906  0.20229  1.0000
  H   H1868     1.0  0.98434  0.95481  0.02658  1.0000
  H   H1869     1.0  0.52506  0.91657  0.98195  1.0000
  H   H1870     1.0  0.55818  0.58052  0.05980  1.0000
  C   C1099     1.0  0.61527  0.57763  0.15638  1.0000
  H   H1871     1.0  0.99511  0.51850  0.06847  1.0000
  C   C1100     1.0  0.97589  0.87843  0.11254  1.0000
  C   C1101     1.0  0.95715  0.51013  0.01439  1.0000
  H   H1872     1.0  0.82340  0.76403  0.20423  1.0000
  H   H1873     1.0  0.73584  0.91275  0.03620  1.0000
  H   H1874     1.0  0.97315  0.94618  0.05603  1.0000
  C   C1102     1.0  0.60701  0.53122  0.17624  1.0000
  N   N78       1.0  0.84872  0.71342  0.18407  1.0000
  C   C1103     1.0  0.98416  0.90645  0.00474  1.0000
  H   H1875     1.0  0.86971  0.76019  0.19892  1.0000
  H   H1876     1.0  0.80317  0.94614  0.05684  1.0000
  H   H1877     1.0  0.75626  0.99847  0.04300  1.0000
  H   H1878     1.0  0.69520  0.50885  0.21467  1.0000
  C   C1104     1.0  0.85472  0.50626  0.02102  1.0000
  H   H1879     1.0  0.89518  0.51885  0.99934  1.0000
  H   H1880     1.0  0.76993  0.93947  0.07258  1.0000
  H   H1881     1.0  0.75984  0.51803  0.19972  1.0000
  C   C1105     1.0  0.95037  0.84773  0.11166  1.0000
  H   H1882     1.0  0.71137  0.93373  0.06082  1.0000
  H   H1883     1.0  0.78788  0.85461  0.16324  1.0000
  H   H1884     1.0  0.79501  0.98091  0.09373  1.0000
  C   C1106     1.0  0.79654  0.80526  0.18032  1.0000
  H   H1885     1.0  0.80332  0.82176  0.14485  1.0000
  C   C1107     1.0  0.80671  0.88688  0.19095  1.0000
  N   N79       1.0  0.65859  0.95011  0.20264  1.0000
  C   C1108     1.0  0.77953  0.94425  0.05521  1.0000
  H   H1886     1.0  0.71223  0.96506  0.17438  1.0000
  H   H1887     1.0  0.68368  0.52876  0.18232  1.0000
  H   H1888     1.0  0.00308  0.97879  0.17878  1.0000
  H   H1889     1.0  0.89872  0.75415  0.14689  1.0000
  C   C1109     1.0  0.95886  0.00210  0.04529  1.0000
  H   H1890     1.0  0.59868  0.99532  0.98289  1.0000
  C   C1110     1.0  0.70371  0.94408  0.18528  1.0000
  C   C1111     1.0  0.97788  0.92718  0.17288  1.0000
  H   H1891     1.0  0.52405  0.89975  0.02191  1.0000
  H   H1892     1.0  0.95269  0.91825  0.17734  1.0000
  H   H1893     1.0  0.56112  0.95281  0.03309  1.0000
  C   C1112     1.0  0.66750  0.97902  0.18865  1.0000
  C   C1113     1.0  0.81346  0.94320  0.96837  1.0000
  H   H1894     1.0  0.53397  0.96579  0.03004  1.0000
  C   C1114     1.0  0.80729  0.00165  0.05930  1.0000
  C   C1115     1.0  0.58873  0.98550  0.99975  1.0000
  H   H1895     1.0  0.99195  0.86463  0.17274  1.0000
  H   H1896     1.0  0.51464  0.00164  0.16414  1.0000
  C   C1116     1.0  0.82084  0.74482  0.19313  1.0000
  H   H1897     1.0  0.90629  0.74864  0.21301  1.0000
  C   C1117     1.0  0.68020  0.51502  0.14730  1.0000
  H   H1898     1.0  0.95096  0.88084  0.20320  1.0000
  H   H1899     1.0  0.55255  0.54297  0.05278  1.0000
  H   H1900     1.0  0.73978  0.50560  0.16312  1.0000
  H   H1901     1.0  0.58251  0.98077  0.17639  1.0000
  H   H1902     1.0  0.98863  0.85835  0.01902  1.0000
  H   H1903     1.0  0.72482  0.94256  0.19034  1.0000
  H   H1904     1.0  0.98308  0.53137  0.13192  1.0000
  H   H1905     1.0  0.60849  0.50608  0.98466  1.0000
  H   H1906     1.0  0.56196  0.51648  0.98080  1.0000
  C   C1118     1.0  0.00192  0.92638  0.04409  1.0000
  H   H1907     1.0  0.98542  0.88075  0.21260  1.0000
  H   H1908     1.0  0.86940  0.51018  0.03634  1.0000
  C   C1119     1.0  0.99950  0.86481  0.05465  1.0000
  N   N80       1.0  0.51333  0.51240  0.09232  1.0000
  H   H1909     1.0  0.84416  0.72977  0.21692  1.0000
  H   H1910     1.0  0.66526  0.97387  0.23472  1.0000
  H   H1911     1.0  0.57145  0.99587  0.36993  1.0000
  H   H1912     1.0  0.62529  0.69928  0.41675  1.0000
  H   H1913     1.0  0.97833  0.83905  0.43214  1.0000
  Fe  Fe152     1.0  0.73730  0.73568  0.44362  1.0000
  H   H1914     1.0  0.65972  0.64779  0.38639  1.0000
  H   H1915     1.0  0.99829  0.89899  0.34300  1.0000
  C   C1120     1.0  0.66357  0.55596  0.33955  1.0000
  H   H1916     1.0  0.80822  0.60508  0.23421  1.0000
  S   S311      1.0  0.56597  0.94290  0.23999  1.0000
  H   H1917     1.0  0.62342  0.93021  0.25635  1.0000
  H   H1918     1.0  0.52234  0.97469  0.23602  1.0000
  H   H1919     1.0  0.63311  0.60631  0.43820  1.0000
  H   H1920     1.0  0.67726  0.55719  0.32490  1.0000
  C   C1121     1.0  0.70950  0.64369  0.37143  1.0000
  H   H1921     1.0  0.57826  0.51839  0.31603  1.0000
  H   H1922     1.0  0.61492  0.58160  0.35876  1.0000
  Fe  Fe153     1.0  0.64750  0.57111  0.28165  1.0000
  C   C1122     1.0  0.60109  0.64889  0.41843  1.0000
  C   C1123     1.0  0.64643  0.95373  0.22516  1.0000
  S   S312      1.0  0.97778  0.91859  0.42940  1.0000
  C   C1124     1.0  0.60268  0.62233  0.42475  1.0000
  H   H1923     1.0  0.75197  0.67181  0.33523  1.0000
  Fe  Fe154     1.0  0.86574  0.80860  0.28150  1.0000
  S   S313      1.0  0.89967  0.79290  0.29185  1.0000
  S   S314      1.0  0.83587  0.81346  0.30815  1.0000
  Fe  Fe155     1.0  0.88761  0.81824  0.23270  1.0000
  S   S315      1.0  0.92362  0.80389  0.23981  1.0000
  Fe  Fe156     1.0  0.88411  0.76479  0.25974  1.0000
  S   S316      1.0  0.87348  0.71478  0.25501  1.0000
  Fe  Fe157     1.0  0.93489  0.83366  0.27090  1.0000
  S   S317      1.0  0.98029  0.87075  0.28737  1.0000
  S   S318      1.0  0.84768  0.77779  0.25091  1.0000
  S   S319      1.0  0.90144  0.85082  0.26218  1.0000
  C   C1125     1.0  0.52975  0.91734  0.25359  1.0000
  H   H1924     1.0  0.67955  0.65976  0.44329  1.0000
  H   H1925     1.0  0.66359  0.69789  0.37741  1.0000
  Fe  Fe158     1.0  0.79566  0.73742  0.42510  1.0000
  S   S320      1.0  0.77951  0.77273  0.42471  1.0000
  S   S321      1.0  0.81456  0.72699  0.39350  1.0000
  C   C1126     1.0  0.66398  0.53949  0.35889  1.0000
  C   C1127     1.0  0.80756  0.62558  0.23990  1.0000
  S   S322      1.0  0.68685  0.72220  0.43475  1.0000
  C   C1128     1.0  0.63370  0.92528  0.24124  1.0000
  H   H1926     1.0  0.54204  0.94126  0.28553  1.0000
  H   H1927     1.0  0.79840  0.85057  0.22471  1.0000
  C   C1129     1.0  0.83057  0.78959  0.33180  1.0000
  C   C1130     1.0  0.82444  0.79806  0.35293  1.0000
  C   C1131     1.0  0.82089  0.77973  0.37207  1.0000
  C   C1132     1.0  0.82220  0.75213  0.37013  1.0000
  C   C1133     1.0  0.82879  0.74389  0.34902  1.0000
  C   C1134     1.0  0.83300  0.76258  0.32990  1.0000
  H   H1928     1.0  0.82277  0.81904  0.35456  1.0000
  H   H1929     1.0  0.81730  0.78717  0.38828  1.0000
  H   H1930     1.0  0.83005  0.72269  0.34733  1.0000
  H   H1931     1.0  0.83738  0.75561  0.31362  1.0000
  H   H1932     1.0  0.98234  0.85780  0.34913  1.0000
  C   C1135     1.0  0.62723  0.67904  0.42135  1.0000
  C   C1136     1.0  0.72110  0.69648  0.38217  1.0000
  Fe  Fe159     1.0  0.56524  0.53942  0.43147  1.0000
  C   C1137     1.0  0.65781  0.65681  0.43621  1.0000
  S   S323      1.0  0.56730  0.58535  0.42344  1.0000
  S   S324      1.0  0.64326  0.51415  0.40113  1.0000
  S   S325      1.0  0.60411  0.53955  0.26127  1.0000
  C   C1138     1.0  0.64645  0.53804  0.37801  1.0000
  H   H1933     1.0  0.85822  0.65395  0.24163  1.0000
  C   C1139     1.0  0.93917  0.89706  0.44128  1.0000
  H   H1934     1.0  0.65283  0.92126  0.24740  1.0000
  H   H1935     1.0  0.97617  0.95311  0.23728  1.0000
  N   N81       1.0  0.51723  0.98128  0.34263  1.0000
  H   H1936     1.0  0.71249  0.72978  0.36106  1.0000
  C   C1140     1.0  0.63137  0.62640  0.43337  1.0000
  H   H1937     1.0  0.70916  0.69133  0.39892  1.0000
  S   S326      1.0  0.64296  0.59024  0.31516  1.0000
  C   C1141     1.0  0.65564  0.68329  0.43038  1.0000
  H   H1938     1.0  0.76226  0.79295  0.23360  1.0000
  H   H1939     1.0  0.72392  0.74117  0.38945  1.0000
  C   C1142     1.0  0.88701  0.84937  0.44079  1.0000
  C   C1143     1.0  0.80687  0.67916  0.25457  1.0000
  C   C1144     1.0  0.83602  0.68041  0.25131  1.0000
  C   C1145     1.0  0.83599  0.65338  0.24411  1.0000
  H   H1940     1.0  0.57958  0.96820  0.35677  1.0000
  C   C1146     1.0  0.54289  0.97312  0.33951  1.0000
  H   H1941     1.0  0.80654  0.69984  0.26022  1.0000
  H   H1942     1.0  0.79937  0.81131  0.24805  1.0000
  C   C1147     1.0  0.71111  0.67830  0.34160  1.0000
  N   N82       1.0  0.70249  0.66962  0.36609  1.0000
  H   H1943     1.0  0.65954  0.68873  0.34726  1.0000
  C   C1148     1.0  0.56029  0.97294  0.36126  1.0000
  Fe  Fe160     1.0  0.52945  0.98131  0.43644  1.0000
  H   H1944     1.0  0.70453  0.96487  0.21766  1.0000
  C   C1149     1.0  0.77801  0.65076  0.25077  1.0000
  S   S327      1.0  0.67327  0.60303  0.25240  1.0000
  H   H1945     1.0  0.61764  0.55479  0.39313  1.0000
  H   H1946     1.0  0.57922  0.64620  0.41175  1.0000
  H   H1947     1.0  0.53350  0.94985  0.33126  1.0000
  S   S328      1.0  0.82300  0.75416  0.45766  1.0000
  H   H1948     1.0  0.67736  0.52742  0.35884  1.0000
  H   H1949     1.0  0.87087  0.82685  0.43336  1.0000
  H   H1950     1.0  0.62852  0.66563  0.36649  1.0000
  H   H1951     1.0  0.65409  0.63595  0.35754  1.0000
  H   H1952     1.0  0.88858  0.87997  0.22112  1.0000
  S   S329      1.0  0.75184  0.69944  0.44199  1.0000
  C   C1150     1.0  0.98803  0.88076  0.35636  1.0000
  H   H1953     1.0  0.75560  0.64975  0.25342  1.0000
  C   C1151     1.0  0.91770  0.86776  0.43190  1.0000
  H   H1954     1.0  0.69676  0.65758  0.33053  1.0000
  C   C1152     1.0  0.62889  0.57014  0.35873  1.0000
  Fe  Fe161     1.0  0.80504  0.78801  0.45805  1.0000
  S   S330      1.0  0.60863  0.54365  0.44713  1.0000
  H   H1955     1.0  0.76238  0.70936  0.34745  1.0000
  H   H1956     1.0  0.99233  0.52782  0.22465  1.0000
  C   C1153     1.0  0.77837  0.62383  0.24335  1.0000
  H   H1957     1.0  0.75280  0.74441  0.36993  1.0000
  Fe  Fe162     1.0  0.63233  0.56776  0.23149  1.0000
  H   H1958     1.0  0.75102  0.70138  0.31845  1.0000
  H   H1959     1.0  0.79398  0.78608  0.22501  1.0000
  H   H1960     1.0  0.70514  0.69596  0.33562  1.0000
  H   H1961     1.0  0.73533  0.65235  0.37010  1.0000
  H   H1962     1.0  0.69792  0.62432  0.35888  1.0000
  H   H1963     1.0  0.70953  0.64650  0.40879  1.0000
  H   H1964     1.0  0.55634  0.64712  0.45697  1.0000
  H   H1965     1.0  0.70952  0.61282  0.39769  1.0000
  C   C1154     1.0  0.74619  0.69090  0.33564  1.0000
  Fe  Fe163     1.0  0.69327  0.57132  0.24765  1.0000
  C   C1155     1.0  0.72760  0.72936  0.37476  1.0000
  S   S331      1.0  0.66951  0.54079  0.27801  1.0000
  H   H1966     1.0  0.92501  0.85892  0.41789  1.0000
  H   H1967     1.0  0.92312  0.91305  0.30771  1.0000
  C   C1156     1.0  0.51976  0.99555  0.30025  1.0000
  H   H1968     1.0  0.74476  0.69904  0.38550  1.0000
  H   H1969     1.0  0.61448  0.90356  0.23359  1.0000
  H   H1970     1.0  0.56137  0.98999  0.32769  1.0000
  H   H1971     1.0  0.67384  0.61405  0.39694  1.0000
  N   N83       1.0  0.93106  0.87127  0.35304  1.0000
  C   C1157     1.0  0.94032  0.89637  0.33529  1.0000
  C   C1158     1.0  0.95932  0.87993  0.36798  1.0000
  C   C1159     1.0  0.90427  0.86837  0.36744  1.0000
  C   C1160     1.0  0.92029  0.84039  0.34136  1.0000
  C   C1161     1.0  0.91323  0.89348  0.32010  1.0000
  C   C1162     1.0  0.78815  0.80380  0.23111  1.0000
  C   C1163     1.0  0.90963  0.89886  0.37872  1.0000
  C   C1164     1.0  0.91356  0.81246  0.35683  1.0000
  H   H1972     1.0  0.95222  0.92012  0.34304  1.0000
  H   H1973     1.0  0.95814  0.89648  0.32355  1.0000
  H   H1974     1.0  0.95270  0.86388  0.38276  1.0000
  H   H1975     1.0  0.96839  0.90365  0.37539  1.0000
  H   H1976     1.0  0.88192  0.85847  0.35752  1.0000
  H   H1977     1.0  0.89902  0.85138  0.38143  1.0000
  H   H1978     1.0  0.89803  0.83304  0.33184  1.0000
  H   H1979     1.0  0.93781  0.84261  0.32842  1.0000
  H   H1980     1.0  0.90227  0.87151  0.31018  1.0000
  H   H1981     1.0  0.89468  0.89508  0.32974  1.0000
  H   H1982     1.0  0.74980  0.52989  0.22534  1.0000
  H   H1983     1.0  0.53039  0.98339  0.29117  1.0000
  S   S332      1.0  0.57082  0.97926  0.45126  1.0000
  S   S333      1.0  0.55986  0.50422  0.40517  1.0000
  H   H1984     1.0  0.92985  0.90857  0.39066  1.0000
  H   H1985     1.0  0.88835  0.89349  0.38884  1.0000
  H   H1986     1.0  0.91295  0.91703  0.36624  1.0000
  H   H1987     1.0  0.93512  0.81593  0.36566  1.0000
  H   H1988     1.0  0.90497  0.79111  0.34626  1.0000
  H   H1989     1.0  0.89471  0.80732  0.36933  1.0000
  C   C1165     1.0  0.62983  0.55429  0.37810  1.0000
  H   H1990     1.0  0.54354  0.52707  0.22094  1.0000
  C   C1166     1.0  0.64529  0.57060  0.33926  1.0000
  S   S334      1.0  0.74381  0.58764  0.23689  1.0000
  H   H1991     1.0  0.54458  0.95437  0.37330  1.0000
  Fe  Fe164     1.0  0.59946  0.99300  0.25099  1.0000
  C   C1167     1.0  0.69985  0.62877  0.39516  1.0000
  C   C1168     1.0  0.65468  0.67896  0.36460  1.0000
  C   C1169     1.0  0.66737  0.65645  0.36891  1.0000
  C   C1170     1.0  0.92946  0.90789  0.45973  1.0000
  C   C1171     1.0  0.52400  0.92173  0.27605  1.0000
  H   H1992     1.0  0.96426  0.81531  0.45689  1.0000
  C   C1172     1.0  0.99625  0.50747  0.22468  1.0000
  H   H1993     1.0  0.54917  0.89764  0.46113  1.0000
  C   C1173     1.0  0.87717  0.86018  0.45914  1.0000
  H   H1994     1.0  0.62728  0.95939  0.22277  1.0000
  H   H1995     1.0  0.52206  0.91074  0.45503  1.0000
  H   H1996     1.0  0.56697  0.50553  0.34431  1.0000
  C   C1174     1.0  0.53849  0.50244  0.22146  1.0000
  C   C1175     1.0  0.96935  0.93661  0.22283  1.0000
  H   H1997     1.0  0.69272  0.58222  0.43735  1.0000
  S   S335      1.0  0.65416  0.53832  0.22451  1.0000
  C   C1176     1.0  0.97216  0.83913  0.45020  1.0000
  Fe  Fe165     1.0  0.62784  0.51147  0.25536  1.0000
  Fe  Fe166     1.0  0.60208  0.50695  0.42231  1.0000
  H   H1998     1.0  0.95248  0.84408  0.45039  1.0000
  H   H1999     1.0  0.95352  0.91291  0.22983  1.0000
  C   C1177     1.0  0.00166  0.86408  0.46277  1.0000
  H   H2000     1.0  0.94560  0.93045  0.46708  1.0000
  H   H2001     1.0  0.75035  0.83962  0.22082  1.0000
  H   H2002     1.0  0.51122  0.88730  0.22451  1.0000
  C   C1178     1.0  0.69474  0.59396  0.45379  1.0000
  H   H2003     1.0  0.60020  0.64791  0.46469  1.0000
  H   H2004     1.0  0.71892  0.61462  0.45458  1.0000
  H   H2005     1.0  0.67708  0.60176  0.45339  1.0000
  H   H2006     1.0  0.51757  0.61754  0.46574  1.0000
  H   H2007     1.0  0.56177  0.50374  0.22023  1.0000
  H   H2008     1.0  0.00693  0.88692  0.36915  1.0000
  C   C1179     1.0  0.52700  0.89645  0.46702  1.0000
  C   C1180     1.0  0.72192  0.61005  0.50136  1.0000
  H   H2009     1.0  0.82864  0.92033  0.65730  1.0000
  C   C1181     1.0  0.69623  0.56226  0.53656  1.0000
  H   H2010     1.0  0.53100  0.77333  0.65548  1.0000
  H   H2011     1.0  0.93553  0.81988  0.48657  1.0000
  C   C1182     1.0  0.68239  0.55459  0.51238  1.0000
  H   H2012     1.0  0.72221  0.57200  0.53648  1.0000
  Fe  Fe167     1.0  0.64764  0.67992  0.59355  1.0000
  S   S336      1.0  0.60145  0.65418  0.61241  1.0000
  S   S337      1.0  0.64843  0.67659  0.55555  1.0000
  Fe  Fe168     1.0  0.68517  0.70912  0.63576  1.0000
  S   S338      1.0  0.64259  0.68619  0.65793  1.0000
  S   S339      1.0  0.73305  0.73725  0.65163  1.0000
  Fe  Fe169     1.0  0.62875  0.64281  0.63758  1.0000
  S   S340      1.0  0.61286  0.59889  0.65873  1.0000
  Fe  Fe170     1.0  0.61923  0.69981  0.63106  1.0000
  S   S341      1.0  0.58369  0.71348  0.64278  1.0000
  S   S342      1.0  0.67349  0.66497  0.61724  1.0000
  S   S343      1.0  0.66327  0.72643  0.61029  1.0000
  H   H2013     1.0  0.72533  0.63040  0.49104  1.0000
  H   H2014     1.0  0.53071  0.91514  0.55860  1.0000
  S   S344      1.0  0.57012  0.83535  0.64101  1.0000
  H   H2015     1.0  0.96583  0.87743  0.52436  1.0000
  H   H2016     1.0  0.76968  0.61953  0.50896  1.0000
  H   H2017     1.0  0.89120  0.89821  0.48269  1.0000
  C   C1183     1.0  0.71334  0.79602  0.68672  1.0000
  H   H2018     1.0  0.68582  0.54016  0.54653  1.0000
  C   C1184     1.0  0.77941  0.94974  0.70147  1.0000
  H   H2019     1.0  0.55466  0.91857  0.53505  1.0000
  C   C1185     1.0  0.66586  0.87253  0.67399  1.0000
  S   S345      1.0  0.83844  0.83768  0.47062  1.0000
  C   C1186     1.0  0.60837  0.97325  0.55999  1.0000
  C   C1187     1.0  0.52364  0.89133  0.64508  1.0000
  H   H2020     1.0  0.93788  0.82203  0.51705  1.0000
  C   C1188     1.0  0.71626  0.63013  0.64335  1.0000
  S   S346      1.0  0.65640  0.97616  0.62146  1.0000
  H   H2021     1.0  0.69471  0.61408  0.63353  1.0000
  H   H2022     1.0  0.83205  0.80260  0.54925  1.0000
  H   H2023     1.0  0.57054  0.56003  0.48224  1.0000
  C   C1189     1.0  0.73802  0.00128  0.69840  1.0000
  H   H2024     1.0  0.57987  0.99534  0.56064  1.0000
  C   C1190     1.0  0.97628  0.88478  0.48769  1.0000
  H   H2025     1.0  0.52845  0.62386  0.50400  1.0000
  H   H2026     1.0  0.68784  0.68467  0.71343  1.0000
  H   H2027     1.0  0.67037  0.65472  0.69250  1.0000
  H   H2028     1.0  0.78162  0.71282  0.68160  1.0000
  H   H2029     1.0  0.53831  0.58207  0.49527  1.0000
  S   S347      1.0  0.58700  0.91357  0.61035  1.0000
  H   H2030     1.0  0.68737  0.88610  0.68440  1.0000
  H   H2031     1.0  0.68068  0.62707  0.66652  1.0000
  C   C1191     1.0  0.59908  0.56164  0.64634  1.0000
  C   C1192     1.0  0.56701  0.54321  0.64077  1.0000
  H   H2032     1.0  0.84537  0.98898  0.69616  1.0000
  C   C1193     1.0  0.75779  0.90681  0.65825  1.0000
  H   H2033     1.0  0.73627  0.67897  0.71460  1.0000
  C   C1194     1.0  0.61792  0.54751  0.64724  1.0000
  H   H2034     1.0  0.55201  0.55354  0.64078  1.0000
  C   C1195     1.0  0.68422  0.98745  0.68974  1.0000
  H   H2035     1.0  0.68536  0.84467  0.70463  1.0000
  H   H2036     1.0  0.64245  0.56122  0.65230  1.0000
  C   C1196     1.0  0.58184  0.74835  0.63999  1.0000
  C   C1197     1.0  0.55502  0.74773  0.64888  1.0000
  C   C1198     1.0  0.55197  0.77445  0.64842  1.0000
  C   C1199     1.0  0.57575  0.80257  0.63922  1.0000
  C   C1200     1.0  0.60282  0.80358  0.63003  1.0000
  C   C1201     1.0  0.60583  0.77635  0.63036  1.0000
  C   C1202     1.0  0.51103  0.91934  0.52663  1.0000
  C   C1203     1.0  0.54182  0.86841  0.69336  1.0000
  H   H2037     1.0  0.62134  0.82521  0.62284  1.0000
  H   H2038     1.0  0.62670  0.77711  0.62346  1.0000
  C   C1204     1.0  0.68157  0.67845  0.54232  1.0000
  C   C1205     1.0  0.68448  0.68236  0.51884  1.0000
  C   C1206     1.0  0.71130  0.68573  0.50771  1.0000
  C   C1207     1.0  0.73557  0.68538  0.52003  1.0000
  C   C1208     1.0  0.73217  0.68013  0.54342  1.0000
  C   C1209     1.0  0.70527  0.67687  0.55459  1.0000
  H   H2039     1.0  0.66658  0.68408  0.50931  1.0000
  H   H2040     1.0  0.67954  0.61559  0.53170  1.0000
  H   H2041     1.0  0.75077  0.67953  0.55299  1.0000
  H   H2042     1.0  0.70309  0.67347  0.57267  1.0000
  H   H2043     1.0  0.82659  0.93706  0.70752  1.0000
  H   H2044     1.0  0.71348  0.68933  0.48961  1.0000
  H   H2045     1.0  0.53087  0.65883  0.46900  1.0000
  H   H2046     1.0  0.67138  0.61268  0.48878  1.0000
  C   C1210     1.0  0.57413  0.79954  0.70746  1.0000
  C   C1211     1.0  0.60407  0.65287  0.48297  1.0000
  H   H2047     1.0  0.62394  0.64876  0.48707  1.0000
  Fe  Fe171     1.0  0.60332  0.88591  0.63116  1.0000
  C   C1212     1.0  0.58439  0.63304  0.52080  1.0000
  N   N84       1.0  0.63488  0.82741  0.70249  1.0000
  H   H2048     1.0  0.73141  0.64933  0.63148  1.0000
  C   C1213     1.0  0.73429  0.76437  0.67146  1.0000
  C   C1214     1.0  0.71146  0.77362  0.67119  1.0000
  H   H2049     1.0  0.60779  0.97015  0.57810  1.0000
  H   H2050     1.0  0.61929  0.50446  0.64418  1.0000
  H   H2051     1.0  0.57112  0.81538  0.69567  1.0000
  H   H2052     1.0  0.69269  0.76395  0.65874  1.0000
  H   H2053     1.0  0.95240  0.86900  0.48078  1.0000
  H   H2054     1.0  0.76102  0.88918  0.66759  1.0000
  C   C1215     1.0  0.73759  0.80874  0.70288  1.0000
  Fe  Fe172     1.0  0.77698  0.72069  0.47454  1.0000
  S   S348      1.0  0.61966  0.92047  0.65957  1.0000
  H   H2055     1.0  0.78403  0.80862  0.51920  1.0000
  S   S349      1.0  0.77065  0.69295  0.50641  1.0000
  H   H2056     1.0  0.66949  0.85753  0.66188  1.0000
  C   C1216     1.0  0.72136  0.67271  0.69911  1.0000
  H   H2057     1.0  0.53809  0.61239  0.53813  1.0000
  H   H2058     1.0  0.55775  0.65044  0.66518  1.0000
  C   C1217     1.0  0.51814  0.66735  0.68913  1.0000
  C   C1218     1.0  0.94848  0.81862  0.50149  1.0000
  H   H2059     1.0  0.99602  0.82718  0.49603  1.0000
  H   H2060     1.0  0.54188  0.67879  0.68141  1.0000
  H   H2061     1.0  0.74303  0.89915  0.70169  1.0000
  H   H2062     1.0  0.58795  0.58120  0.50747  1.0000
  H   H2063     1.0  0.94356  0.79405  0.50236  1.0000
  H   H2064     1.0  0.53636  0.72637  0.65628  1.0000
  C   C1219     1.0  0.71259  0.59115  0.68882  1.0000
  H   H2065     1.0  0.54533  0.89285  0.65209  1.0000
  H   H2066     1.0  0.73528  0.78790  0.50730  1.0000
  H   H2067     1.0  0.78785  0.77480  0.52249  1.0000
  N   N85       1.0  0.68994  0.58194  0.49685  1.0000
  C   C1220     1.0  0.72002  0.77780  0.52236  1.0000
  H   H2068     1.0  0.74187  0.81038  0.59408  1.0000
  C   C1221     1.0  0.75855  0.77709  0.68759  1.0000
  C   C1222     1.0  0.63611  0.85379  0.68868  1.0000
  C   C1223     1.0  0.83879  0.92838  0.67439  1.0000
  H   H2069     1.0  0.56393  0.64797  0.70742  1.0000
  C   C1224     1.0  0.71106  0.98517  0.68490  1.0000
  C   C1225     1.0  0.70639  0.64316  0.66360  1.0000
  H   H2070     1.0  0.63855  0.95952  0.51250  1.0000
  H   H2071     1.0  0.82610  0.83626  0.54972  1.0000
  H   H2072     1.0  0.84549  0.91134  0.68091  1.0000
  H   H2073     1.0  0.86098  0.95133  0.67339  1.0000
  H   H2074     1.0  0.77150  0.74392  0.55692  1.0000
  H   H2075     1.0  0.77615  0.76987  0.68800  1.0000
  N   N86       1.0  0.76318  0.78233  0.55015  1.0000
  H   H2076     1.0  0.80235  0.94567  0.64690  1.0000
  C   C1226     1.0  0.73212  0.76136  0.53843  1.0000
  C   C1227     1.0  0.77050  0.76302  0.56628  1.0000
  C   C1228     1.0  0.76398  0.80978  0.56198  1.0000
  Fe  Fe173     1.0  0.60836  0.95056  0.63732  1.0000
  H   H2077     1.0  0.71721  0.79617  0.53096  1.0000
  C   C1229     1.0  0.74797  0.74784  0.58651  1.0000
  C   C1230     1.0  0.73467  0.80309  0.57628  1.0000
  H   H2078     1.0  0.69630  0.76006  0.51593  1.0000
  H   H2079     1.0  0.71265  0.74742  0.55036  1.0000
  H   H2080     1.0  0.79420  0.77748  0.57407  1.0000
  H   H2081     1.0  0.78488  0.82123  0.57342  1.0000
  H   H2082     1.0  0.76762  0.82823  0.54944  1.0000
  H   H2083     1.0  0.55142  0.58464  0.53256  1.0000
  H   H2084     1.0  0.59165  0.65663  0.52778  1.0000
  C   C1231     1.0  0.56618  0.63202  0.69536  1.0000
  H   H2085     1.0  0.55748  0.66342  0.50256  1.0000
  H   H2086     1.0  0.68590  0.60986  0.70309  1.0000
  H   H2087     1.0  0.72296  0.73249  0.58159  1.0000
  H   H2088     1.0  0.75006  0.76560  0.59890  1.0000
  H   H2089     1.0  0.75501  0.73260  0.59572  1.0000
  H   H2090     1.0  0.52147  0.67954  0.70554  1.0000
  H   H2091     1.0  0.71548  0.77841  0.57673  1.0000
  H   H2092     1.0  0.72434  0.81728  0.56994  1.0000
  H   H2093     1.0  0.64189  0.57243  0.49189  1.0000
  N   N87       1.0  0.80155  0.94994  0.68358  1.0000
  H   H2094     1.0  0.62149  0.69548  0.50402  1.0000
  H   H2095     1.0  0.73399  0.74339  0.52831  1.0000
  H   H2096     1.0  0.55998  0.60957  0.70376  1.0000
  H   H2097     1.0  0.62318  0.75453  0.68421  1.0000
  C   C1232     1.0  0.52971  0.90765  0.54077  1.0000
  H   H2098     1.0  0.72408  0.61893  0.51888  1.0000
  H   H2099     1.0  0.83810  0.82542  0.52454  1.0000
  H   H2100     1.0  0.73016  0.69499  0.68951  1.0000
  S   S350      1.0  0.64401  0.94445  0.55866  1.0000
  C   C1233     1.0  0.62600  0.77130  0.69779  1.0000
  H   H2101     1.0  0.56861  0.77765  0.69851  1.0000
  H   H2102     1.0  0.55597  0.59770  0.46894  1.0000
  C   C1234     1.0  0.77734  0.69360  0.66979  1.0000
  H   H2103     1.0  0.76467  0.69495  0.65466  1.0000
  H   H2104     1.0  0.52118  0.91885  0.70756  1.0000
  H   H2105     1.0  0.75592  0.89980  0.64023  1.0000
  H   H2106     1.0  0.61569  0.84477  0.67684  1.0000
  C   C1235     1.0  0.75953  0.66138  0.68163  1.0000
  C   C1236     1.0  0.54672  0.62729  0.67366  1.0000
  H   H2107     1.0  0.63940  0.70157  0.47679  1.0000
  H   H2108     1.0  0.59347  0.99557  0.60768  1.0000
  H   H2109     1.0  0.60563  0.63040  0.52262  1.0000
  H   H2110     1.0  0.70864  0.66564  0.65761  1.0000
  H   H2111     1.0  0.64504  0.57624  0.53295  1.0000
  H   H2112     1.0  0.75959  0.61321  0.47933  1.0000
  S   S351      1.0  0.58763  0.97713  0.65473  1.0000
  H   H2113     1.0  0.77853  0.80820  0.71597  1.0000
  H   H2114     1.0  0.52794  0.91541  0.64230  1.0000
  H   H2115     1.0  0.55991  0.89357  0.69446  1.0000
  H   H2116     1.0  0.52526  0.94539  0.52761  1.0000
  C   C1237     1.0  0.65789  0.59808  0.52283  1.0000
  Fe  Fe174     1.0  0.63619  0.93695  0.59616  1.0000
  H   H2117     1.0  0.62398  0.55529  0.70018  1.0000
  C   C1238     1.0  0.55896  0.60922  0.53701  1.0000
  N   N88       1.0  0.99718  0.87034  0.48705  1.0000
  C   C1239     1.0  0.56146  0.59837  0.48727  1.0000
  H   H2118     1.0  0.60534  0.59744  0.48010  1.0000
  C   C1240     1.0  0.97173  0.89548  0.51116  1.0000
  C   C1241     1.0  0.58295  0.58391  0.48961  1.0000
  N   N89       1.0  0.57492  0.63113  0.49634  1.0000
  C   C1242     1.0  0.61666  0.68824  0.48607  1.0000
  H   H2119     1.0  0.70434  0.57207  0.70160  1.0000
  S   S352      1.0  0.65117  0.90679  0.61513  1.0000
  H   H2120     1.0  0.53391  0.63990  0.63088  1.0000
  H   H2121     1.0  0.73513  0.90515  0.66327  1.0000
  C   C1243     1.0  0.98479  0.84105  0.50127  1.0000
  Fe  Fe175     1.0  0.66644  0.94381  0.64196  1.0000
  C   C1244     1.0  0.55900  0.54477  0.70822  1.0000
  H   H2122     1.0  0.76378  0.95794  0.69424  1.0000
  C   C1245     1.0  0.63111  0.80187  0.68667  1.0000
  C   C1246     1.0  0.54995  0.64042  0.49436  1.0000
  H   H2123     1.0  0.61084  0.98504  0.49494  1.0000
  C   C1247     1.0  0.51761  0.91440  0.68902  1.0000
  H   H2124     1.0  0.61100  0.79537  0.67503  1.0000
  H   H2125     1.0  0.53985  0.89477  0.50114  1.0000
  H   H2126     1.0  0.63384  0.87090  0.69962  1.0000
  Fe  Fe176     1.0  0.57523  0.50408  0.46914  1.0000
  C   C1248     1.0  0.78527  0.94073  0.66090  1.0000
  C   C1249     1.0  0.60998  0.98167  0.51305  1.0000
  H   H2127     1.0  0.87135  0.54317  0.70038  1.0000
  H   H2128     1.0  0.64219  0.60828  0.52172  1.0000
  C   C1250     1.0  0.78836  0.79459  0.53197  1.0000
  C   C1251     1.0  0.62568  0.96731  0.52299  1.0000
  C   C1252     1.0  0.66486  0.59118  0.49886  1.0000
  H   H2129     1.0  0.66299  0.88991  0.66381  1.0000
  S   S353      1.0  0.76045  0.75547  0.47707  1.0000
  C   C1253     1.0  0.68755  0.66351  0.70666  1.0000
  H   H2130     1.0  0.99172  0.84748  0.51928  1.0000
  C   C1254     1.0  0.82918  0.98300  0.68145  1.0000
  H   H2131     1.0  0.70553  0.56181  0.47061  1.0000
  H   H2132     1.0  0.56931  0.61321  0.55428  1.0000
  C   C1255     1.0  0.82289  0.81585  0.53979  1.0000
  C   C1256     1.0  0.71133  0.61906  0.69930  1.0000
  N   N90       1.0  0.72461  0.64866  0.68536  1.0000
  C   C1257     1.0  0.60474  0.51522  0.64281  1.0000
  H   H2133     1.0  0.95194  0.90049  0.51025  1.0000
  H   H2134     1.0  0.99310  0.91766  0.51631  1.0000
  H   H2135     1.0  0.80096  0.69802  0.66429  1.0000
  H   H2136     1.0  0.66374  0.97634  0.67895  1.0000
  H   H2137     1.0  0.72793  0.61659  0.64772  1.0000
  H   H2138     1.0  0.69621  0.80369  0.68607  1.0000
  H   H2139     1.0  0.55136  0.61229  0.66199  1.0000
  C   C1258     1.0  0.59266  0.98756  0.55008  1.0000
  S   S354      1.0  0.71114  0.96188  0.66243  1.0000
  H   H2140     1.0  0.65210  0.81017  0.67553  1.0000
  H   H2141     1.0  0.54827  0.85612  0.70623  1.0000
  H   H2142     1.0  0.55281  0.93305  0.49163  1.0000
  C   C1259     1.0  0.62484  0.96302  0.54647  1.0000
  C   C1260     1.0  0.75043  0.60545  0.49672  1.0000
  C   C1261     1.0  0.68846  0.57029  0.47302  1.0000
  H   H2143     1.0  0.79599  0.90466  0.69346  1.0000
  H   H2144     1.0  0.57504  0.52298  0.68433  1.0000
  H   H2145     1.0  0.73683  0.59690  0.68408  1.0000
  H   H2146     1.0  0.69076  0.53911  0.50522  1.0000
  C   C1262     1.0  0.55375  0.51092  0.63672  1.0000
  H   H2147     1.0  0.76431  0.64517  0.67179  1.0000
  H   H2148     1.0  0.51881  0.88190  0.54082  1.0000
  H   H2149     1.0  0.69621  0.58128  0.67424  1.0000
  C   C1263     1.0  0.53192  0.90888  0.49148  1.0000
  C   C1264     1.0  0.59335  0.99168  0.52662  1.0000
  C   C1265     1.0  0.89860  0.88954  0.46857  1.0000
  H   H2150     1.0  0.77496  0.95576  0.65656  1.0000
  H   H2151     1.0  0.63057  0.52236  0.69810  1.0000
  H   H2152     1.0  0.54173  0.92325  0.68214  1.0000
  H   H2153     1.0  0.65634  0.53896  0.51381  1.0000
  C   C1266     1.0  0.81475  0.92934  0.69074  1.0000
  H   H2154     1.0  0.75927  0.00100  0.69420  1.0000
  C   C1267     1.0  0.55900  0.51548  0.69912  1.0000
  H   H2155     1.0  0.55396  0.55628  0.69393  1.0000
  H   H2156     1.0  0.52568  0.96058  0.67939  1.0000
  H   H2157     1.0  0.66487  0.54922  0.46980  1.0000
  H   H2158     1.0  0.84383  0.98540  0.66637  1.0000
  H   H2159     1.0  0.59158  0.64307  0.69077  1.0000
  H   H2160     1.0  0.69092  0.57854  0.54577  1.0000
  H   H2161     1.0  0.98615  0.90582  0.47652  1.0000
  H   H2162     1.0  0.74459  0.58079  0.49892  1.0000
  C   C1268     1.0  0.76001  0.79898  0.70340  1.0000
  C   C1269     1.0  0.51187  0.63798  0.63775  1.0000
  H   H2163     1.0  0.54302  0.85857  0.67681  1.0000
  H   H2164     1.0  0.60028  0.69536  0.47872  1.0000
  N   N91       1.0  0.51156  0.61353  0.67699  1.0000
  H   H2165     1.0  0.77171  0.66373  0.69804  1.0000
  H   H2166     1.0  0.64659  0.77503  0.70808  1.0000
  H   H2167     1.0  0.58223  0.56240  0.71523  1.0000
  H   H2168     1.0  0.51023  0.62916  0.71116  1.0000
  H   H2169     1.0  0.52086  0.95548  0.48896  1.0000
  C   C1270     1.0  0.53810  0.64079  0.47015  1.0000
  H   H2170     1.0  0.51972  0.88026  0.62816  1.0000
  S   S355      1.0  0.58190  0.50880  0.50675  1.0000
  H   H2171     1.0  0.60418  0.75967  0.70812  1.0000
  H   H2172     1.0  0.51711  0.66068  0.64500  1.0000
  C   C1271     1.0  0.62705  0.53774  0.70993  1.0000
  H   H2173     1.0  0.72361  0.62403  0.71598  1.0000
  C   C1272     1.0  0.66484  0.83836  0.71596  1.0000
  C   C1273     1.0  0.85783  0.52578  0.71313  1.0000
  C   C1274     1.0  0.75762  0.91840  0.71348  1.0000
  H   H2174     1.0  0.79300  0.96635  0.71535  1.0000
  C   C1275     1.0  0.71399  0.50336  0.71471  1.0000
  N   N92       1.0  0.69302  0.56375  0.86610  1.0000
  S   S356      1.0  0.76980  0.58898  0.72748  1.0000
  C   C1276     1.0  0.85953  0.51708  0.91230  1.0000
  H   H2175     1.0  0.85027  0.88978  0.86992  1.0000
  S   S357      1.0  0.94732  0.99131  0.85827  1.0000
  H   H2176     1.0  0.84707  0.97594  0.84302  1.0000
  H   H2177     1.0  0.83040  0.97026  0.75337  1.0000
  Fe  Fe177     1.0  0.84872  0.91250  0.74851  1.0000
  H   H2178     1.0  0.64928  0.55082  0.71981  1.0000
  H   H2179     1.0  0.79878  0.84654  0.93292  1.0000
  C   C1277     1.0  0.71882  0.56235  0.87916  1.0000
  H   H2180     1.0  0.57821  0.54065  0.93220  1.0000
  Fe  Fe178     1.0  0.81640  0.87175  0.78904  1.0000
  S   S358      1.0  0.86370  0.88818  0.77347  1.0000
  S   S359      1.0  0.81763  0.87452  0.82704  1.0000
  S   S360      1.0  0.79264  0.82709  0.76898  1.0000
  S   S361      1.0  0.80256  0.89848  0.76525  1.0000
  Fe  Fe179     1.0  0.78838  0.58754  0.79047  1.0000
  S   S362      1.0  0.82445  0.62165  0.76625  1.0000
  S   S363      1.0  0.80257  0.58872  0.82662  1.0000
  Fe  Fe180     1.0  0.73755  0.55773  0.75458  1.0000
  H   H2181     1.0  0.66324  0.81917  0.72682  1.0000
  H   H2182     1.0  0.73730  0.58258  0.83195  1.0000
  Fe  Fe181     1.0  0.80564  0.57901  0.74379  1.0000
  H   H2183     1.0  0.96690  0.91018  0.74590  1.0000
  Fe  Fe182     1.0  0.78469  0.62795  0.75281  1.0000
  S   S364      1.0  0.77600  0.66848  0.74563  1.0000
  S   S365      1.0  0.77205  0.54485  0.76890  1.0000
  S   S366      1.0  0.75006  0.59663  0.77907  1.0000
  C   C1278     1.0  0.70602  0.59383  0.85279  1.0000
  C   C1279     1.0  0.83625  0.51974  0.92451  1.0000
  C   C1280     1.0  0.85337  0.75654  0.74766  1.0000
  C   C1281     1.0  0.83433  0.72358  0.74777  1.0000
  C   C1282     1.0  0.80142  0.70960  0.74620  1.0000
  C   C1283     1.0  0.78780  0.72879  0.74466  1.0000
  C   C1284     1.0  0.80674  0.76160  0.74474  1.0000
  H   H2184     1.0  0.85496  0.50889  0.89502  1.0000
  H   H2185     1.0  0.86968  0.86151  0.81681  1.0000
  H   H2186     1.0  0.79445  0.75972  0.85359  1.0000
  C   C1285     1.0  0.63833  0.55891  0.87219  1.0000
  C   C1286     1.0  0.83815  0.53057  0.72768  1.0000
  H   H2187     1.0  0.77653  0.76335  0.82088  1.0000
  C   C1287     1.0  0.87198  0.54018  0.95635  1.0000
  H   H2188     1.0  0.85858  0.96652  0.88093  1.0000
  H   H2189     1.0  0.87325  0.58048  0.78315  1.0000
  C   C1288     1.0  0.78612  0.54784  0.86178  1.0000
  C   C1289     1.0  0.77841  0.55291  0.84002  1.0000
  H   H2190     1.0  0.89004  0.53665  0.85602  1.0000
  H   H2191     1.0  0.51842  0.65224  0.80125  1.0000
  H   H2192     1.0  0.87405  0.74449  0.82666  1.0000
  H   H2193     1.0  0.80716  0.56585  0.87010  1.0000
  H   H2194     1.0  0.74480  0.53359  0.81270  1.0000
  C   C1290     1.0  0.80806  0.89397  0.93841  1.0000
  H   H2195     1.0  0.69657  0.87238  0.74038  1.0000
  C   C1291     1.0  0.89995  0.95747  0.82812  1.0000
  H   H2196     1.0  0.91735  0.54305  0.95224  1.0000
  C   C1292     1.0  0.87097  0.93205  0.82120  1.0000
  C   C1293     1.0  0.85302  0.90745  0.83618  1.0000
  H   H2197     1.0  0.87328  0.78859  0.78956  1.0000
  S   S367      1.0  0.97100  0.00006  0.95969  1.0000
  H   H2198     1.0  0.74773  0.61279  0.88814  1.0000
  H   H2199     1.0  0.86235  0.93169  0.80432  1.0000
  H   H2200     1.0  0.85250  0.73131  0.80022  1.0000
  Fe  Fe183     1.0  0.83941  0.84554  0.75165  1.0000
  C   C1294     1.0  0.66889  0.56231  0.88262  1.0000
  H   H2201     1.0  0.88855  0.54711  0.80450  1.0000
  H   H2202     1.0  0.80541  0.51111  0.75542  1.0000
  H   H2203     1.0  0.66210  0.54290  0.89484  1.0000
  H   H2204     1.0  0.60666  0.50512  0.73739  1.0000
  H   H2205     1.0  0.89440  0.75502  0.80030  1.0000
  H   H2206     1.0  0.84100  0.75326  0.84721  1.0000
  C   C1295     1.0  0.86292  0.53796  0.80130  1.0000
  C   C1296     1.0  0.67377  0.86619  0.73202  1.0000
  C   C1297     1.0  0.84364  0.77652  0.84323  1.0000
  H   H2207     1.0  0.87909  0.56361  0.86655  1.0000
  H   H2208     1.0  0.85403  0.98378  0.90588  1.0000
  H   H2209     1.0  0.82844  0.89923  0.94973  1.0000
  H   H2210     1.0  0.82010  0.80199  0.85576  1.0000
  H   H2211     1.0  0.92808  0.89036  0.75889  1.0000
  C   C1298     1.0  0.87993  0.55152  0.85096  1.0000
  H   H2212     1.0  0.72261  0.58770  0.91071  1.0000
  H   H2213     1.0  0.83558  0.96825  0.81355  1.0000
  H   H2214     1.0  0.73672  0.61713  0.82406  1.0000
  Fe  Fe184     1.0  0.95795  0.99394  0.89561  1.0000
  C   C1299     1.0  0.73608  0.60279  0.83878  1.0000
  H   H2215     1.0  0.82290  0.77633  0.87563  1.0000
  S   S368      1.0  0.96537  0.95878  0.91491  1.0000
  S   S369      1.0  0.92130  0.99225  0.91911  1.0000
  N   N93       1.0  0.81264  0.92370  0.92745  1.0000
  H   H2216     1.0  0.77285  0.51553  0.88960  1.0000
  C   C1300     1.0  0.83471  0.93240  0.90753  1.0000
  S   S370      1.0  0.76318  0.97337  0.88030  1.0000
  C   C1301     1.0  0.78136  0.92075  0.92102  1.0000
  C   C1302     1.0  0.59945  0.51895  0.72648  1.0000
  C   C1303     1.0  0.88875  0.52508  0.92232  1.0000
  H   H2217     1.0  0.52077  0.56513  0.75240  1.0000
  C   C1304     1.0  0.76198  0.89703  0.90237  1.0000
  H   H2218     1.0  0.88468  0.00149  0.80190  1.0000
  H   H2219     1.0  0.60878  0.83514  0.72878  1.0000
  H   H2220     1.0  0.82566  0.91377  0.89455  1.0000
  H   H2221     1.0  0.85767  0.93474  0.91303  1.0000
  C   C1305     1.0  0.67833  0.53656  0.84983  1.0000
  C   C1306     1.0  0.69763  0.99152  0.86467  1.0000
  S   S371      1.0  0.83708  0.56584  0.72441  1.0000
  H   H2222     1.0  0.78413  0.94377  0.91605  1.0000
  H   H2223     1.0  0.79584  0.77597  0.74347  1.0000
  S   S372      1.0  0.91840  0.52377  0.90607  1.0000
  N   N94       1.0  0.84286  0.51521  0.81951  1.0000
  H   H2224     1.0  0.62639  0.55397  0.95464  1.0000
  C   C1307     1.0  0.94370  0.93896  0.74841  1.0000
  C   C1308     1.0  0.89468  0.53618  0.94454  1.0000
  H   H2225     1.0  0.91893  0.93337  0.75104  1.0000
  H   H2226     1.0  0.82041  0.96107  0.88739  1.0000
  H   H2227     1.0  0.80012  0.51636  0.81154  1.0000
  H   H2228     1.0  0.77646  0.89610  0.88842  1.0000
  H   H2229     1.0  0.70335  0.98071  0.87907  1.0000
  H   H2230     1.0  0.74641  0.90459  0.89412  1.0000
  H   H2231     1.0  0.76540  0.91384  0.93591  1.0000
  H   H2232     1.0  0.74689  0.87325  0.90958  1.0000
  C   C1309     1.0  0.84342  0.81100  0.81223  1.0000
  C   C1310     1.0  0.83408  0.97975  0.82921  1.0000
  S   S373      1.0  0.77585  0.98568  0.94607  1.0000
  H   H2233     1.0  0.75784  0.61816  0.84858  1.0000
  H   H2234     1.0  0.78608  0.77192  0.79140  1.0000
  H   H2235     1.0  0.54012  0.53863  0.72093  1.0000
  H   H2236     1.0  0.60780  0.79889  0.73103  1.0000
  H   H2237     1.0  0.95469  0.92026  0.78853  1.0000
  H   H2238     1.0  0.71193  0.61380  0.86437  1.0000
  C   C1311     1.0  0.75125  0.52956  0.82931  1.0000
  H   H2239     1.0  0.84199  0.81306  0.79358  1.0000
  H   H2240     1.0  0.00337  0.95102  0.77011  1.0000
  H   H2241     1.0  0.82854  0.87464  0.91473  1.0000
  C   C1312     1.0  0.56344  0.94347  0.95937  1.0000
  C   C1313     1.0  0.81322  0.75300  0.80788  1.0000
  C   C1314     1.0  0.87260  0.75120  0.80900  1.0000
  C   C1315     1.0  0.61805  0.53555  0.94212  1.0000
  H   H2242     1.0  0.82265  0.81180  0.81901  1.0000
  H   H2243     1.0  0.67913  0.58379  0.89326  1.0000
  H   H2244     1.0  0.81387  0.51359  0.91664  1.0000
  H   H2245     1.0  0.54298  0.50415  0.74365  1.0000
  C   C1316     1.0  0.82834  0.94988  0.94451  1.0000
  C   C1317     1.0  0.85816  0.56633  0.79750  1.0000
  H   H2246     1.0  0.87650  0.84130  0.83894  1.0000
  C   C1318     1.0  0.58044  0.50507  0.91263  1.0000
  H   H2247     1.0  0.75762  0.58731  0.90278  1.0000
  H   H2248     1.0  0.76298  0.73239  0.80059  1.0000
  C   C1319     1.0  0.87117  0.78181  0.80771  1.0000
  C   C1320     1.0  0.84604  0.53189  0.84152  1.0000
  S   S374      1.0  0.86379  0.81693  0.74773  1.0000
  H   H2249     1.0  0.68790  0.59285  0.84085  1.0000
  H   H2250     1.0  0.89458  0.84569  0.81126  1.0000
  S   S375      1.0  0.88373  0.96208  0.73802  1.0000
  H   H2251     1.0  0.83590  0.54760  0.84004  1.0000
  N   N95       1.0  0.96460  0.96005  0.76707  1.0000
  H   H2252     1.0  0.82866  0.97138  0.93844  1.0000
  Fe  Fe185     1.0  0.75219  0.98652  0.91399  1.0000
  C   C1321     1.0  0.86391  0.90885  0.85833  1.0000
  S   S376      1.0  0.70364  0.96249  0.92890  1.0000
  H   H2253     1.0  0.86528  0.58205  0.81238  1.0000
  H   H2254     1.0  0.87883  0.76723  0.74874  1.0000
  H   H2255     1.0  0.89328  0.80011  0.81588  1.0000
  H   H2256     1.0  0.83350  0.55913  0.79275  1.0000
  C   C1322     1.0  0.80536  0.86784  0.92266  1.0000
  C   C1323     1.0  0.89278  0.93461  0.86539  1.0000
  H   H2257     1.0  0.89609  0.56999  0.83907  1.0000
  C   C1324     1.0  0.83962  0.77566  0.74632  1.0000
  H   H2258     1.0  0.92760  0.93413  0.79175  1.0000
  Fe  Fe186     1.0  0.72826  0.96697  0.96178  1.0000
  H   H2259     1.0  0.78715  0.86121  0.90942  1.0000
  H   H2260     1.0  0.93498  0.98046  0.77311  1.0000
  H   H2261     1.0  0.64318  0.57814  0.86025  1.0000
  C   C1325     1.0  0.84259  0.53170  0.94652  1.0000
  Fe  Fe187     1.0  0.78421  0.85565  0.74314  1.0000
  C   C1326     1.0  0.94297  0.90745  0.74570  1.0000
  H   H2262     1.0  0.76238  0.71828  0.74351  1.0000
  H   H2263     1.0  0.59824  0.53594  0.73821  1.0000
  S   S377      1.0  0.73912  0.52492  0.92524  1.0000
  H   H2264     1.0  0.66133  0.53847  0.83830  1.0000
  H   H2265     1.0  0.80656  0.73103  0.81739  1.0000
  C   C1327     1.0  0.81863  0.77889  0.85750  1.0000
  C   C1328     1.0  0.82076  0.50771  0.74414  1.0000
  Fe  Fe188     1.0  0.76344  0.51130  0.95140  1.0000
  H   H2266     1.0  0.78678  0.88351  0.94951  1.0000
  H   H2267     1.0  0.69650  0.53676  0.83848  1.0000
  C   C1329     1.0  0.63488  0.51975  0.93847  1.0000
  S   S378      1.0  0.89544  0.92227  0.96063  1.0000
  H   H2268     1.0  0.90120  0.93548  0.88245  1.0000
  C   C1330     1.0  0.91092  0.95889  0.85022  1.0000
  C   C1331     1.0  0.96012  0.98814  0.76895  1.0000
  C   C1332     1.0  0.87295  0.84123  0.82045  1.0000
  H   H2269     1.0  0.73608  0.56123  0.86759  1.0000
  H   H2270     1.0  0.85821  0.52600  0.78466  1.0000
  H   H2271     1.0  0.62348  0.56004  0.88594  1.0000
  S   S379      1.0  0.66972  0.53078  0.95420  1.0000
  C   C1333     1.0  0.78318  0.75566  0.80536  1.0000
  C   C1334     1.0  0.59069  0.52796  0.92949  1.0000
  H   H2272     1.0  0.55728  0.92150  0.95022  1.0000
  H   H2273     1.0  0.62383  0.53594  0.86377  1.0000
  H   H2274     1.0  0.67718  0.88741  0.72304  1.0000
  H   H2275     1.0  0.74118  0.92160  0.72459  1.0000
  H   H2276     1.0  0.85358  0.95661  0.94678  1.0000
  H   H2277     1.0  0.70888  0.54049  0.88932  1.0000
  H   H2278     1.0  0.55305  0.95535  0.94962  1.0000
  C   C1335     1.0  0.84201  0.96275  0.89497  1.0000
  H   H2279     1.0  0.81808  0.74833  0.79038  1.0000
  H   H2280     1.0  0.58965  0.95779  0.95909  1.0000
  H   H2281     1.0  0.93177  0.89676  0.72925  1.0000
  H   H2282     1.0  0.84510  0.70904  0.74879  1.0000
  C   C1336     1.0  0.73746  0.58933  0.89601  1.0000
  N   N96       1.0  0.84232  0.78062  0.81806  1.0000
  Fe  Fe189     1.0  0.93247  0.96130  0.94000  1.0000
  C   C1337     1.0  0.84811  0.99155  0.74527  1.0000
  Fe  Fe190     1.0  0.69764  0.50582  0.94891  1.0000
  S   S380      1.0  0.82985  0.87180  0.72455  1.0000
  H   H2283     1.0  0.86723  0.79400  0.85008  1.0000
  C   C1338     1.0  0.95309  0.94197  0.78899  1.0000
  H   H2284     1.0  0.83213  0.51493  0.85509  1.0000
  H   H2285     1.0  0.65615  0.86000  0.74570  1.0000
  C   C1339     1.0  0.76658  0.51951  0.87289  1.0000
  H   H2286     1.0  0.94988  0.95054  0.73169  1.0000
  S   S381      1.0  0.68690  0.52360  0.74601  1.0000
  H   H2287     1.0  0.99667  0.96697  0.80973  1.0000
  H   H2288     1.0  0.67179  0.98174  0.86475  1.0000
  Fe  Fe191     1.0  0.00413  0.00067  0.93315  1.0000
  H   H2289     1.0  0.77131  0.91134  0.72461  1.0000
  S   S382      1.0  0.73989  0.83707  0.72212  1.0000
  H   H2290     1.0  0.87943  0.50385  0.82703  1.0000
  C   C1340     1.0  0.97113  0.95929  0.81060  1.0000
  H   H2291     1.0  0.70453  0.98395  0.84909  1.0000
  S   S383      1.0  0.81481  0.53705  0.96213  1.0000
  H   H2292     1.0  0.80874  0.96746  0.83421  1.0000
  S   S384      1.0  0.99524  0.52361  0.93867  1.0000
  H   H2293     1.0  0.91383  0.97621  0.81638  1.0000
  H   H2294     1.0  0.96123  0.94301  0.82523  1.0000
  Fe  Fe192     1.0  0.94743  0.50393  0.92134  1.0000
  H   H2295     1.0  0.95602  0.99741  0.73272  1.0000
  H   H2296     1.0  0.99941  0.98430  0.72758  1.0000
  H   H2297     1.0  0.67923  0.64607  0.72058  1.0000
  H   H2298     1.0  0.51233  0.61037  0.75058  1.0000
  C   C1341     1.0  0.87592  0.99341  0.73689  1.0000
  H   H2299     1.0  0.55597  0.79286  0.72087  1.0000
  C   C1342     1.0  0.66103  0.50357  0.86060  1.0000
  H   H2300     1.0  0.75695  0.98735  0.83397  1.0000
  C   C1343     1.0  0.99903  0.96992  0.76391  1.0000
  H   H2301     1.0  0.96807  0.97950  0.81469  1.0000
  H   H2302     1.0  0.73630  0.51853  0.72296  1.0000
  C   C1344     1.0  0.60728  0.81555  0.71853  1.0000
  H   H2303     1.0  0.51483  0.93249  0.81196  1.0000
  H   H2304     1.0  0.51341  0.88487  0.82753  1.0000
