data_image0
_chemical_formula_structural       FeSCFeS2FeSFeS3FeS2FeS2FeSFeS3HCH2SH4CHC3H8C7H4CH3C2H5CHCH4C2H3C2H5CH2CH2N2H3C3H4C2H2CHCHCH4C2HCHC2NH3C2HCH6CH3NCH4CH2C2H2C2H6C3HCHC3HCH7CH3FeS2FeHSFeSFeS3FeS2FeS2FeSFeS3H4S2CHCHCH3CH5C2HC3FeC6H11C2H2CNHC2HC2H3CH3SHC2H4CNHCH2C2H7CH6CNC2HSCH2CH7CH5C3HC2H5C3HCHCH7C3H2CHCSH9SH9C6H2CHC2H6CHCNHC2H2CHNHNCH3FeNSFeCH2S3HSHFeSFeCSFeS2FeS2FeSFeS3FeS2FeS2FeSFeS3C2H3C4HC6H4C9H5CHC4HCH3C2H2C2H2CHCH3FeHCH2C2H2NSC4NH4CHSH6C2HC2H2CHCH8NCH10C3FeH2CH2C2HCH3C2H4NH4CH2C2HCH10C5H2CH4CHNCH3C2H4CH4CH2C2H3CNHCHC2H2CSH3CH7CHC2HCH2C2H2C2HSH2CH3CH10CFeH2CHCH2CH4C4HFeSHFeS2FeSFeS3FeS2FeS2FeSFeS3FeHSFeSHCS2HCFeS2H2CSHC2H2C2HNH2CH2CHCHFeCNC6H4SH3C6H2CHC6H6FeH2NCHNC8H20NC8H20C4HCHCHCH3C4H2CH2CHC2H4C2H3C2H3NH5CHC2H2CH2CH2CHNC2HFeCSH2SCH3CH3CHCHCH6CH5C2H2CH5CHCH5C2HCH2CH4C3HNCH3SHCHCH2CHCH2CHC2H2CHCH3FeS2FeS2FeSFeS3FeS2FeHSFeSFeHS2H4C3FeHCHC3H3C2HFeHSHC6H4CHCH5CHCH2CHCH2CH3NCH5C2HCSH4CHCNC4HC5H6CH11NH2C2HCH2SH2CHCHC2H8NC7H8CHCH8CH2CHCH3CH2CHSCH6CSCH3C2H2CH2CH4CSCH2CSH2NHC3HCSHCHC4H9C3H2CHCNH2CH2C4HFeS2FeS2FeSFeS3FeS2FeSHFeSFeS3H6C3HC2H2CH6CHNC6H5C2H3C2H10CH2CH5NC4H3CHCHNC5HC2HCH4CH4C2H2CH5CH2CHC2H4CH3C3H3SH3CHCH3CFeS2FeCSFeCFeS3FeS2FeS2FeSFeS3HC4HSCHCH5C2HC6H5CHCH3C2HCNC3HCH2CH3CH3CH7CH3CH4CHCNHCHCNHSH5CHCH3CHCH2CHCH3C2H2CH2CHCH5C2H5CNCH7C2H6FeSHFeS2FeSFeS3FeS2FeS2FeSFeS3H2S2NHCH2NC2H2C3H3CHCH5C6H4C3H11SHC2H3C3H2CHC3H3CHC2H2CH10CH3CH2CH2CH5CHCH4CHC2FeCH7CH10SC2H7C2H2CHNC2NC2H3CHCH2CH2CHCH4CH2CH3CHC3H2CHC2SH3CHNCHCHSHCHCH2CH3C3HCHC2FeHC3H3FeSFeHSH2S3FeSHFeSFeS2FeS2FeSCFeSFeS3FeS2FeS2FeSFeS3C6H4C6H4C6H7CHSHC2H2C3H3CHCH2C3H2NCHCH2C2NH4CH2C2NC8H20SH2C3HC4H4C3H2C2HC2NH6CH2CH2CH4C2H3CHC2HCHCH4CH2SH11CH3CHCH4CHC2H2CHC2NH3CHCH2CH4CH2C3HCHFeH2CH3FeS2FeS2FeSFeS3FeS2FeSHFeSFeS3FeCFeS2FeCS2FeHSFeSH2S2CHC2H2C6HCH2C6H4C6H8CHCHC2H4C3HC2H2C3H3CHNC8H21CH3CHCH2CFeH5CHNH2CHCHCH2NC8H22CHCH5CH4SCHCHC2HC2H2CH2CH3C3H2CH5CH3CHC2HSNCHCHNH3CH8SHCHCHCNH2C3SCH3CNHS2CSFeSHFeS2FeSFeS3FeS2FeS2FeCFeS3H4CHC3HC4H2C2H5C6H7SC3H3CH7CH3NC8H14NHCH3CH4CH3CHC3H2CH2CH2CH4CHCH4CHCHCH4C2HCH2NHCHSHCH3CHC2HC2HCH2CHC2HCH7CH2C2HC2HSCH3CH2FeSH4CHFeH3CFeS2FeS2FeSFeS3FeS2FeSCFeSFeS3H4CH2C3H5C2H5C6H4CHNC2H3C2H2C2HNCHCHNCH2CH3CH4CH2CHCNC8H20NC8H9CH12C4SH4CH6NH7CHC4H
_chemical_formula_sum              "Fe128 S256 C896 H1536 N64"
_cell_length_a       41.2644
_cell_length_b       41.2965
_cell_length_c       83.4289
_cell_angle_alpha    90.5378
_cell_angle_beta     90.5081
_cell_angle_gamma    90.7959

_space_group_name_H-M_alt    "P 1"
_space_group_IT_number       1

loop_
  _space_group_symop_operation_xyz
  'x, y, z'

loop_
  _atom_site_type_symbol
  _atom_site_label
  _atom_site_symmetry_multiplicity
  _atom_site_fract_x
  _atom_site_fract_y
  _atom_site_fract_z
  _atom_site_occupancy
  Fe  Fe1       1.0  0.19431  0.44823  0.05973  1.0000
  S   S1        1.0  0.21292  0.42459  0.03709  1.0000
  C   C1        1.0  0.42055  0.07223  0.12584  1.0000
  Fe  Fe2       1.0  0.12702  0.41787  0.05461  1.0000
  S   S2        1.0  0.14171  0.39282  0.03192  1.0000
  S   S3        1.0  0.07632  0.40165  0.06152  1.0000
  Fe  Fe3       1.0  0.18670  0.37938  0.04522  1.0000
  S   S4        1.0  0.21053  0.33025  0.04101  1.0000
  Fe  Fe4       1.0  0.16633  0.43981  0.02551  1.0000
  S   S5        1.0  0.15926  0.45240  0.99905  1.0000
  S   S6        1.0  0.17116  0.40183  0.06854  1.0000
  S   S7        1.0  0.14853  0.46612  0.04745  1.0000
  Fe  Fe5       1.0  0.18055  0.13628  0.05818  1.0000
  S   S8        1.0  0.14598  0.10591  0.07285  1.0000
  S   S9        1.0  0.18426  0.18820  0.06837  1.0000
  Fe  Fe6       1.0  0.19085  0.07965  0.03438  1.0000
  S   S10       1.0  0.15659  0.04696  0.04746  1.0000
  S   S11       1.0  0.21776  0.05915  0.01276  1.0000
  Fe  Fe7       1.0  0.12433  0.09027  0.04922  1.0000
  S   S12       1.0  0.07236  0.09052  0.03970  1.0000
  Fe  Fe8       1.0  0.18191  0.06525  0.07002  1.0000
  S   S13       1.0  0.19327  0.02827  0.08992  1.0000
  S   S14       1.0  0.15727  0.12208  0.03462  1.0000
  S   S15       1.0  0.21782  0.09645  0.05686  1.0000
  H   H1        1.0  0.44705  0.05162  0.14538  1.0000
  C   C2        1.0  0.22883  0.01322  0.09974  1.0000
  H   H2        1.0  0.10041  0.16677  0.08076  1.0000
  H   H3        1.0  0.01167  0.46888  0.00051  1.0000
  S   S16       1.0  0.23234  0.48162  0.07214  1.0000
  H   H4        1.0  0.27222  0.34673  0.05546  1.0000
  H   H5        1.0  0.31015  0.34765  0.06561  1.0000
  H   H6        1.0  0.26340  0.04374  0.08774  1.0000
  H   H7        1.0  0.07408  0.20008  0.07754  1.0000
  C   C3        1.0  0.05107  0.41628  0.01587  1.0000
  H   H8        1.0  0.23723  0.36776  0.11089  1.0000
  C   C4        1.0  0.19744  0.03828  0.99678  1.0000
  C   C5        1.0  0.03378  0.09657  0.06674  1.0000
  C   C6        1.0  0.03522  0.09400  0.05004  1.0000
  H   H9        1.0  0.06141  0.15896  0.07229  1.0000
  H   H10       1.0  0.05586  0.09573  0.07381  1.0000
  H   H11       1.0  0.25375  0.41330  0.08189  1.0000
  H   H12       1.0  0.09571  0.44327  0.01896  1.0000
  H   H13       1.0  0.04886  0.25418  0.02827  1.0000
  H   H14       1.0  0.24609  0.03008  0.04036  1.0000
  H   H15       1.0  0.08376  0.21141  0.01839  1.0000
  H   H16       1.0  0.19748  0.02198  0.24546  1.0000
  C   C7        1.0  0.09620  0.19768  0.02794  1.0000
  C   C8        1.0  0.19939  0.29078  0.04770  1.0000
  C   C9        1.0  0.18071  0.28588  0.06141  1.0000
  C   C10       1.0  0.17581  0.25427  0.06735  1.0000
  C   C11       1.0  0.18877  0.22709  0.05949  1.0000
  C   C12       1.0  0.20650  0.23192  0.04547  1.0000
  C   C13       1.0  0.21208  0.26358  0.03976  1.0000
  H   H17       1.0  0.17096  0.30648  0.06774  1.0000
  H   H18       1.0  0.16228  0.25088  0.07827  1.0000
  H   H19       1.0  0.21693  0.21137  0.03936  1.0000
  H   H20       1.0  0.22679  0.26705  0.02922  1.0000
  C   C14       1.0  0.22193  0.36780  0.09989  1.0000
  H   H21       1.0  0.09095  0.26521  0.03063  1.0000
  H   H22       1.0  0.06454  0.45505  0.03183  1.0000
  H   H23       1.0  0.38662  0.02367  0.17999  1.0000
  C   C15       1.0  0.04086  0.42514  0.06178  1.0000
  C   C16       1.0  0.04184  0.45853  0.06476  1.0000
  H   H24       1.0  0.14275  0.48538  0.26473  1.0000
  H   H25       1.0  0.02470  0.41957  0.01411  1.0000
  H   H26       1.0  0.23891  0.48852  0.30059  1.0000
  H   H27       1.0  0.41940  0.09896  0.12731  1.0000
  H   H28       1.0  0.09410  0.45375  0.99065  1.0000
  C   C17       1.0  0.13148  0.21067  0.02882  1.0000
  H   H29       1.0  0.32259  0.32603  0.09924  1.0000
  C   C18       1.0  0.00980  0.48551  0.02473  1.0000
  H   H30       1.0  0.28626  0.38924  0.10171  1.0000
  H   H31       1.0  0.14033  0.21570  0.01655  1.0000
  H   H32       1.0  0.25553  0.29637  0.06787  1.0000
  H   H33       1.0  0.29122  0.48120  0.31039  1.0000
  C   C19       1.0  0.28739  0.01147  0.10427  1.0000
  C   C20       1.0  0.16365  0.48921  0.98838  1.0000
  H   H34       1.0  0.32157  0.05383  0.13894  1.0000
  H   H35       1.0  0.10923  0.48908  0.28530  1.0000
  H   H36       1.0  0.13433  0.02795  0.25889  1.0000
  C   C21       1.0  0.00629  0.09500  0.04104  1.0000
  C   C22       1.0  0.23328  0.47952  0.10574  1.0000
  H   H37       1.0  0.23411  0.47993  0.13166  1.0000
  H   H38       1.0  0.13951  0.47309  0.24436  1.0000
  H   H39       1.0  0.01354  0.50165  0.06820  1.0000
  H   H40       1.0  0.06152  0.28245  0.04342  1.0000
  H   H41       1.0  0.05275  0.44370  0.98744  1.0000
  C   C23       1.0  0.28101  0.30491  0.06940  1.0000
  H   H42       1.0  0.05176  0.23359  0.05785  1.0000
  H   H43       1.0  0.14785  0.19236  0.03400  1.0000
  C   C24       1.0  0.36613  0.03373  0.14821  1.0000
  H   H44       1.0  0.29496  0.29274  0.05980  1.0000
  H   H45       1.0  0.28121  0.32281  0.10608  1.0000
  N   N1        1.0  0.26982  0.36331  0.08021  1.0000
  N   N2        1.0  0.07779  0.19874  0.04348  1.0000
  H   H46       1.0  0.36420  0.04892  0.15921  1.0000
  H   H47       1.0  0.30868  0.34836  0.11648  1.0000
  H   H48       1.0  0.24299  0.39305  0.06369  1.0000
  C   C25       1.0  0.09713  0.18021  0.05570  1.0000
  C   C26       1.0  0.06823  0.25970  0.03712  1.0000
  C   C27       1.0  0.06929  0.44855  0.01919  1.0000
  H   H49       1.0  0.28242  0.43584  0.05916  1.0000
  H   H50       1.0  0.05024  0.15553  0.03725  1.0000
  H   H51       1.0  0.10245  0.15537  0.05118  1.0000
  H   H52       1.0  0.03242  0.17914  0.05262  1.0000
  C   C28       1.0  0.30189  0.33961  0.10425  1.0000
  C   C29       1.0  0.08188  0.17661  0.07244  1.0000
  H   H53       1.0  0.13403  0.23327  0.03601  1.0000
  H   H54       1.0  0.03216  0.19921  0.01716  1.0000
  C   C30       1.0  0.21540  0.01942  0.98598  1.0000
  H   H55       1.0  0.42107  0.04987  0.17534  1.0000
  C   C31       1.0  0.07295  0.23283  0.04969  1.0000
  H   H56       1.0  0.41372  0.07527  0.15149  1.0000
  C   C32       1.0  0.42107  0.05647  0.14263  1.0000
  H   H57       1.0  0.22018  0.34789  0.07578  1.0000
  H   H58       1.0  0.35649  0.07763  0.13427  1.0000
  H   H59       1.0  0.09857  0.01720  0.24728  1.0000
  H   H60       1.0  0.19874  0.35532  0.10286  1.0000
  C   C33       1.0  0.02166  0.19521  0.02915  1.0000
  C   C34       1.0  0.11440  0.01002  0.25744  1.0000
  H   H61       1.0  0.31743  0.37761  0.08897  1.0000
  C   C35       1.0  0.06932  0.46398  0.99112  1.0000
  H   H62       1.0  0.21334  0.46232  0.10481  1.0000
  C   C36       1.0  0.29133  0.41302  0.06450  1.0000
  C   C37       1.0  0.29378  0.36894  0.09372  1.0000
  N   N3        1.0  0.06168  0.47578  0.00786  1.0000
  H   H63       1.0  0.35669  0.48391  0.29406  1.0000
  H   H64       1.0  0.01088  0.21771  0.03396  1.0000
  H   H65       1.0  0.30131  0.39853  0.05449  1.0000
  C   C38       1.0  0.28395  0.34193  0.06728  1.0000
  C   C39       1.0  0.23795  0.34940  0.08592  1.0000
  H   H66       1.0  0.34715  0.04003  0.12348  1.0000
  C   C40       1.0  0.34737  0.05237  0.13529  1.0000
  H   H67       1.0  0.09724  0.17229  0.02327  1.0000
  H   H68       1.0  0.14974  0.05463  0.00277  1.0000
  H   H69       1.0  0.24010  0.32406  0.08997  1.0000
  H   H70       1.0  0.39141  0.01370  0.11952  1.0000
  H   H71       1.0  0.21574  0.39300  0.09681  1.0000
  H   H72       1.0  0.06489  0.47076  0.06673  1.0000
  C   C41       1.0  0.26269  0.39574  0.07281  1.0000
  H   H73       1.0  0.31081  0.42013  0.07311  1.0000
  H   H74       1.0  0.29070  0.29652  0.08099  1.0000
  H   H75       1.0  0.12095  0.19222  0.05792  1.0000
  N   N4        1.0  0.40102  0.02597  0.14471  1.0000
  C   C42       1.0  0.04588  0.18092  0.04118  1.0000
  H   H76       1.0  0.06133  0.40341  0.00538  1.0000
  H   H77       1.0  0.09944  0.01126  0.26845  1.0000
  H   H78       1.0  0.09405  0.24108  0.05722  1.0000
  H   H79       1.0  0.00979  0.38355  0.05740  1.0000
  C   C43       1.0  0.16392  0.04034  0.99454  1.0000
  H   H80       1.0  0.15015  0.01719  0.23256  1.0000
  H   H81       1.0  0.00720  0.09309  0.02811  1.0000
  C   C44       1.0  0.41180  0.02458  0.17543  1.0000
  C   C45       1.0  0.41425  0.00769  0.15890  1.0000
  H   H82       1.0  0.05432  0.40012  0.02633  1.0000
  H   H83       1.0  0.10528  0.46694  0.25687  1.0000
  C   C46       1.0  0.01274  0.47590  0.06568  1.0000
  C   C47       1.0  0.01073  0.40942  0.05955  1.0000
  H   H84       1.0  0.40000  0.06506  0.11797  1.0000
  H   H85       1.0  0.02611  0.49023  0.03500  1.0000
  H   H86       1.0  0.25169  0.49055  0.27978  1.0000
  H   H87       1.0  0.31135  0.02040  0.10137  1.0000
  H   H88       1.0  0.30471  0.48772  0.28382  1.0000
  H   H89       1.0  0.18274  0.01288  0.26548  1.0000
  C   C48       1.0  0.02655  0.48562  0.00823  1.0000
  C   C49       1.0  0.26015  0.02460  0.09635  1.0000
  C   C50       1.0  0.12565  0.48383  0.25440  1.0000
  H   H90       1.0  0.25051  0.02258  0.06157  1.0000
  C   C51       1.0  0.25976  0.01649  0.04950  1.0000
  H   H91       1.0  0.44359  0.06761  0.11948  1.0000
  C   C52       1.0  0.24512  0.48964  0.12098  1.0000
  C   C53       1.0  0.24694  0.49214  0.09178  1.0000
  C   C54       1.0  0.00357  0.09983  0.07433  1.0000
  H   H92       1.0  0.24130  0.01741  0.98769  1.0000
  C   C55       1.0  0.19698  0.00398  0.25521  1.0000
  H   H93       1.0  0.28530  0.02527  0.04918  1.0000
  H   H94       1.0  0.42678  0.01121  0.18424  1.0000
  H   H95       1.0  0.00260  0.10148  0.08727  1.0000
  H   H96       1.0  0.16606  0.00650  0.20556  1.0000
  H   H97       1.0  0.10975  0.49698  0.01009  1.0000
  H   H98       1.0  0.35214  0.01105  0.15063  1.0000
  H   H99       1.0  0.06370  0.49182  0.26731  1.0000
  C   C56       1.0  0.40230  0.00328  0.13044  1.0000
  H   H100      1.0  0.45425  0.01161  0.12492  1.0000
  H   H101      1.0  0.44041  0.00230  0.15734  1.0000
  H   H102      1.0  0.19897  0.00235  0.03103  1.0000
  Fe  Fe9       1.0  0.36482  0.38968  0.41694  1.0000
  S   S17       1.0  0.37211  0.41647  0.39381  1.0000
  S   S18       1.0  0.37813  0.33709  0.42278  1.0000
  Fe  Fe10      1.0  0.35359  0.45389  0.43584  1.0000
  H   H103      1.0  0.45182  0.39107  0.40478  1.0000
  S   S19       1.0  0.34023  0.46609  0.46171  1.0000
  Fe  Fe11      1.0  0.33010  0.44795  0.40091  1.0000
  S   S20       1.0  0.28650  0.45851  0.38445  1.0000
  Fe  Fe12      1.0  0.40229  0.45179  0.40851  1.0000
  S   S21       1.0  0.45030  0.46877  0.39824  1.0000
  S   S22       1.0  0.32036  0.41814  0.42308  1.0000
  S   S23       1.0  0.39743  0.42375  0.43116  1.0000
  Fe  Fe13      1.0  0.35070  0.07007  0.39996  1.0000
  S   S24       1.0  0.31749  0.10230  0.41401  1.0000
  S   S25       1.0  0.33948  0.03093  0.38078  1.0000
  Fe  Fe14      1.0  0.41094  0.09613  0.41839  1.0000
  S   S26       1.0  0.38178  0.13047  0.43333  1.0000
  S   S27       1.0  0.46295  0.08928  0.42655  1.0000
  Fe  Fe15      1.0  0.34704  0.08844  0.43583  1.0000
  S   S28       1.0  0.32679  0.07950  0.46081  1.0000
  Fe  Fe16      1.0  0.35541  0.14179  0.41046  1.0000
  S   S29       1.0  0.33912  0.19179  0.40194  1.0000
  S   S30       1.0  0.37741  0.05362  0.42212  1.0000
  S   S31       1.0  0.38723  0.11021  0.39513  1.0000
  H   H104      1.0  0.07734  0.48146  0.63627  1.0000
  H   H105      1.0  0.24493  0.17408  0.43001  1.0000
  H   H106      1.0  0.46406  0.34065  0.44084  1.0000
  H   H107      1.0  0.43501  0.48504  0.48703  1.0000
  S   S32       1.0  0.16248  0.11216  0.64210  1.0000
  S   S33       1.0  0.17873  0.20268  0.64450  1.0000
  C   C57       1.0  0.46549  0.35443  0.42950  1.0000
  H   H108      1.0  0.41947  0.46506  0.60599  1.0000
  C   C58       1.0  0.49858  0.08925  0.41507  1.0000
  H   H109      1.0  0.23557  0.14376  0.45793  1.0000
  C   C59       1.0  0.32938  0.14996  0.60733  1.0000
  H   H110      1.0  0.23188  0.47009  0.36372  1.0000
  H   H111      1.0  0.48747  0.37000  0.43011  1.0000
  H   H112      1.0  0.50206  0.01600  0.49879  1.0000
  C   C60       1.0  0.28302  0.02422  0.62259  1.0000
  H   H113      1.0  0.26625  0.47069  0.59278  1.0000
  H   H114      1.0  0.29958  0.20496  0.64717  1.0000
  H   H115      1.0  0.44149  0.02355  0.41436  1.0000
  H   H116      1.0  0.33124  0.12418  0.61079  1.0000
  H   H117      1.0  0.32744  0.01961  0.51158  1.0000
  C   C61       1.0  0.25326  0.03998  0.62469  1.0000
  C   C62       1.0  0.24958  0.46925  0.43908  1.0000
  H   H118      1.0  0.47199  0.05394  0.36387  1.0000
  C   C63       1.0  0.44699  0.06024  0.36735  1.0000
  C   C64       1.0  0.33816  0.04659  0.47319  1.0000
  C   C65       1.0  0.43752  0.03038  0.50237  1.0000
  Fe  Fe17      1.0  0.21468  0.44778  0.64786  1.0000
  C   C66       1.0  0.36724  0.29699  0.41646  1.0000
  C   C67       1.0  0.34420  0.29060  0.40440  1.0000
  C   C68       1.0  0.33641  0.25830  0.39995  1.0000
  C   C69       1.0  0.35145  0.23197  0.40747  1.0000
  C   C70       1.0  0.37473  0.23837  0.41942  1.0000
  C   C71       1.0  0.38250  0.27066  0.42388  1.0000
  H   H119      1.0  0.33228  0.31050  0.39855  1.0000
  H   H120      1.0  0.31836  0.25368  0.39069  1.0000
  H   H121      1.0  0.38653  0.21847  0.42533  1.0000
  H   H122      1.0  0.40032  0.27529  0.43324  1.0000
  H   H123      1.0  0.44754  0.05151  0.39265  1.0000
  H   H124      1.0  0.47713  0.39695  0.37696  1.0000
  H   H125      1.0  0.44175  0.05415  0.50846  1.0000
  H   H126      1.0  0.46779  0.43880  0.42856  1.0000
  H   H127      1.0  0.42887  0.05609  0.48013  1.0000
  H   H128      1.0  0.12371  0.49693  0.57526  1.0000
  H   H129      1.0  0.28588  0.24794  0.46935  1.0000
  C   C72       1.0  0.44977  0.37102  0.39581  1.0000
  C   C73       1.0  0.33969  0.19724  0.46065  1.0000
  H   H130      1.0  0.22649  0.03520  0.58592  1.0000
  H   H131      1.0  0.24587  0.23244  0.42794  1.0000
  C   C74       1.0  0.23309  0.04402  0.61131  1.0000
  N   N5        1.0  0.28506  0.18545  0.44624  1.0000
  H   H132      1.0  0.28389  0.16996  0.42138  1.0000
  C   C75       1.0  0.49987  0.01363  0.38858  1.0000
  C   C76       1.0  0.26480  0.21827  0.42179  1.0000
  H   H133      1.0  0.32032  0.22375  0.44088  1.0000
  C   C77       1.0  0.28731  0.15068  0.45159  1.0000
  C   C78       1.0  0.26960  0.49338  0.59921  1.0000
  H   H134      1.0  0.27949  0.25246  0.44804  1.0000
  H   H135      1.0  0.33281  0.18466  0.43583  1.0000
  H   H136      1.0  0.36438  0.02086  0.45503  1.0000
  C   C79       1.0  0.30311  0.02114  0.36983  1.0000
  H   H137      1.0  0.32049  0.48838  0.33506  1.0000
  H   H138      1.0  0.24638  0.25268  0.46143  1.0000
  H   H139      1.0  0.25616  0.21412  0.40928  1.0000
  S   S34       1.0  0.36086  0.48522  0.41413  1.0000
  H   H140      1.0  0.43055  0.00274  0.35507  1.0000
  C   C80       1.0  0.11640  0.33187  0.64620  1.0000
  C   C81       1.0  0.25528  0.13089  0.45172  1.0000
  H   H141      1.0  0.39721  0.49864  0.51590  1.0000
  H   H142      1.0  0.17631  0.44701  0.60641  1.0000
  H   H143      1.0  0.32633  0.17647  0.62954  1.0000
  H   H144      1.0  0.35434  0.16022  0.60654  1.0000
  C   C82       1.0  0.46597  0.33051  0.41521  1.0000
  N   N6        1.0  0.13445  0.49943  0.61640  1.0000
  H   H145      1.0  0.26478  0.11913  0.64327  1.0000
  C   C83       1.0  0.49892  0.09877  0.39903  1.0000
  H   H146      1.0  0.10697  0.45457  0.61908  1.0000
  H   H147      1.0  0.27441  0.45987  0.44136  1.0000
  C   C84       1.0  0.49181  0.01485  0.51106  1.0000
  C   C85       1.0  0.24530  0.02679  0.36427  1.0000
  H   H148      1.0  0.20996  0.05569  0.61271  1.0000
  H   H149      1.0  0.49964  0.48244  0.50169  1.0000
  H   H150      1.0  0.20796  0.45429  0.42371  1.0000
  H   H151      1.0  0.43029  0.05693  0.35694  1.0000
  H   H152      1.0  0.23675  0.16694  0.63903  1.0000
  H   H153      1.0  0.18061  0.26744  0.63264  1.0000
  H   H154      1.0  0.13825  0.44171  0.59529  1.0000
  C   C86       1.0  0.31931  0.19845  0.44508  1.0000
  H   H155      1.0  0.30454  0.13713  0.44393  1.0000
  H   H156      1.0  0.49441  0.04027  0.51552  1.0000
  H   H157      1.0  0.33127  0.47642  0.49528  1.0000
  H   H158      1.0  0.28703  0.10203  0.62746  1.0000
  H   H159      1.0  0.43798  0.01465  0.47687  1.0000
  H   H160      1.0  0.48465  0.27203  0.37791  1.0000
  C   C87       1.0  0.26482  0.20388  0.45813  1.0000
  N   N7        1.0  0.27904  0.15386  0.62529  1.0000
  C   C88       1.0  0.25916  0.14392  0.61070  1.0000
  C   C89       1.0  0.30969  0.16998  0.61947  1.0000
  H   H161      1.0  0.31841  0.15118  0.59514  1.0000
  S   S35       1.0  0.23823  0.46202  0.62387  1.0000
  C   C90       1.0  0.22475  0.13070  0.61403  1.0000
  H   H162      1.0  0.40922  0.04699  0.38371  1.0000
  H   H163      1.0  0.32665  0.20699  0.47115  1.0000
  C   C91       1.0  0.27001  0.24111  0.45900  1.0000
  H   H164      1.0  0.25654  0.16464  0.60233  1.0000
  H   H165      1.0  0.27140  0.12445  0.60379  1.0000
  H   H166      1.0  0.36211  0.21207  0.45912  1.0000
  H   H167      1.0  0.11386  0.30587  0.64292  1.0000
  H   H168      1.0  0.19687  0.32022  0.64509  1.0000
  H   H169      1.0  0.37885  0.49724  0.57195  1.0000
  H   H170      1.0  0.25730  0.49705  0.40920  1.0000
  C   C92       1.0  0.27717  0.49171  0.37166  1.0000
  H   H171      1.0  0.22478  0.11215  0.62353  1.0000
  H   H172      1.0  0.20799  0.15047  0.61730  1.0000
  H   H173      1.0  0.21472  0.11902  0.60297  1.0000
  H   H174      1.0  0.34757  0.17216  0.46317  1.0000
  H   H175      1.0  0.44691  0.08649  0.37034  1.0000
  C   C93       1.0  0.49137  0.28919  0.38777  1.0000
  C   C94       1.0  0.13253  0.46343  0.61926  1.0000
  C   C95       1.0  0.26959  0.18521  0.42977  1.0000
  H   H176      1.0  0.29736  0.14924  0.46399  1.0000
  C   C96       1.0  0.28546  0.12411  0.63519  1.0000
  C   C97       1.0  0.33655  0.49981  0.49010  1.0000
  H   H177      1.0  0.23855  0.19908  0.45582  1.0000
  H   H178      1.0  0.03179  0.39282  0.64229  1.0000
  H   H179      1.0  0.42455  0.36122  0.39690  1.0000
  H   H180      1.0  0.28750  0.23262  0.42091  1.0000
  H   H181      1.0  0.48535  0.18678  0.40494  1.0000
  C   C98       1.0  0.43538  0.48543  0.61015  1.0000
  C   C99       1.0  0.44552  0.02835  0.53836  1.0000
  C   C100      1.0  0.35642  0.02080  0.46733  1.0000
  H   H182      1.0  0.33860  0.12214  0.63839  1.0000
  C   C101      1.0  0.32797  0.04597  0.48924  1.0000
  H   H183      1.0  0.09552  0.34559  0.64153  1.0000
  C   C102      1.0  0.15007  0.44140  0.60726  1.0000
  H   H184      1.0  0.13807  0.34126  0.63985  1.0000
  H   H185      1.0  0.26968  0.19500  0.47049  1.0000
  H   H186      1.0  0.24752  0.12375  0.43940  1.0000
  H   H187      1.0  0.25934  0.10793  0.45826  1.0000
  H   H188      1.0  0.45367  0.49288  0.51391  1.0000
  H   H189      1.0  0.44940  0.47577  0.62044  1.0000
  H   H190      1.0  0.18468  0.49921  0.60828  1.0000
  C   C103      1.0  0.25953  0.17820  0.63459  1.0000
  C   C104      1.0  0.48769  0.45623  0.40646  1.0000
  C   C105      1.0  0.43518  0.04094  0.38198  1.0000
  H   H191      1.0  0.31384  0.06575  0.49391  1.0000
  H   H192      1.0  0.46987  0.04358  0.48231  1.0000
  C   C106      1.0  0.27212  0.01619  0.59406  1.0000
  H   H193      1.0  0.15982  0.48866  0.58606  1.0000
  C   C107      1.0  0.18882  0.26833  0.64499  1.0000
  S   S36       1.0  0.18311  0.40273  0.64540  1.0000
  H   H194      1.0  0.48265  0.31101  0.41865  1.0000
  H   H195      1.0  0.49125  0.02666  0.39928  1.0000
  H   H196      1.0  0.27213  0.05373  0.38259  1.0000
  H   H197      1.0  0.09620  0.49278  0.59868  1.0000
  H   H198      1.0  0.19393  0.49314  0.45145  1.0000
  H   H199      1.0  0.47112  0.03590  0.54042  1.0000
  H   H200      1.0  0.29341  0.49254  0.42059  1.0000
  H   H201      1.0  0.48859  0.48230  0.48058  1.0000
  H   H202      1.0  0.47687  0.10699  0.39341  1.0000
  S   S37       1.0  0.24254  0.05352  0.64429  1.0000
  H   H203      1.0  0.41100  0.02531  0.50335  1.0000
  H   H204      1.0  0.44173  0.31834  0.41457  1.0000
  H   H205      1.0  0.23675  0.46508  0.45049  1.0000
  H   H206      1.0  0.24730  0.44528  0.41526  1.0000
  H   H207      1.0  0.44433  0.31080  0.38575  1.0000
  H   H208      1.0  0.25186  0.19836  0.62666  1.0000
  H   H209      1.0  0.48736  0.27596  0.39908  1.0000
  H   H210      1.0  0.14815  0.41603  0.61152  1.0000
  H   H211      1.0  0.22254  0.03822  0.36700  1.0000
  C   C108      1.0  0.45237  0.38749  0.37930  1.0000
  C   C109      1.0  0.27344  0.03566  0.37316  1.0000
  C   C110      1.0  0.47012  0.31938  0.38632  1.0000
  C   C111      1.0  0.24250  0.03224  0.59612  1.0000
  C   C112      1.0  0.25837  0.49610  0.61507  1.0000
  C   C113      1.0  0.31644  0.12421  0.64572  1.0000
  H   H212      1.0  0.44369  0.36978  0.42909  1.0000
  H   H213      1.0  0.30404  0.19348  0.61366  1.0000
  C   C114      1.0  0.24797  0.49087  0.36275  1.0000
  H   H214      1.0  0.14217  0.45780  0.63140  1.0000
  C   C115      1.0  0.44439  0.03608  0.48442  1.0000
  C   C116      1.0  0.23308  0.44683  0.42647  1.0000
  H   H215      1.0  0.47563  0.32940  0.37432  1.0000
  H   H216      1.0  0.43587  0.02120  0.55022  1.0000
  H   H217      1.0  0.44400  0.37122  0.36942  1.0000
  H   H218      1.0  0.23172  0.42186  0.43129  1.0000
  H   H219      1.0  0.43619  0.40873  0.37907  1.0000
  H   H220      1.0  0.37343  0.48910  0.59285  1.0000
  C   C117      1.0  0.33564  0.01980  0.49930  1.0000
  H   H221      1.0  0.45320  0.49122  0.60077  1.0000
  C   C118      1.0  0.48944  0.44171  0.42150  1.0000
  N   N8        1.0  0.47429  0.34501  0.39921  1.0000
  H   H222      1.0  0.27070  0.49065  0.46863  1.0000
  C   C119      1.0  0.29243  0.01240  0.60740  1.0000
  C   C120      1.0  0.50043  0.49641  0.49042  1.0000
  H   H223      1.0  0.43093  0.04913  0.53434  1.0000
  H   H224      1.0  0.29885  0.02089  0.63284  1.0000
  C   C121      1.0  0.24632  0.00346  0.35186  1.0000
  H   H225      1.0  0.01583  0.05901  0.64459  1.0000
  N   N9        1.0  0.43886  0.00471  0.38084  1.0000
  H   H226      1.0  0.39456  0.00321  0.36650  1.0000
  N   N10       1.0  0.45675  0.00400  0.51034  1.0000
  C   C122      1.0  0.34277  0.50194  0.47358  1.0000
  H   H227      1.0  0.00269  0.25705  0.64398  1.0000
  H   H228      1.0  0.34773  0.50205  0.31998  1.0000
  H   H229      1.0  0.41730  0.50206  0.46057  1.0000
  Fe  Fe18      1.0  0.20089  0.45239  0.68381  1.0000
  N   N11       1.0  0.40864  0.03748  0.76039  1.0000
  S   S38       1.0  0.20696  0.47311  0.70911  1.0000
  Fe  Fe19      1.0  0.14651  0.42884  0.66053  1.0000
  C   C123      1.0  0.25262  0.31388  0.85317  1.0000
  H   H230      1.0  0.28023  0.40833  0.72289  1.0000
  H   H231      1.0  0.24215  0.39379  0.70104  1.0000
  S   S39       1.0  0.16740  0.40903  0.68329  1.0000
  S   S40       1.0  0.17685  0.47483  0.66199  1.0000
  S   S41       1.0  0.16895  0.06790  0.67398  1.0000
  H   H232      1.0  0.12614  0.36326  0.66653  1.0000
  S   S42       1.0  0.14186  0.14242  0.67727  1.0000
  H   H233      1.0  0.20240  0.21890  0.67667  1.0000
  Fe  Fe20      1.0  0.18312  0.11333  0.68763  1.0000
  S   S43       1.0  0.18877  0.11253  0.71495  1.0000
  Fe  Fe21      1.0  0.12984  0.09809  0.66253  1.0000
  C   C124      1.0  0.25788  0.30315  0.82443  1.0000
  S   S44       1.0  0.21904  0.12961  0.66916  1.0000
  Fe  Fe22      1.0  0.34969  0.15694  0.81104  1.0000
  S   S45       1.0  0.37706  0.13497  0.79063  1.0000
  S   S46       1.0  0.36431  0.20691  0.82039  1.0000
  Fe  Fe23      1.0  0.31341  0.09326  0.81865  1.0000
  S   S47       1.0  0.33911  0.06657  0.79881  1.0000
  S   S48       1.0  0.27061  0.07441  0.83376  1.0000
  Fe  Fe24      1.0  0.38481  0.09320  0.80700  1.0000
  S   S49       1.0  0.43446  0.06969  0.81044  1.0000
  Fe  Fe25      1.0  0.32948  0.11062  0.78368  1.0000
  S   S50       1.0  0.32013  0.10713  0.75653  1.0000
  S   S51       1.0  0.35976  0.11623  0.82802  1.0000
  S   S52       1.0  0.30147  0.13626  0.80294  1.0000
  Fe  Fe26      1.0  0.31743  0.44911  0.81252  1.0000
  S   S53       1.0  0.35751  0.47648  0.79983  1.0000
  S   S54       1.0  0.27329  0.46617  0.82692  1.0000
  Fe  Fe27      1.0  0.33360  0.38535  0.79470  1.0000
  S   S55       1.0  0.37434  0.40777  0.78091  1.0000
  S   S56       1.0  0.31288  0.33550  0.78880  1.0000
  Fe  Fe28      1.0  0.38854  0.43233  0.80418  1.0000
  S   S57       1.0  0.43975  0.42921  0.81517  1.0000
  Fe  Fe29      1.0  0.34068  0.44962  0.77740  1.0000
  S   S58       1.0  0.33523  0.47040  0.75234  1.0000
  S   S59       1.0  0.34918  0.40673  0.81837  1.0000
  S   S60       1.0  0.29923  0.42560  0.78958  1.0000
  C   C125      1.0  0.47953  0.43478  0.80715  1.0000
  C   C126      1.0  0.48536  0.45259  0.79325  1.0000
  H   H234      1.0  0.34506  0.35771  0.73358  1.0000
  H   H235      1.0  0.46517  0.46262  0.78670  1.0000
  H   H236      1.0  0.26259  0.36974  0.77201  1.0000
  C   C127      1.0  0.47368  0.08454  0.80502  1.0000
  C   C128      1.0  0.09684  0.06310  0.70021  1.0000
  C   C129      1.0  0.22403  0.01498  0.86545  1.0000
  C   C130      1.0  0.15468  0.48969  0.97207  1.0000
  H   H237      1.0  0.45693  0.11874  0.78769  1.0000
  C   C131      1.0  0.35162  0.24219  0.81058  1.0000
  C   C132      1.0  0.32817  0.24093  0.79839  1.0000
  C   C133      1.0  0.31709  0.26977  0.79154  1.0000
  C   C134      1.0  0.32973  0.29992  0.79665  1.0000
  C   C135      1.0  0.35388  0.30112  0.80850  1.0000
  C   C136      1.0  0.36452  0.27232  0.81556  1.0000
  H   H238      1.0  0.31806  0.21781  0.79451  1.0000
  H   H239      1.0  0.29837  0.26868  0.78238  1.0000
  H   H240      1.0  0.36390  0.32423  0.81244  1.0000
  H   H241      1.0  0.38259  0.27341  0.82502  1.0000
  C   C137      1.0  0.03281  0.11083  0.67544  1.0000
  C   C138      1.0  0.03860  0.08972  0.66257  1.0000
  C   C139      1.0  0.44627  0.00678  0.78000  1.0000
  C   C140      1.0  0.22562  0.11129  0.72629  1.0000
  C   C141      1.0  0.25591  0.10899  0.71898  1.0000
  C   C142      1.0  0.28444  0.10778  0.72843  1.0000
  C   C143      1.0  0.28318  0.10901  0.74530  1.0000
  C   C144      1.0  0.25290  0.11137  0.75261  1.0000
  C   C145      1.0  0.22433  0.11244  0.74316  1.0000
  H   H242      1.0  0.25736  0.10800  0.70605  1.0000
  H   H243      1.0  0.30767  0.10593  0.72263  1.0000
  H   H244      1.0  0.25146  0.11225  0.76555  1.0000
  H   H245      1.0  0.20110  0.11419  0.74898  1.0000
  H   H246      1.0  0.44374  0.27659  0.82735  1.0000
  C   C146      1.0  0.04894  0.45606  0.66737  1.0000
  H   H247      1.0  0.06917  0.46960  0.67251  1.0000
  C   C147      1.0  0.24296  0.46998  0.72076  1.0000
  C   C148      1.0  0.24067  0.46561  0.73742  1.0000
  C   C149      1.0  0.26873  0.46461  0.74717  1.0000
  C   C150      1.0  0.29936  0.46922  0.74043  1.0000
  H   H248      1.0  0.08123  0.01254  0.69437  1.0000
  C   C151      1.0  0.27365  0.47362  0.71396  1.0000
  H   H249      1.0  0.21701  0.46299  0.74278  1.0000
  H   H250      1.0  0.26663  0.46094  0.75993  1.0000
  H   H251      1.0  0.14673  0.29576  0.69308  1.0000
  C   C152      1.0  0.41438  0.03291  0.72933  1.0000
  C   C153      1.0  0.24673  0.35811  0.83348  1.0000
  H   H252      1.0  0.04590  0.04820  0.73205  1.0000
  H   H253      1.0  0.01275  0.48610  0.67844  1.0000
  C   C154      1.0  0.12170  0.33696  0.66439  1.0000
  C   C155      1.0  0.24342  0.33814  0.86653  1.0000
  H   H254      1.0  0.02006  0.01113  0.97054  1.0000
  H   H255      1.0  0.23856  0.32461  0.87773  1.0000
  C   C156      1.0  0.26309  0.04336  0.84817  1.0000
  H   H256      1.0  0.22016  0.35291  0.83303  1.0000
  C   C157      1.0  0.06695  0.48926  0.97764  1.0000
  H   H257      1.0  0.43703  0.09183  0.74205  1.0000
  H   H258      1.0  0.13562  0.27432  0.66755  1.0000
  H   H259      1.0  0.24644  0.04627  0.95621  1.0000
  Fe  Fe30      1.0  0.17688  0.15486  0.65771  1.0000
  H   H260      1.0  0.29952  0.38126  0.85081  1.0000
  C   C158      1.0  0.06601  0.34627  0.67209  1.0000
  H   H261      1.0  0.36251  0.05625  0.76779  1.0000
  H   H262      1.0  0.06663  0.28158  0.67996  1.0000
  C   C159      1.0  0.47791  0.10848  0.79344  1.0000
  C   C160      1.0  0.20876  0.29956  0.66793  1.0000
  H   H263      1.0  0.13536  0.06776  0.72546  1.0000
  H   H264      1.0  0.17745  0.05296  0.91276  1.0000
  N   N12       1.0  0.27529  0.36519  0.73728  1.0000
  S   S61       1.0  0.22048  0.33649  0.67726  1.0000
  C   C161      1.0  0.24531  0.37125  0.74703  1.0000
  C   C162      1.0  0.28137  0.32960  0.73473  1.0000
  C   C163      1.0  0.24511  0.35682  0.76399  1.0000
  C   C164      1.0  0.25441  0.30942  0.72628  1.0000
  N   N13       1.0  0.24614  0.04242  0.92284  1.0000
  H   H265      1.0  0.45663  0.17441  0.79488  1.0000
  H   H266      1.0  0.22302  0.36212  0.74092  1.0000
  H   H267      1.0  0.24159  0.39781  0.74839  1.0000
  H   H268      1.0  0.07290  0.37218  0.67413  1.0000
  C   C165      1.0  0.13936  0.31992  0.69734  1.0000
  H   H269      1.0  0.25002  0.33050  0.76395  1.0000
  S   S62       1.0  0.07853  0.07877  0.65662  1.0000
  H   H270      1.0  0.03367  0.04467  0.69541  1.0000
  H   H271      1.0  0.21896  0.27163  0.68905  1.0000
  H   H272      1.0  0.11417  0.25335  0.68313  1.0000
  H   H273      1.0  0.40440  0.05752  0.72864  1.0000
  H   H274      1.0  0.01684  0.07378  0.70926  1.0000
  H   H275      1.0  0.05747  0.34452  0.65944  1.0000
  C   C166      1.0  0.45818  0.22608  0.82774  1.0000
  C   C167      1.0  0.20004  0.00303  0.97299  1.0000
  H   H276      1.0  0.20849  0.00591  0.92064  1.0000
  C   C168      1.0  0.05582  0.04423  0.71984  1.0000
  C   C169      1.0  0.27294  0.38246  0.72141  1.0000
  H   H277      1.0  0.46885  0.22288  0.83993  1.0000
  H   H278      1.0  0.45127  0.06591  0.76730  1.0000
  C   C170      1.0  0.21045  0.27079  0.67675  1.0000
  H   H279      1.0  0.24987  0.37722  0.84282  1.0000
  C   C171      1.0  0.21376  0.02842  0.92767  1.0000
  H   H280      1.0  0.29633  0.26720  0.82899  1.0000
  H   H281      1.0  0.14146  0.31994  0.71063  1.0000
  H   H282      1.0  0.31210  0.02664  0.84995  1.0000
  H   H283      1.0  0.10151  0.08387  0.74996  1.0000
  H   H284      1.0  0.22612  0.07345  0.90437  1.0000
  H   H285      1.0  0.24230  0.39719  0.81636  1.0000
  H   H286      1.0  0.41476  0.07838  0.77652  1.0000
  H   H287      1.0  0.46002  0.02801  0.78477  1.0000
  N   N14       1.0  0.09483  0.32485  0.67504  1.0000
  C   C172      1.0  0.47530  0.16953  0.82548  1.0000
  H   H288      1.0  0.09437  0.14969  0.72301  1.0000
  H   H289      1.0  0.26271  0.35618  0.86932  1.0000
  H   H290      1.0  0.06228  0.01815  0.71947  1.0000
  H   H291      1.0  0.31105  0.33947  0.82638  1.0000
  H   H292      1.0  0.16333  0.04063  0.93187  1.0000
  H   H293      1.0  0.06329  0.10220  0.73232  1.0000
  H   H294      1.0  0.05304  0.12251  0.68158  1.0000
  H   H295      1.0  0.46810  0.26708  0.81065  1.0000
  H   H296      1.0  0.01719  0.35795  0.67947  1.0000
  H   H297      1.0  0.31881  0.14563  0.65367  1.0000
  C   C173      1.0  0.18460  0.05105  0.92557  1.0000
  C   C174      1.0  0.44747  0.19405  0.80277  1.0000
  C   C175      1.0  0.31383  0.35882  0.85056  1.0000
  Fe  Fe31      1.0  0.20567  0.38603  0.66832  1.0000
  H   H298      1.0  0.19948  0.01193  0.86967  1.0000
  H   H299      1.0  0.26767  0.08378  0.95778  1.0000
  C   C176      1.0  0.26969  0.26832  0.82745  1.0000
  H   H300      1.0  0.24921  0.35898  0.80697  1.0000
  H   H301      1.0  0.42276  0.21381  0.78213  1.0000
  C   C177      1.0  0.27442  0.06319  0.89714  1.0000
  C   C178      1.0  0.01177  0.07535  0.65456  1.0000
  H   H302      1.0  0.43407  0.11906  0.75853  1.0000
  C   C179      1.0  0.37303  0.04308  0.75746  1.0000
  H   H303      1.0  0.24440  0.09363  0.92821  1.0000
  H   H304      1.0  0.26357  0.25303  0.81679  1.0000
  H   H305      1.0  0.14554  0.46775  0.96634  1.0000
  C   C180      1.0  0.11174  0.26479  0.67119  1.0000
  C   C181      1.0  0.20109  0.24091  0.66977  1.0000
  H   H306      1.0  0.12181  0.12077  0.73086  1.0000
  H   H307      1.0  0.36862  0.05920  0.74718  1.0000
  H   H308      1.0  0.33846  0.36691  0.84694  1.0000
  H   H309      1.0  0.26914  0.31072  0.81298  1.0000
  N   N15       1.0  0.47106  0.20071  0.81636  1.0000
  H   H310      1.0  0.42485  0.24115  0.79862  1.0000
  H   H311      1.0  0.25318  0.47952  0.98110  1.0000
  H   H312      1.0  0.10924  0.02997  0.68090  1.0000
  H   H313      1.0  0.22568  0.08399  0.95343  1.0000
  C   C182      1.0  0.28756  0.02358  0.85419  1.0000
  H   H314      1.0  0.42782  0.16998  0.83779  1.0000
  H   H315      1.0  0.12002  0.07676  0.69877  1.0000
  C   C183      1.0  0.23133  0.03886  0.85393  1.0000
  C   C184      1.0  0.24286  0.05269  0.90555  1.0000
  H   H316      1.0  0.14518  0.32574  0.66723  1.0000
  C   C185      1.0  0.05466  0.42995  0.65702  1.0000
  H   H317      1.0  0.43153  0.22283  0.82921  1.0000
  H   H318      1.0  0.10159  0.35436  0.69653  1.0000
  H   H319      1.0  0.04113  0.34263  0.69547  1.0000
  H   H320      1.0  0.22795  0.35919  0.71155  1.0000
  H   H321      1.0  0.21351  0.02044  0.94026  1.0000
  H   H322      1.0  0.39903  0.02595  0.78529  1.0000
  H   H323      1.0  0.08798  0.31410  0.70022  1.0000
  H   H324      1.0  0.18935  0.07551  0.93069  1.0000
  H   H325      1.0  0.28999  0.04210  0.89453  1.0000
  H   H326      1.0  0.15696  0.33843  0.69311  1.0000
  C   C186      1.0  0.25636  0.07152  0.93285  1.0000
  C   C187      1.0  0.26624  0.49852  0.97422  1.0000
  C   C188      1.0  0.10427  0.12513  0.72100  1.0000
  C   C189      1.0  0.41148  0.01536  0.77467  1.0000
  C   C190      1.0  0.42512  0.02194  0.74625  1.0000
  H   H327      1.0  0.23016  0.29905  0.85104  1.0000
  H   H328      1.0  0.29559  0.02599  0.92006  1.0000
  C   C191      1.0  0.14872  0.02453  0.98138  1.0000
  H   H329      1.0  0.06914  0.47670  0.96587  1.0000
  H   H330      1.0  0.31370  0.31079  0.84146  1.0000
  H   H331      1.0  0.28289  0.07617  0.93173  1.0000
  H   H332      1.0  0.24779  0.47903  0.95209  1.0000
  C   C192      1.0  0.33628  0.38170  0.73751  1.0000
  H   H333      1.0  0.02481  0.31560  0.67996  1.0000
  N   N16       1.0  0.26486  0.32773  0.83760  1.0000
  C   C193      1.0  0.11222  0.05477  0.72818  1.0000
  H   H334      1.0  0.45189  0.02553  0.74720  1.0000
  H   H335      1.0  0.25625  0.31126  0.71303  1.0000
  H   H336      1.0  0.48832  0.15135  0.81811  1.0000
  C   C194      1.0  0.01683  0.46539  0.67072  1.0000
  C   C195      1.0  0.43894  0.22277  0.79198  1.0000
  H   H337      1.0  0.42378  0.18528  0.80732  1.0000
  H   H338      1.0  0.49087  0.17353  0.83630  1.0000
  H   H339      1.0  0.50224  0.40856  0.82634  1.0000
  H   H340      1.0  0.23166  0.03284  0.89818  1.0000
  C   C196      1.0  0.02780  0.41286  0.65044  1.0000
  H   H341      1.0  0.31567  0.34840  0.86274  1.0000
  H   H342      1.0  0.29847  0.40414  0.75100  1.0000
  H   H343      1.0  0.45048  0.13353  0.84004  1.0000
  H   H344      1.0  0.11740  0.12576  0.70950  1.0000
  C   C197      1.0  0.23934  0.38336  0.71316  1.0000
  H   H345      1.0  0.27065  0.29697  0.85837  1.0000
  H   H346      1.0  0.30318  0.32620  0.72720  1.0000
  C   C198      1.0  0.30164  0.47373  0.72379  1.0000
  C   C199      1.0  0.46476  0.26201  0.82349  1.0000
  H   H347      1.0  0.48578  0.27189  0.83047  1.0000
  H   H348      1.0  0.30891  0.36495  0.75751  1.0000
  H   H349      1.0  0.21872  0.48306  0.92960  1.0000
  C   C200      1.0  0.42494  0.06917  0.76505  1.0000
  N   N17       1.0  0.08524  0.06555  0.71724  1.0000
  H   H350      1.0  0.05858  0.10881  0.71151  1.0000
  C   C201      1.0  0.07611  0.10016  0.72068  1.0000
  H   H351      1.0  0.28813  0.31736  0.74610  1.0000
  C   C202      1.0  0.30101  0.33347  0.83833  1.0000
  C   C203      1.0  0.16665  0.00603  0.97044  1.0000
  H   H352      1.0  0.21215  0.05392  0.84938  1.0000
  H   H353      1.0  0.39756  0.10351  0.74993  1.0000
  C   C204      1.0  0.10602  0.05847  0.74632  1.0000
  S   S63       1.0  0.09459  0.41843  0.65126  1.0000
  H   H354      1.0  0.28189  0.38084  0.81718  1.0000
  H   H355      1.0  0.43570  0.03256  0.72129  1.0000
  H   H356      1.0  0.26819  0.07376  0.88531  1.0000
  C   C205      1.0  0.19035  0.23959  0.65384  1.0000
  H   H357      1.0  0.25697  0.28360  0.72966  1.0000
  H   H358      1.0  0.43057  0.14070  0.82152  1.0000
  H   H359      1.0  0.35505  0.39214  0.74576  1.0000
  H   H360      1.0  0.28822  0.08181  0.90411  1.0000
  H   H361      1.0  0.22076  0.35096  0.86342  1.0000
  H   H362      1.0  0.11750  0.02873  0.72613  1.0000
  H   H363      1.0  0.12370  0.01717  0.70000  1.0000
  C   C206      1.0  0.30385  0.37932  0.74658  1.0000
  H   H364      1.0  0.25768  0.25686  0.83784  1.0000
  C   C207      1.0  0.42285  0.09702  0.75297  1.0000
  C   C208      1.0  0.44400  0.15292  0.83149  1.0000
  H   H365      1.0  0.22078  0.36013  0.76930  1.0000
  C   C209      1.0  0.08482  0.29037  0.67120  1.0000
  H   H366      1.0  0.29339  0.49235  0.93714  1.0000
  H   H367      1.0  0.22259  0.39949  0.71971  1.0000
  C   C210      1.0  0.24830  0.07061  0.95095  1.0000
  C   C211      1.0  0.27136  0.01631  0.92347  1.0000
  H   H368      1.0  0.12285  0.02685  0.97962  1.0000
  H   H369      1.0  0.32521  0.47739  0.71846  1.0000
  C   C212      1.0  0.25585  0.37424  0.81753  1.0000
  C   C213      1.0  0.03587  0.33974  0.68248  1.0000
  H   H370      1.0  0.33499  0.39832  0.72716  1.0000
  S   S64       1.0  0.24038  0.42853  0.66982  1.0000
  H   H371      1.0  0.29019  0.37214  0.71259  1.0000
  H   H372      1.0  0.22971  0.31573  0.73006  1.0000
  C   C214      1.0  0.02717  0.04924  0.70809  1.0000
  H   H373      1.0  0.27577  0.47738  0.70119  1.0000
  H   H374      1.0  0.12806  0.05083  0.75297  1.0000
  H   H375      1.0  0.23132  0.30131  0.82192  1.0000
  C   C215      1.0  0.10440  0.32869  0.69251  1.0000
  H   H376      1.0  0.00738  0.03178  0.71097  1.0000
  H   H377      1.0  0.31563  0.10256  0.65354  1.0000
  H   H378      1.0  0.07964  0.07474  0.69183  1.0000
  H   H379      1.0  0.08579  0.04263  0.75031  1.0000
  H   H380      1.0  0.49853  0.05227  0.82098  1.0000
  H   H381      1.0  0.27727  0.17598  0.65946  1.0000
  H   H382      1.0  0.28777  0.01633  0.94866  1.0000
  H   H383      1.0  0.46043  0.23389  0.78625  1.0000
  H   H384      1.0  0.07171  0.28864  0.65948  1.0000
  H   H385      1.0  0.25498  0.49190  0.91800  1.0000
  C   C216      1.0  0.10293  0.02852  0.69380  1.0000
  Fe  Fe32      1.0  0.20248  0.08574  0.65464  1.0000
  H   H386      1.0  0.10579  0.24554  0.66219  1.0000
  H   H387      1.0  0.32799  0.01991  0.74955  1.0000
  C   C217      1.0  0.19790  0.29824  0.65202  1.0000
  H   H388      1.0  0.39671  0.01527  0.72399  1.0000
  C   C218      1.0  0.35187  0.01251  0.75449  1.0000
  H   H389      1.0  0.25990  0.21329  0.65402  1.0000
  H   H390      1.0  0.21301  0.48569  0.84072  1.0000
  C   C219      1.0  0.26473  0.49087  0.84408  1.0000
  H   H391      1.0  0.25450  0.49486  0.79690  1.0000
  H   H392      1.0  0.20375  0.49156  0.78327  1.0000
  H   H393      1.0  0.31424  0.50138  0.85080  1.0000
  H   H394      1.0  0.29135  0.49004  0.97255  1.0000
  C   C220      1.0  0.23213  0.49659  0.84800  1.0000
  C   C221      1.0  0.23241  0.50190  0.92300  1.0000
  C   C222      1.0  0.50141  0.07105  0.81213  1.0000
  C   C223      1.0  0.27569  0.19362  0.64957  1.0000
  H   H395      1.0  0.04346  0.50192  0.97763  1.0000
  Fe  Fe33      1.0  0.33108  0.93542  0.14572  1.0000
  S   S65       1.0  0.34106  0.95214  0.17128  1.0000
  H   H396      1.0  0.23658  0.91877  0.05409  1.0000
  Fe  Fe34      1.0  0.35384  0.86621  0.15339  1.0000
  S   S66       1.0  0.36469  0.87871  0.17904  1.0000
  S   S67       1.0  0.37098  0.81645  0.14587  1.0000
  Fe  Fe35      1.0  0.31736  0.90492  0.17860  1.0000
  S   S68       1.0  0.27789  0.89182  0.19669  1.0000
  Fe  Fe36      1.0  0.38787  0.92404  0.16952  1.0000
  S   S69       1.0  0.43727  0.93961  0.18020  1.0000
  S   S70       1.0  0.30496  0.88956  0.15310  1.0000
  S   S71       1.0  0.37952  0.91033  0.14381  1.0000
  Fe  Fe37      1.0  0.31450  0.56607  0.15405  1.0000
  S   S72       1.0  0.35374  0.55727  0.17282  1.0000
  S   S73       1.0  0.28342  0.52535  0.14219  1.0000
  Fe  Fe38      1.0  0.31559  0.63909  0.16063  1.0000
  S   S74       1.0  0.35379  0.63546  0.17952  1.0000
  S   S75       1.0  0.28995  0.68611  0.15521  1.0000
  Fe  Fe39      1.0  0.37913  0.60133  0.16268  1.0000
  S   S76       1.0  0.43318  0.61570  0.16054  1.0000
  Fe  Fe40      1.0  0.32620  0.59208  0.18853  1.0000
  S   S77       1.0  0.32301  0.59087  0.21594  1.0000
  S   S78       1.0  0.34175  0.60786  0.14283  1.0000
  S   S79       1.0  0.28591  0.59811  0.17070  1.0000
  Fe  Fe41      1.0  0.21384  0.92736  0.28790  1.0000
  H   H397      1.0  0.11769  0.51909  0.30025  1.0000
  S   S80       1.0  0.25202  0.93841  0.26879  1.0000
  Fe  Fe42      1.0  0.14240  0.92950  0.29903  1.0000
  S   S81       1.0  0.09140  0.93445  0.28779  1.0000
  H   H398      1.0  0.39235  0.57575  0.23131  1.0000
  C   C224      1.0  0.48307  0.92841  0.15636  1.0000
  S   S82       1.0  0.18173  0.96783  0.29639  1.0000
  S   S83       1.0  0.17375  0.88976  0.28889  1.0000
  H   H399      1.0  0.50007  0.94403  0.19556  1.0000
  C   C225      1.0  0.47730  0.93496  0.17256  1.0000
  Fe  Fe43      1.0  0.19204  0.58405  0.28460  1.0000
  S   S84       1.0  0.22750  0.61569  0.29804  1.0000
  S   S85       1.0  0.20154  0.55876  0.26061  1.0000
  H   H400      1.0  0.41057  0.60293  0.24590  1.0000
  H   H401      1.0  0.41071  0.52924  0.21759  1.0000
  C   C226      1.0  0.41458  0.58107  0.23836  1.0000
  S   S86       1.0  0.15101  0.61896  0.28673  1.0000
  H   H402      1.0  0.48030  0.74949  0.17448  1.0000
  C   C227      1.0  0.04393  0.60548  0.29521  1.0000
  C   C228      1.0  0.47995  0.56707  0.16268  1.0000
  H   H403      1.0  0.06490  0.61519  0.28911  1.0000
  H   H404      1.0  0.16577  0.96376  0.20792  1.0000
  C   C229      1.0  0.05136  0.93380  0.29594  1.0000
  C   C230      1.0  0.02451  0.93122  0.28540  1.0000
  H   H405      1.0  0.49122  0.86662  0.14202  1.0000
  N   N18       1.0  0.44275  0.59208  0.21099  1.0000
  H   H406      1.0  0.24986  0.54891  0.30331  1.0000
  H   H407      1.0  0.26280  0.54977  0.28303  1.0000
  C   C231      1.0  0.19077  0.73758  0.30244  1.0000
  H   H408      1.0  0.45399  0.75445  0.15768  1.0000
  H   H409      1.0  0.36425  0.52710  0.29511  1.0000
  C   C232      1.0  0.44625  0.58478  0.22862  1.0000
  H   H410      1.0  0.46050  0.56232  0.23027  1.0000
  C   C233      1.0  0.47345  0.60008  0.16102  1.0000
  H   H411      1.0  0.43493  0.97900  0.11404  1.0000
  Fe  Fe44      1.0  0.13858  0.59445  0.30972  1.0000
  C   C234      1.0  0.49984  0.62207  0.16053  1.0000
  N   N19       1.0  0.29736  0.52866  0.29966  1.0000
  C   C235      1.0  0.28745  0.58397  0.22749  1.0000
  C   C236      1.0  0.28564  0.59767  0.24296  1.0000
  C   C237      1.0  0.25888  0.59122  0.25292  1.0000
  C   C238      1.0  0.23414  0.56994  0.24780  1.0000
  C   C239      1.0  0.23590  0.55624  0.23232  1.0000
  C   C240      1.0  0.26216  0.56352  0.22214  1.0000
  H   H412      1.0  0.30492  0.61363  0.24723  1.0000
  H   H413      1.0  0.25744  0.60264  0.26457  1.0000
  H   H414      1.0  0.21694  0.53977  0.22819  1.0000
  H   H415      1.0  0.26330  0.55254  0.21033  1.0000
  S   S87       1.0  0.17713  0.55642  0.30664  1.0000
  H   H416      1.0  0.20290  0.96125  0.24070  1.0000
  H   H417      1.0  0.10575  0.61407  0.24751  1.0000
  H   H418      1.0  0.46283  0.92528  0.14816  1.0000
  C   C241      1.0  0.27143  0.90499  0.21677  1.0000
  C   C242      1.0  0.24586  0.89089  0.22548  1.0000
  C   C243      1.0  0.23991  0.90028  0.24149  1.0000
  C   C244      1.0  0.25912  0.92436  0.24890  1.0000
  C   C245      1.0  0.28460  0.93849  0.24016  1.0000
  C   C246      1.0  0.29086  0.92880  0.22423  1.0000
  H   H419      1.0  0.23071  0.87238  0.21986  1.0000
  H   H420      1.0  0.22069  0.88870  0.24813  1.0000
  C   C247      1.0  0.25402  0.91678  0.02984  1.0000
  H   H421      1.0  0.31060  0.93987  0.21771  1.0000
  C   C248      1.0  0.34795  0.78070  0.14888  1.0000
  C   C249      1.0  0.31408  0.78054  0.14810  1.0000
  C   C250      1.0  0.29660  0.75128  0.14982  1.0000
  C   C251      1.0  0.31281  0.72213  0.15261  1.0000
  C   C252      1.0  0.34665  0.72236  0.15352  1.0000
  C   C253      1.0  0.36414  0.75150  0.15150  1.0000
  H   H422      1.0  0.30142  0.80284  0.14585  1.0000
  H   H423      1.0  0.27042  0.75125  0.14902  1.0000
  H   H424      1.0  0.35938  0.70002  0.15558  1.0000
  H   H425      1.0  0.39033  0.75135  0.15193  1.0000
  H   H426      1.0  0.16925  0.93218  0.05658  1.0000
  H   H427      1.0  0.10365  0.51568  0.23723  1.0000
  Fe  Fe45      1.0  0.18585  0.64948  0.30147  1.0000
  H   H428      1.0  0.46060  0.60444  0.23473  1.0000
  H   H429      1.0  0.03055  0.69158  0.29604  1.0000
  N   N20       1.0  0.15115  0.96859  0.24241  1.0000
  C   C254      1.0  0.10720  0.54025  0.27698  1.0000
  H   H430      1.0  0.17527  0.97314  0.00911  1.0000
  N   N21       1.0  0.29441  0.78512  0.20148  1.0000
  C   C255      1.0  0.26168  0.80038  0.19944  1.0000
  C   C256      1.0  0.30330  0.78556  0.21905  1.0000
  C   C257      1.0  0.29393  0.75045  0.19559  1.0000
  C   C258      1.0  0.31878  0.80409  0.19186  1.0000
  C   C259      1.0  0.24767  0.80014  0.18221  1.0000
  C   C260      1.0  0.30867  0.81937  0.22680  1.0000
  C   C261      1.0  0.26655  0.72852  0.20208  1.0000
  C   C262      1.0  0.35442  0.79375  0.19371  1.0000
  H   H431      1.0  0.24347  0.78900  0.20747  1.0000
  H   H432      1.0  0.26262  0.82623  0.20320  1.0000
  H   H433      1.0  0.32552  0.77124  0.22131  1.0000
  H   H434      1.0  0.28401  0.77353  0.22619  1.0000
  H   H435      1.0  0.29255  0.74925  0.18231  1.0000
  H   H436      1.0  0.31694  0.73823  0.19874  1.0000
  H   H437      1.0  0.31311  0.80209  0.17886  1.0000
  H   H438      1.0  0.31740  0.83045  0.19462  1.0000
  H   H439      1.0  0.24572  0.77549  0.17692  1.0000
  H   H440      1.0  0.22282  0.81012  0.18249  1.0000
  H   H441      1.0  0.26197  0.81609  0.17422  1.0000
  H   H442      1.0  0.28619  0.83373  0.22683  1.0000
  H   H443      1.0  0.31584  0.81635  0.23956  1.0000
  H   H444      1.0  0.32836  0.83350  0.22107  1.0000
  H   H445      1.0  0.24221  0.73653  0.19819  1.0000
  H   H446      1.0  0.26750  0.72654  0.21531  1.0000
  H   H447      1.0  0.26957  0.70367  0.19711  1.0000
  H   H448      1.0  0.36386  0.79831  0.20601  1.0000
  H   H449      1.0  0.48934  0.85224  0.18115  1.0000
  H   H450      1.0  0.35792  0.76806  0.19029  1.0000
  N   N22       1.0  0.22973  0.61348  0.12108  1.0000
  C   C263      1.0  0.26178  0.60434  0.11379  1.0000
  C   C264      1.0  0.21247  0.58232  0.12542  1.0000
  C   C265      1.0  0.23704  0.63382  0.13588  1.0000
  C   C266      1.0  0.21109  0.63265  0.10890  1.0000
  C   C267      1.0  0.28503  0.63273  0.10972  1.0000
  C   C268      1.0  0.20039  0.56110  0.11119  1.0000
  C   C269      1.0  0.21161  0.63417  0.14931  1.0000
  C   C270      1.0  0.17632  0.64212  0.11342  1.0000
  H   H451      1.0  0.27536  0.58821  0.12205  1.0000
  H   H452      1.0  0.25826  0.59036  0.10245  1.0000
  H   H453      1.0  0.19072  0.58654  0.13279  1.0000
  H   H454      1.0  0.22838  0.56726  0.13314  1.0000
  H   H455      1.0  0.25974  0.62567  0.14181  1.0000
  H   H456      1.0  0.24181  0.65953  0.13260  1.0000
  H   H457      1.0  0.22388  0.65594  0.10642  1.0000
  H   H458      1.0  0.21035  0.62024  0.09698  1.0000
  H   H459      1.0  0.29126  0.64811  0.12031  1.0000
  H   H460      1.0  0.30819  0.62259  0.10535  1.0000
  H   H461      1.0  0.27534  0.64791  0.09995  1.0000
  H   H462      1.0  0.22006  0.55391  0.10306  1.0000
  H   H463      1.0  0.18968  0.53831  0.11592  1.0000
  H   H464      1.0  0.18110  0.57316  0.10420  1.0000
  H   H465      1.0  0.18714  0.64048  0.14501  1.0000
  H   H466      1.0  0.21905  0.65272  0.15841  1.0000
  H   H467      1.0  0.21081  0.61062  0.15564  1.0000
  H   H468      1.0  0.17636  0.66534  0.12026  1.0000
  H   H469      1.0  0.16327  0.62334  0.12028  1.0000
  H   H470      1.0  0.16171  0.64502  0.10228  1.0000
  C   C271      1.0  0.41579  0.61525  0.20736  1.0000
  C   C272      1.0  0.19223  0.79673  0.30157  1.0000
  C   C273      1.0  0.17029  0.98699  0.21439  1.0000
  C   C274      1.0  0.43718  0.56150  0.20125  1.0000
  H   H471      1.0  0.12229  0.93303  0.22910  1.0000
  C   C275      1.0  0.26311  0.53482  0.29405  1.0000
  H   H472      1.0  0.27910  0.91937  0.03467  1.0000
  C   C276      1.0  0.27064  0.51257  0.12254  1.0000
  H   H473      1.0  0.15466  0.97086  0.04910  1.0000
  C   C277      1.0  0.19177  0.76648  0.29370  1.0000
  H   H474      1.0  0.23038  0.98584  0.01958  1.0000
  H   H475      1.0  0.24974  0.89061  0.02725  1.0000
  H   H476      1.0  0.43675  0.79329  0.14105  1.0000
  C   C278      1.0  0.43636  0.99152  0.12588  1.0000
  C   C279      1.0  0.18492  0.97042  0.24943  1.0000
  C   C280      1.0  0.04816  0.58787  0.30931  1.0000
  C   C281      1.0  0.45134  0.83863  0.16270  1.0000
  H   H477      1.0  0.36961  0.80828  0.18545  1.0000
  H   H478      1.0  0.05832  0.53285  0.02971  1.0000
  C   C282      1.0  0.46296  0.84774  0.17987  1.0000
  H   H479      1.0  0.16633  0.94851  0.02593  1.0000
  H   H480      1.0  0.40190  0.98366  0.15990  1.0000
  C   C283      1.0  0.24213  0.50444  0.29009  1.0000
  H   H481      1.0  0.42907  0.82344  0.16400  1.0000
  C   C284      1.0  0.40756  0.54043  0.20566  1.0000
  C   C285      1.0  0.41845  0.64872  0.21566  1.0000
  H   H482      1.0  0.31083  0.52493  0.27452  1.0000
  H   H483      1.0  0.09820  0.56278  0.28276  1.0000
  H   H484      1.0  0.15973  0.96449  0.06992  1.0000
  H   H485      1.0  0.38720  0.98123  0.13265  1.0000
  C   C286      1.0  0.06034  0.51550  0.26141  1.0000
  C   C287      1.0  0.03221  0.53245  0.27007  1.0000
  H   H486      1.0  0.12309  0.58074  0.23695  1.0000
  H   H487      1.0  0.41453  0.61972  0.19423  1.0000
  H   H488      1.0  0.30478  0.54172  0.10948  1.0000
  C   C288      1.0  0.10236  0.51338  0.28958  1.0000
  C   C289      1.0  0.45834  0.80804  0.13764  1.0000
  H   H489      1.0  0.03991  0.54334  0.28168  1.0000
  H   H490      1.0  0.19222  0.76544  0.28074  1.0000
  H   H491      1.0  0.20577  0.91620  0.03933  1.0000
  N   N23       1.0  0.09165  0.53475  0.26067  1.0000
  H   H492      1.0  0.39486  0.66118  0.21437  1.0000
  H   H493      1.0  0.46600  0.84613  0.11952  1.0000
  H   H494      1.0  0.19822  0.93766  0.01236  1.0000
  H   H495      1.0  0.02140  0.55157  0.26251  1.0000
  H   H496      1.0  0.33088  0.57562  0.28052  1.0000
  C   C290      1.0  0.14559  0.93462  0.23596  1.0000
  H   H497      1.0  0.44838  0.77807  0.17580  1.0000
  C   C291      1.0  0.18638  0.95806  0.01861  1.0000
  C   C292      1.0  0.35176  0.50750  0.28829  1.0000
  H   H498      1.0  0.18804  0.56814  0.99224  1.0000
  H   H499      1.0  0.10113  0.53822  0.02979  1.0000
  C   C293      1.0  0.25862  0.97962  0.04627  1.0000
  H   H500      1.0  0.42396  0.64706  0.22862  1.0000
  H   H501      1.0  0.42985  0.85131  0.13145  1.0000
  C   C294      1.0  0.27290  0.51453  0.09334  1.0000
  H   H502      1.0  0.13750  0.53193  0.24808  1.0000
  H   H503      1.0  0.45476  0.82933  0.18860  1.0000
  C   C295      1.0  0.28392  0.98712  0.11591  1.0000
  H   H504      1.0  0.25235  0.92998  0.01835  1.0000
  N   N24       1.0  0.22536  0.96483  0.04333  1.0000
  C   C296      1.0  0.46656  0.76776  0.16760  1.0000
  C   C297      1.0  0.17035  0.95884  0.05803  1.0000
  H   H505      1.0  0.16827  0.90505  0.25477  1.0000
  Fe  Fe46      1.0  0.18986  0.88263  0.31442  1.0000
  C   C298      1.0  0.20508  0.97282  0.05777  1.0000
  S   S88       1.0  0.19076  0.70042  0.29175  1.0000
  H   H506      1.0  0.16498  0.92771  0.22744  1.0000
  H   H507      1.0  0.44331  0.86139  0.15691  1.0000
  S   S89       1.0  0.31954  0.97190  0.12562  1.0000
  C   C299      1.0  0.01250  0.61003  0.28882  1.0000
  H   H508      1.0  0.13965  0.88392  0.24238  1.0000
  H   H509      1.0  0.43480  0.56742  0.18829  1.0000
  H   H510      1.0  0.41727  0.56076  0.24689  1.0000
  C   C300      1.0  0.17544  0.51773  0.99563  1.0000
  H   H511      1.0  0.06851  0.56412  0.24248  1.0000
  H   H512      1.0  0.36337  0.50760  0.27632  1.0000
  H   H513      1.0  0.32980  0.60721  0.29527  1.0000
  C   C301      1.0  0.50187  0.84514  0.14787  1.0000
  H   H514      1.0  0.44537  0.97351  0.13456  1.0000
  C   C302      1.0  0.21107  0.97913  0.02825  1.0000
  H   H515      1.0  0.45808  0.54499  0.20225  1.0000
  C   C303      1.0  0.08392  0.56722  0.25345  1.0000
  H   H516      1.0  0.00965  0.62310  0.27774  1.0000
  H   H517      1.0  0.24932  0.95719  0.12823  1.0000
  H   H518      1.0  0.40523  0.52019  0.19683  1.0000
  H   H519      1.0  0.13380  0.54448  0.27581  1.0000
  H   H520      1.0  0.08000  0.52434  0.00313  1.0000
  H   H521      1.0  0.06947  0.58212  0.26192  1.0000
  C   C304      1.0  0.04548  0.93688  0.31239  1.0000
  H   H522      1.0  0.19311  0.81875  0.29468  1.0000
  H   H523      1.0  0.27455  0.97566  0.03575  1.0000
  H   H524      1.0  0.12533  0.91064  0.25755  1.0000
  H   H525      1.0  0.13306  0.58785  0.25775  1.0000
  H   H526      1.0  0.38448  0.55372  0.20511  1.0000
  C   C305      1.0  0.31654  0.58548  0.29057  1.0000
  C   C306      1.0  0.11332  0.58848  0.24872  1.0000
  H   H527      1.0  0.05146  0.50929  0.24909  1.0000
  H   H528      1.0  0.46012  0.54969  0.16288  1.0000
  C   C307      1.0  0.29538  0.50689  0.31412  1.0000
  H   H529      1.0  0.29967  0.95711  0.24577  1.0000
  H   H530      1.0  0.43689  0.66430  0.20978  1.0000
  H   H531      1.0  0.29753  0.57298  0.31370  1.0000
  H   H532      1.0  0.21748  0.96506  0.06901  1.0000
  H   H533      1.0  0.28389  0.52429  0.08266  1.0000
  C   C308      1.0  0.28471  0.52465  0.10857  1.0000
  H   H534      1.0  0.13500  0.96664  0.26710  1.0000
  C   C309      1.0  0.14468  0.90742  0.24855  1.0000
  H   H535      1.0  0.39162  0.60510  0.21020  1.0000
  H   H536      1.0  0.18245  0.51773  0.00816  1.0000
  H   H537      1.0  0.27082  0.96785  0.05664  1.0000
  H   H538      1.0  0.29295  0.59418  0.28609  1.0000
  H   H539      1.0  0.33652  0.55867  0.30990  1.0000
  C   C310      1.0  0.25261  0.97585  0.11936  1.0000
  C   C311      1.0  0.08143  0.51976  0.02837  1.0000
  H   H540      1.0  0.18698  0.95434  0.25997  1.0000
  C   C312      1.0  0.22913  0.92862  0.04222  1.0000
  H   H541      1.0  0.02861  0.92891  0.27266  1.0000
  H   H542      1.0  0.45093  0.87043  0.18364  1.0000
  C   C313      1.0  0.49059  0.79349  0.16121  1.0000
  H   H543      1.0  0.49527  0.64764  0.15921  1.0000
  H   H544      1.0  0.20215  0.99937  0.05902  1.0000
  H   H545      1.0  0.47396  0.79097  0.13091  1.0000
  H   H546      1.0  0.47126  0.61559  0.19258  1.0000
  C   C314      1.0  0.01037  0.69271  0.30476  1.0000
  C   C315      1.0  0.17854  0.54628  0.98658  1.0000
  C   C316      1.0  0.22539  0.98872  0.11130  1.0000
  H   H547      1.0  0.19612  0.98895  0.21810  1.0000
  N   N25       1.0  0.47559  0.82128  0.15237  1.0000
  C   C317      1.0  0.44589  0.83342  0.12568  1.0000
  H   H548      1.0  0.10343  0.96060  0.25285  1.0000
  H   H549      1.0  0.07713  0.51241  0.29400  1.0000
  H   H550      1.0  0.01260  0.51453  0.27254  1.0000
  S   S90       1.0  0.23250  0.91705  0.31282  1.0000
  H   H551      1.0  0.01406  0.71500  0.31209  1.0000
  C   C318      1.0  0.47379  0.60787  0.20527  1.0000
  H   H552      1.0  0.01267  0.67092  0.31238  1.0000
  C   C319      1.0  0.12612  0.97492  0.25521  1.0000
  H   H553      1.0  0.43111  0.82083  0.11625  1.0000
  H   H554      1.0  0.20138  0.97970  0.11411  1.0000
  C   C320      1.0  0.11457  0.51776  0.24947  1.0000
  H   H555      1.0  0.47925  0.63046  0.21219  1.0000
  C   C321      1.0  0.31228  0.56105  0.30429  1.0000
  H   H556      1.0  0.02374  0.51023  0.00311  1.0000
  H   H557      1.0  0.21754  0.51226  0.28644  1.0000
  C   C322      1.0  0.31500  0.51238  0.28612  1.0000
  H   H558      1.0  0.12183  0.98966  0.22375  1.0000
  C   C323      1.0  0.14704  0.99159  0.22862  1.0000
  C   C324      1.0  0.08402  0.50417  0.01160  1.0000
  H   H559      1.0  0.22235  0.00182  0.25963  1.0000
  H   H560      1.0  0.08480  0.50231  0.03822  1.0000
  C   C325      1.0  0.44671  0.51876  0.51349  1.0000
  H   H561      1.0  0.19064  0.77053  0.34004  1.0000
  C   C326      1.0  0.22291  0.93329  0.56907  1.0000
  H   H562      1.0  0.38723  0.78953  0.49659  1.0000
  H   H563      1.0  0.21205  0.84894  0.39670  1.0000
  H   H564      1.0  0.42774  0.97166  0.49521  1.0000
  Fe  Fe47      1.0  0.40693  0.59106  0.55474  1.0000
  S   S91       1.0  0.39781  0.62727  0.53560  1.0000
  S   S92       1.0  0.45298  0.56161  0.55463  1.0000
  Fe  Fe48      1.0  0.33822  0.59666  0.56808  1.0000
  S   S93       1.0  0.32411  0.63362  0.54927  1.0000
  S   S94       1.0  0.30791  0.58401  0.59041  1.0000
  Fe  Fe49      1.0  0.35043  0.60105  0.53173  1.0000
  S   S95       1.0  0.33959  0.59432  0.50493  1.0000
  Fe  Fe50      1.0  0.37278  0.65732  0.55429  1.0000
  S   S96       1.0  0.39003  0.71054  0.55549  1.0000
  S   S97       1.0  0.36066  0.56278  0.55005  1.0000
  S   S98       1.0  0.38574  0.62245  0.57394  1.0000
  Fe  Fe51      1.0  0.34409  0.90060  0.55690  1.0000
  S   S99       1.0  0.35433  0.93417  0.57793  1.0000
  S   S100      1.0  0.32252  0.84928  0.55836  1.0000
  Fe  Fe52      1.0  0.35541  0.95505  0.53224  1.0000
  H   H565      1.0  0.34682  0.81523  0.46912  1.0000
  S   S101      1.0  0.36279  0.95963  0.50526  1.0000
  Fe  Fe53      1.0  0.39560  0.95320  0.56287  1.0000
  S   S102      1.0  0.44553  0.96665  0.57261  1.0000
  Fe  Fe54      1.0  0.32408  0.97077  0.56498  1.0000
  H   H566      1.0  0.22121  0.54532  0.42919  1.0000
  S   S103      1.0  0.38748  0.91712  0.54301  1.0000
  S   S104      1.0  0.31119  0.93606  0.54474  1.0000
  H   H567      1.0  0.18044  0.50289  0.62905  1.0000
  H   H568      1.0  0.42735  0.51822  0.58284  1.0000
  H   H569      1.0  0.26180  0.95079  0.38138  1.0000
  H   H570      1.0  0.35927  0.77439  0.47351  1.0000
  C   C327      1.0  0.21874  0.51892  0.43147  1.0000
  C   C328      1.0  0.27802  0.55216  0.61540  1.0000
  C   C329      1.0  0.33054  0.80456  0.51395  1.0000
  Fe  Fe55      1.0  0.21024  0.59050  0.32044  1.0000
  H   H571      1.0  0.25258  0.85274  0.37308  1.0000
  C   C330      1.0  0.23932  0.51663  0.35257  1.0000
  H   H572      1.0  0.22073  0.95797  0.37477  1.0000
  C   C331      1.0  0.42377  0.98940  0.39539  1.0000
  C   C332      1.0  0.47975  0.92781  0.55168  1.0000
  C   C333      1.0  0.48118  0.95148  0.56377  1.0000
  H   H573      1.0  0.28244  0.90883  0.36465  1.0000
  H   H574      1.0  0.45667  0.91771  0.54791  1.0000
  H   H575      1.0  0.27410  0.51327  0.32161  1.0000
  C   C334      1.0  0.28923  0.54944  0.59953  1.0000
  C   C335      1.0  0.20997  0.83628  0.38496  1.0000
  H   H576      1.0  0.16111  0.55853  0.60641  1.0000
  Fe  Fe56      1.0  0.19840  0.95513  0.32140  1.0000
  H   H577      1.0  0.29305  0.51719  0.57926  1.0000
  S   S105      1.0  0.08727  0.57893  0.31729  1.0000
  H   H578      1.0  0.34381  0.75553  0.50560  1.0000
  C   C336      1.0  0.34193  0.81096  0.55855  1.0000
  C   C337      1.0  0.32269  0.78251  0.55868  1.0000
  C   C338      1.0  0.33687  0.75157  0.55802  1.0000
  C   C339      1.0  0.37057  0.74869  0.55717  1.0000
  C   C340      1.0  0.38979  0.77717  0.55720  1.0000
  C   C341      1.0  0.37563  0.80808  0.55792  1.0000
  H   H579      1.0  0.29660  0.78437  0.55917  1.0000
  H   H580      1.0  0.32174  0.72996  0.55802  1.0000
  H   H581      1.0  0.41588  0.77527  0.55665  1.0000
  H   H582      1.0  0.39084  0.82964  0.55796  1.0000
  C   C342      1.0  0.34235  0.55821  0.49335  1.0000
  H   H583      1.0  0.37732  0.97439  0.47255  1.0000
  C   C343      1.0  0.45274  0.97350  0.50030  1.0000
  H   H584      1.0  0.42238  0.85042  0.50365  1.0000
  H   H585      1.0  0.00924  0.94071  0.33083  1.0000
  H   H586      1.0  0.18417  0.83053  0.38213  1.0000
  H   H587      1.0  0.27835  0.91421  0.34347  1.0000
  H   H588      1.0  0.39846  0.94573  0.37229  1.0000
  C   C344      1.0  0.43790  0.56594  0.60573  1.0000
  H   H589      1.0  0.47316  0.61802  0.57374  1.0000
  C   C345      1.0  0.25973  0.54382  0.35123  1.0000
  H   H590      1.0  0.44669  0.57699  0.48398  1.0000
  H   H591      1.0  0.26098  0.55767  0.41249  1.0000
  C   C346      1.0  0.49138  0.57866  0.55950  1.0000
  H   H592      1.0  0.42415  0.96256  0.39449  1.0000
  C   C347      1.0  0.49457  0.60592  0.56948  1.0000
  H   H593      1.0  0.41302  0.56821  0.49601  1.0000
  H   H594      1.0  0.22225  0.81263  0.38613  1.0000
  C   C348      1.0  0.34873  0.56035  0.47684  1.0000
  H   H595      1.0  0.39496  0.59757  0.62655  1.0000
  H   H596      1.0  0.16892  0.94011  0.37898  1.0000
  H   H597      1.0  0.44492  0.61445  0.50641  1.0000
  N   N26       1.0  0.45068  0.53174  0.49678  1.0000
  C   C349      1.0  0.37167  0.80963  0.49235  1.0000
  H   H598      1.0  0.31526  0.00013  0.60606  1.0000
  H   H599      1.0  0.43304  0.58712  0.59790  1.0000
  H   H600      1.0  0.47277  0.54313  0.58911  1.0000
  H   H601      1.0  0.46407  0.98618  0.41275  1.0000
  H   H602      1.0  0.20847  0.91206  0.56475  1.0000
  C   C350      1.0  0.17519  0.54755  0.61627  1.0000
  C   C351      1.0  0.27600  0.98899  0.34850  1.0000
  H   H603      1.0  0.30453  0.86465  0.51967  1.0000
  C   C352      1.0  0.36368  0.99443  0.47731  1.0000
  S   S106      1.0  0.15644  0.92000  0.32461  1.0000
  H   H604      1.0  0.43964  0.94391  0.36470  1.0000
  H   H605      1.0  0.25441  0.52837  0.63533  1.0000
  H   H606      1.0  0.48055  0.53581  0.61032  1.0000
  H   H607      1.0  0.35501  0.87108  0.49244  1.0000
  C   C353      1.0  0.45821  0.94091  0.50870  1.0000
  H   H608      1.0  0.20126  0.55239  0.61389  1.0000
  C   C354      1.0  0.41482  0.51417  0.61611  1.0000
  N   N27       1.0  0.24039  0.91075  0.59668  1.0000
  C   C355      1.0  0.22249  0.93630  0.58745  1.0000
  C   C356      1.0  0.23215  0.91536  0.61418  1.0000
  C   C357      1.0  0.22794  0.87732  0.59186  1.0000
  C   C358      1.0  0.27632  0.91490  0.59422  1.0000
  H   H609      1.0  0.24788  0.93266  0.56432  1.0000
  C   C359      1.0  0.24237  0.94803  0.62197  1.0000
  C   C360      1.0  0.24553  0.85992  0.57802  1.0000
  C   C361      1.0  0.29775  0.89259  0.60451  1.0000
  C   C362      1.0  0.40586  0.53087  0.58746  1.0000
  C   C363      1.0  0.29767  0.51880  0.37023  1.0000
  H   H610      1.0  0.24304  0.89616  0.62170  1.0000
  H   H611      1.0  0.20548  0.91251  0.61591  1.0000
  H   H612      1.0  0.22918  0.86016  0.60208  1.0000
  H   H613      1.0  0.20162  0.87803  0.58878  1.0000
  H   H614      1.0  0.28288  0.91117  0.58146  1.0000
  H   H615      1.0  0.28394  0.94041  0.59676  1.0000
  C   C364      1.0  0.45393  0.58966  0.50867  1.0000
  H   H616      1.0  0.06948  0.52251  0.64092  1.0000
  H   H617      1.0  0.10993  0.53351  0.60118  1.0000
  H   H618      1.0  0.26899  0.95192  0.62187  1.0000
  H   H619      1.0  0.23005  0.96886  0.61642  1.0000
  H   H620      1.0  0.27738  0.97148  0.33882  1.0000
  H   H621      1.0  0.23076  0.95715  0.39544  1.0000
  H   H622      1.0  0.24908  0.87502  0.56730  1.0000
  H   H623      1.0  0.23114  0.83822  0.57421  1.0000
  H   H624      1.0  0.31776  0.88308  0.59706  1.0000
  H   H625      1.0  0.28467  0.87124  0.60931  1.0000
  H   H626      1.0  0.18954  0.71700  0.32602  1.0000
  N   N28       1.0  0.35521  0.82646  0.50608  1.0000
  H   H627      1.0  0.44069  0.57581  0.61811  1.0000
  H   H628      1.0  0.26567  0.54990  0.44660  1.0000
  C   C365      1.0  0.33826  0.85577  0.49964  1.0000
  C   C366      1.0  0.34911  0.79690  0.47872  1.0000
  H   H629      1.0  0.35301  0.58388  0.47160  1.0000
  C   C367      1.0  0.43990  0.56643  0.49572  1.0000
  H   H630      1.0  0.45342  0.97852  0.53312  1.0000
  H   H631      1.0  0.31854  0.84834  0.49112  1.0000
  S   S107      1.0  0.19312  0.83604  0.32855  1.0000
  H   H632      1.0  0.30742  0.80327  0.50700  1.0000
  H   H633      1.0  0.47618  0.96841  0.38187  1.0000
  C   C368      1.0  0.43301  0.51926  0.46756  1.0000
  H   H634      1.0  0.27424  0.53253  0.47353  1.0000
  C   C369      1.0  0.32256  0.87780  0.51230  1.0000
  H   H635      1.0  0.30946  0.90662  0.61446  1.0000
  C   C370      1.0  0.38046  0.83592  0.51851  1.0000
  C   C371      1.0  0.26145  0.51491  0.46544  1.0000
  H   H636      1.0  0.39640  0.88375  0.50933  1.0000
  H   H637      1.0  0.30968  0.89769  0.50615  1.0000
  H   H638      1.0  0.32447  0.79028  0.48277  1.0000
  H   H639      1.0  0.35434  0.53440  0.45436  1.0000
  H   H640      1.0  0.23513  0.94805  0.63477  1.0000
  H   H641      1.0  0.42303  0.86591  0.52357  1.0000
  H   H642      1.0  0.36895  0.84618  0.52942  1.0000
  H   H643      1.0  0.49083  0.54395  0.48116  1.0000
  N   N29       1.0  0.21732  0.89091  0.37015  1.0000
  C   C372      1.0  0.22602  0.85554  0.37131  1.0000
  C   C373      1.0  0.23240  0.90360  0.35502  1.0000
  C   C374      1.0  0.18091  0.89260  0.36862  1.0000
  C   C375      1.0  0.22953  0.90847  0.38504  1.0000
  C   C376      1.0  0.26945  0.89991  0.35377  1.0000
  C   C377      1.0  0.16626  0.92656  0.36749  1.0000
  C   C378      1.0  0.23580  0.94544  0.38370  1.0000
  H   H644      1.0  0.22000  0.84244  0.35990  1.0000
  H   H645      1.0  0.22716  0.92943  0.35305  1.0000
  H   H646      1.0  0.22146  0.89104  0.34440  1.0000
  H   H647      1.0  0.17233  0.87840  0.35790  1.0000
  H   H648      1.0  0.16884  0.88151  0.37911  1.0000
  H   H649      1.0  0.21250  0.90458  0.39514  1.0000
  H   H650      1.0  0.25312  0.89819  0.38894  1.0000
  H   H651      1.0  0.39770  0.99609  0.39620  1.0000
  C   C379      1.0  0.35321  0.99368  0.49331  1.0000
  H   H652      1.0  0.23253  0.96077  0.59030  1.0000
  C   C380      1.0  0.26285  0.52572  0.62315  1.0000
  H   H653      1.0  0.19408  0.53688  0.45296  1.0000
  H   H654      1.0  0.34099  0.88949  0.52020  1.0000
  H   H655      1.0  0.17631  0.94087  0.35753  1.0000
  H   H656      1.0  0.28107  0.57496  0.62176  1.0000
  H   H657      1.0  0.48076  0.59104  0.50848  1.0000
  H   H658      1.0  0.26950  0.85105  0.58204  1.0000
  H   H659      1.0  0.29530  0.53996  0.40330  1.0000
  H   H660      1.0  0.12874  0.51122  0.64165  1.0000
  C   C381      1.0  0.30410  0.99762  0.35748  1.0000
  H   H661      1.0  0.48181  0.93990  0.51498  1.0000
  H   H662      1.0  0.32255  0.75675  0.52407  1.0000
  C   C382      1.0  0.28183  0.54168  0.41473  1.0000
  H   H663      1.0  0.30494  0.56550  0.35924  1.0000
  C   C383      1.0  0.34941  0.53236  0.46703  1.0000
  H   H664      1.0  0.11704  0.54262  0.62848  1.0000
  H   H665      1.0  0.19653  0.93693  0.59103  1.0000
  H   H666      1.0  0.42474  0.98657  0.42134  1.0000
  C   C384      1.0  0.43983  0.99728  0.41172  1.0000
  H   H667      1.0  0.38908  0.82638  0.48644  1.0000
  H   H668      1.0  0.33138  0.52572  0.51260  1.0000
  C   C385      1.0  0.47363  0.99447  0.37887  1.0000
  H   H669      1.0  0.02336  0.56215  0.32805  1.0000
  S   S108      1.0  0.36612  0.99238  0.55138  1.0000
  C   C386      1.0  0.41611  0.95640  0.36379  1.0000
  H   H670      1.0  0.40407  0.51376  0.48851  1.0000
  H   H671      1.0  0.39352  0.81422  0.52282  1.0000
  H   H672      1.0  0.21150  0.95511  0.56389  1.0000
  H   H673      1.0  0.35367  0.52298  0.58350  1.0000
  H   H674      1.0  0.40358  0.55224  0.57952  1.0000
  H   H675      1.0  0.29876  0.55308  0.42359  1.0000
  C   C387      1.0  0.48605  0.53052  0.49243  1.0000
  S   S109      1.0  0.25097  0.57672  0.33816  1.0000
  C   C388      1.0  0.01332  0.93785  0.31812  1.0000
  H   H676      1.0  0.27597  0.87440  0.35122  1.0000
  H   H677      1.0  0.38621  0.55851  0.63563  1.0000
  H   H678      1.0  0.37427  0.57884  0.60043  1.0000
  C   C389      1.0  0.26936  0.52339  0.44791  1.0000
  C   C390      1.0  0.40676  0.86041  0.51317  1.0000
  H   H679      1.0  0.13983  0.92400  0.36505  1.0000
  H   H680      1.0  0.42578  0.52319  0.62758  1.0000
  C   C391      1.0  0.19187  0.79835  0.31830  1.0000
  H   H681      1.0  0.32337  0.81463  0.52580  1.0000
  H   H682      1.0  0.16961  0.55996  0.62776  1.0000
  C   C392      1.0  0.19091  0.76946  0.32709  1.0000
  H   H683      1.0  0.43837  0.93545  0.51720  1.0000
  H   H684      1.0  0.41344  0.51874  0.53362  1.0000
  H   H685      1.0  0.35429  0.58358  0.62854  1.0000
  H   H686      1.0  0.21685  0.51546  0.34580  1.0000
  C   C393      1.0  0.47171  0.55341  0.60139  1.0000
  S   S110      1.0  0.28154  0.00015  0.57474  1.0000
  C   C394      1.0  0.28887  0.54469  0.36018  1.0000
  H   H687      1.0  0.40613  0.95147  0.35158  1.0000
  H   H688      1.0  0.36434  0.76851  0.52385  1.0000
  C   C395      1.0  0.33668  0.52770  0.49997  1.0000
  S   S111      1.0  0.17097  0.62733  0.32496  1.0000
  H   H689      1.0  0.46377  0.53061  0.52224  1.0000
  H   H690      1.0  0.48921  0.57413  0.60172  1.0000
  N   N30       1.0  0.41009  0.54186  0.60466  1.0000
  H   H691      1.0  0.45776  0.92116  0.49957  1.0000
  C   C396      1.0  0.34135  0.76948  0.51694  1.0000
  C   C397      1.0  0.41957  0.99338  0.36628  1.0000
  C   C398      1.0  0.11661  0.51586  0.62991  1.0000
  H   H692      1.0  0.46913  0.97417  0.48976  1.0000
  C   C399      1.0  0.19281  0.51582  0.44459  1.0000
  S   S112      1.0  0.20969  0.99279  0.34132  1.0000
  H   H693      1.0  0.48084  0.99659  0.36607  1.0000
  C   C400      1.0  0.43009  0.51128  0.48552  1.0000
  H   H694      1.0  0.42424  0.54393  0.46493  1.0000
  C   C401      1.0  0.19024  0.73912  0.31919  1.0000
  C   C402      1.0  0.02045  0.57579  0.31713  1.0000
  C   C403      1.0  0.28498  0.51974  0.59150  1.0000
  C   C404      1.0  0.44252  0.99914  0.52676  1.0000
  H   H695      1.0  0.44579  0.58296  0.52083  1.0000
  H   H696      1.0  0.14844  0.52982  0.58184  1.0000
  H   H697      1.0  0.32685  0.98629  0.35469  1.0000
  H   H698      1.0  0.32640  0.53067  0.33249  1.0000
  H   H699      1.0  0.39924  0.54224  0.51766  1.0000
  H   H700      1.0  0.06572  0.93906  0.32067  1.0000
  H   H701      1.0  0.16841  0.51523  0.43883  1.0000
  H   H702      1.0  0.41634  0.99240  0.52566  1.0000
  H   H703      1.0  0.32029  0.51985  0.37688  1.0000
  C   C405      1.0  0.41206  0.51955  0.52033  1.0000
  C   C406      1.0  0.37935  0.57549  0.62601  1.0000
  C   C407      1.0  0.37962  0.55949  0.60922  1.0000
  H   H704      1.0  0.45800  0.51648  0.46305  1.0000
  H   H705      1.0  0.06639  0.50933  0.62051  1.0000
  C   C408      1.0  0.08047  0.50643  0.63176  1.0000
  H   H706      1.0  0.35818  0.54283  0.60888  1.0000
  C   C409      1.0  0.16939  0.51065  0.61751  1.0000
  N   N31       1.0  0.25152  0.50465  0.43484  1.0000
  H   H707      1.0  0.29595  0.51965  0.44684  1.0000
  H   H708      1.0  0.50120  0.54308  0.50175  1.0000
  C   C410      1.0  0.37621  0.50867  0.58397  1.0000
  H   H709      1.0  0.20805  0.50929  0.42004  1.0000
  H   H710      1.0  0.23543  0.51623  0.46823  1.0000
  C   C411      1.0  0.32450  0.50729  0.32585  1.0000
  C   C412      1.0  0.27108  0.50722  0.41966  1.0000
  C   C413      1.0  0.11840  0.50800  0.60069  1.0000
  C   C414      1.0  0.13932  0.50551  0.58540  1.0000
  H   H711      1.0  0.39082  0.50343  0.61934  1.0000
  Fe  Fe57      1.0  0.16552  0.58977  0.93246  1.0000
  S   S113      1.0  0.15961  0.54860  0.91499  1.0000
  S   S114      1.0  0.17555  0.58291  0.95925  1.0000
  Fe  Fe58      1.0  0.15773  0.64167  0.90627  1.0000
  S   S115      1.0  0.15127  0.60319  0.88685  1.0000
  S   S116      1.0  0.15472  0.69447  0.89766  1.0000
  Fe  Fe59      1.0  0.11903  0.57808  0.90468  1.0000
  S   S117      1.0  0.07226  0.55029  0.89940  1.0000
  Fe  Fe60      1.0  0.19253  0.57667  0.89855  1.0000
  S   S118      1.0  0.23942  0.55554  0.88795  1.0000
  S   S119      1.0  0.12267  0.61767  0.92326  1.0000
  S   S120      1.0  0.20104  0.61679  0.91683  1.0000
  Fe  Fe61      1.0  0.17249  0.88714  0.91909  1.0000
  S   S121      1.0  0.16729  0.90249  0.89343  1.0000
  S   S122      1.0  0.17862  0.83565  0.92886  1.0000
  Fe  Fe62      1.0  0.15961  0.95668  0.93202  1.0000
  S   S123      1.0  0.15252  0.97636  0.90705  1.0000
  H   H712      1.0  0.20331  0.53338  0.77843  1.0000
  Fe  Fe63      1.0  0.12414  0.93044  0.90210  1.0000
  S   S124      1.0  0.07686  0.92756  0.88803  1.0000
  Fe  Fe64      1.0  0.19641  0.94739  0.90040  1.0000
  S   S125      1.0  0.24134  0.96602  0.88684  1.0000
  S   S126      1.0  0.12783  0.91288  0.92730  1.0000
  S   S127      1.0  0.20503  0.92997  0.92582  1.0000
  H   H713      1.0  0.01674  0.80043  0.90026  1.0000
  H   H714      1.0  0.00923  0.57577  0.92716  1.0000
  H   H715      1.0  0.04429  0.55320  0.95701  1.0000
  H   H716      1.0  0.26416  0.58508  0.81755  1.0000
  H   H717      1.0  0.31836  0.56241  0.93303  1.0000
  H   H718      1.0  0.29987  0.53597  0.87421  1.0000
  C   C415      1.0  0.03957  0.93627  0.91498  1.0000
  C   C416      1.0  0.03993  0.93147  0.89839  1.0000
  C   C417      1.0  0.26272  0.59225  0.94746  1.0000
  H   H719      1.0  0.06212  0.93843  0.92161  1.0000
  C   C418      1.0  0.24433  0.51874  0.79351  1.0000
  C   C419      1.0  0.21953  0.51240  0.77992  1.0000
  H   H720      1.0  0.15058  0.51825  0.95051  1.0000
  H   H721      1.0  0.10322  0.77104  0.91876  1.0000
  C   C420      1.0  0.24818  0.53084  0.87081  1.0000
  H   H722      1.0  0.06036  0.75959  0.91782  1.0000
  H   H723      1.0  0.23574  0.58036  0.79246  1.0000
  H   H724      1.0  0.28812  0.56113  0.96380  1.0000
  H   H725      1.0  0.02845  0.86795  0.91569  1.0000
  H   H726      1.0  0.03278  0.80441  0.91988  1.0000
  H   H727      1.0  0.05530  0.61857  0.90050  1.0000
  C   C421      1.0  0.32458  0.54744  0.77414  1.0000
  H   H728      1.0  0.10281  0.78970  0.89149  1.0000
  N   N32       1.0  0.26220  0.52888  0.94720  1.0000
  C   C422      1.0  0.16342  0.73318  0.90656  1.0000
  C   C423      1.0  0.16896  0.73744  0.92303  1.0000
  C   C424      1.0  0.17387  0.76888  0.92956  1.0000
  C   C425      1.0  0.17327  0.79653  0.91979  1.0000
  C   C426      1.0  0.16813  0.79224  0.90330  1.0000
  C   C427      1.0  0.16322  0.76081  0.89677  1.0000
  H   H729      1.0  0.16920  0.71655  0.93075  1.0000
  H   H730      1.0  0.17802  0.77180  0.94232  1.0000
  H   H731      1.0  0.16805  0.81311  0.89556  1.0000
  H   H732      1.0  0.15920  0.75786  0.88400  1.0000
  H   H733      1.0  0.34362  0.54107  0.78301  1.0000
  C   C428      1.0  0.03533  0.57064  0.89678  1.0000
  C   C429      1.0  0.03348  0.60433  0.89826  1.0000
  H   H734      1.0  0.11376  0.85340  0.88344  1.0000
  H   H735      1.0  0.24534  0.56176  0.96577  1.0000
  H   H736      1.0  0.22964  0.52659  0.80388  1.0000
  C   C430      1.0  0.16968  0.54673  0.97025  1.0000
  C   C431      1.0  0.28906  0.50535  0.85362  1.0000
  H   H737      1.0  0.36283  0.99555  0.74580  1.0000
  H   H738      1.0  0.27565  0.59512  0.78941  1.0000
  H   H739      1.0  0.01049  0.92518  0.87708  1.0000
  H   H740      1.0  0.33391  0.54051  0.76215  1.0000
  H   H741      1.0  0.21711  0.50834  0.91253  1.0000
  H   H742      1.0  0.00824  0.52638  0.89249  1.0000
  H   H743      1.0  0.11405  0.83324  0.90935  1.0000
  H   H744      1.0  0.01243  0.96980  0.96386  1.0000
  H   H745      1.0  0.08674  0.86564  0.91013  1.0000
  H   H746      1.0  0.27054  0.61268  0.95541  1.0000
  C   C432      1.0  0.25101  0.58138  0.76777  1.0000
  H   H747      1.0  0.08908  0.86166  0.86639  1.0000
  H   H748      1.0  0.21489  0.54079  0.93791  1.0000
  C   C433      1.0  0.23875  0.53257  0.93337  1.0000
  H   H749      1.0  0.29950  0.98481  0.87036  1.0000
  H   H750      1.0  0.06272  0.77535  0.88775  1.0000
  H   H751      1.0  0.05280  0.86352  0.88785  1.0000
  H   H752      1.0  0.00674  0.70872  0.89820  1.0000
  H   H753      1.0  0.06247  0.84690  0.93489  1.0000
  N   N33       1.0  0.27141  0.54264  0.79015  1.0000
  C   C434      1.0  0.15746  0.51831  0.96306  1.0000
  C   C435      1.0  0.03537  0.57355  0.94966  1.0000
  C   C436      1.0  0.31148  0.53792  0.92860  1.0000
  C   C437      1.0  0.01309  0.84825  0.91049  1.0000
  H   H754      1.0  0.08946  0.73966  0.90574  1.0000
  H   H755      1.0  0.10544  0.84577  0.93673  1.0000
  H   H756      1.0  0.29215  0.56406  0.82996  1.0000
  C   C438      1.0  0.29144  0.54605  0.80536  1.0000
  H   H757      1.0  0.08346  0.80891  0.93408  1.0000
  C   C439      1.0  0.26509  0.56019  0.95674  1.0000
  H   H758      1.0  0.10098  0.82095  0.86988  1.0000
  N   N34       1.0  0.06543  0.82051  0.90114  1.0000
  C   C440      1.0  0.06208  0.83879  0.88562  1.0000
  C   C441      1.0  0.03200  0.81657  0.90809  1.0000
  C   C442      1.0  0.07846  0.78754  0.89698  1.0000
  C   C443      1.0  0.08846  0.83907  0.91216  1.0000
  C   C444      1.0  0.09351  0.84363  0.87595  1.0000
  H   H759      1.0  0.24670  0.55176  0.92499  1.0000
  C   C445      1.0  0.08269  0.76359  0.91083  1.0000
  C   C446      1.0  0.08428  0.83449  0.93039  1.0000
  H   H760      1.0  0.04388  0.82675  0.87752  1.0000
  C   C447      1.0  0.25835  0.57540  0.78571  1.0000
  H   H761      1.0  0.33434  0.52597  0.92510  1.0000
  H   H762      1.0  0.23719  0.59681  0.94410  1.0000
  H   H763      1.0  0.31300  0.56197  0.80350  1.0000
  H   H764      1.0  0.32137  0.57402  0.77434  1.0000
  C   C448      1.0  0.27420  0.56087  0.82004  1.0000
  H   H765      1.0  0.23863  0.60497  0.76659  1.0000
  H   H766      1.0  0.05569  0.58243  0.94211  1.0000
  H   H767      1.0  0.27348  0.58319  0.76063  1.0000
  H   H768      1.0  0.30114  0.52213  0.80902  1.0000
  C   C449      1.0  0.00689  0.55242  0.89378  1.0000
  C   C450      1.0  0.28080  0.52503  0.86691  1.0000
  H   H769      1.0  0.25491  0.54484  0.82476  1.0000
  H   H770      1.0  0.29651  0.53954  0.91753  1.0000
  C   C451      1.0  0.29281  0.52846  0.77738  1.0000
  H   H771      1.0  0.23491  0.56282  0.76219  1.0000
  H   H772      1.0  0.02950  0.59430  0.95750  1.0000
  H   H773      1.0  0.23083  0.50590  0.76839  1.0000
  H   H774      1.0  0.25433  0.98794  0.94424  1.0000
  H   H775      1.0  0.27753  0.59327  0.93653  1.0000
  C   C452      1.0  0.24834  0.50322  0.95808  1.0000
  H   H776      1.0  0.42080  0.99523  0.74642  1.0000
  H   H777      1.0  0.26535  0.99681  0.91459  1.0000
  C   C453      1.0  0.01036  0.92884  0.88993  1.0000
  H   H778      1.0  0.19870  0.52060  0.86399  1.0000
  C   C454      1.0  0.22388  0.51649  0.86120  1.0000
  C   C455      1.0  0.29499  0.51773  0.94172  1.0000
  H   H779      1.0  0.03082  0.99848  0.95084  1.0000
  H   H780      1.0  0.29426  0.97972  0.93791  1.0000
  H   H781      1.0  0.27985  0.52584  0.76572  1.0000
  H   H782      1.0  0.22273  0.50861  0.96098  1.0000
  C   C456      1.0  0.01218  0.99557  0.96028  1.0000
  H   H783      1.0  0.31243  0.51721  0.95194  1.0000
  H   H784      1.0  0.21397  0.98817  0.96495  1.0000
  H   H785      1.0  0.01292  0.53711  0.93503  1.0000
  C   C457      1.0  0.28029  0.99980  0.86578  1.0000
  C   C458      1.0  0.00995  0.93834  0.92305  1.0000
  C   C459      1.0  0.00717  0.56237  0.93860  1.0000
  H   H786      1.0  0.01001  0.94171  0.93590  1.0000
  H   H787      1.0  0.00386  0.55888  0.97633  1.0000
  H   H788      1.0  0.39919  0.99166  0.77225  1.0000
  S   S128      1.0  0.14597  0.98794  0.95374  1.0000
  H   H789      1.0  0.26633  0.52070  0.98183  1.0000
  H   H790      1.0  0.44480  0.98930  0.79002  1.0000
  H   H791      1.0  0.46012  0.99504  0.77028  1.0000
  C   C460      1.0  0.24852  0.99527  0.87150  1.0000
  H   H792      1.0  0.08729  0.50712  0.97828  1.0000
  C   C461      1.0  0.00333  0.61959  0.89682  1.0000
  H   H793      1.0  0.29974  0.50329  0.78051  1.0000
  H   H794      1.0  0.34677  0.99984  0.76590  1.0000
  H   H795      1.0  0.00256  0.85669  0.89899  1.0000
  C   C462      1.0  0.27668  0.99957  0.93966  1.0000
  Fe  Fe65      1.0  0.86243  0.39284  0.05401  1.0000
  S   S129      1.0  0.87534  0.42101  0.07658  1.0000
  S   S130      1.0  0.87597  0.33999  0.04835  1.0000
  Fe  Fe66      1.0  0.84166  0.45504  0.03626  1.0000
  C   C463      1.0  0.92612  0.02158  0.99058  1.0000
  S   S131      1.0  0.81590  0.47166  0.01348  1.0000
  Fe  Fe67      1.0  0.89825  0.45720  0.05994  1.0000
  C   C464      1.0  0.77844  0.37279  0.00025  1.0000
  Fe  Fe68      1.0  0.82917  0.44912  0.07246  1.0000
  S   S132      1.0  0.78928  0.45788  0.09115  1.0000
  S   S133      1.0  0.88826  0.42791  0.03766  1.0000
  S   S134      1.0  0.81474  0.41809  0.05099  1.0000
  Fe  Fe69      1.0  0.83327  0.14828  0.05540  1.0000
  S   S135      1.0  0.84548  0.11730  0.07667  1.0000
  S   S136      1.0  0.81378  0.19931  0.06003  1.0000
  Fe  Fe70      1.0  0.84841  0.09274  0.03162  1.0000
  S   S137      1.0  0.86257  0.05847  0.05125  1.0000
  S   S138      1.0  0.84977  0.08436  0.00444  1.0000
  Fe  Fe71      1.0  0.81833  0.07640  0.06438  1.0000
  S   S139      1.0  0.77939  0.04107  0.07407  1.0000
  Fe  Fe72      1.0  0.88861  0.10204  0.06211  1.0000
  S   S140      1.0  0.93715  0.10407  0.07532  1.0000
  S   S141      1.0  0.80279  0.10849  0.04393  1.0000
  S   S142      1.0  0.87770  0.13516  0.04162  1.0000
  H   H796      1.0  0.81760  0.05206  0.28709  1.0000
  C   C465      1.0  0.78480  0.03885  0.10758  1.0000
  C   C466      1.0  0.76857  0.31730  0.02299  1.0000
  C   C467      1.0  0.71123  0.01794  0.04380  1.0000
  C   C468      1.0  0.98174  0.42688  0.06013  1.0000
  H   H797      1.0  0.81670  0.33152  0.03007  1.0000
  S   S143      1.0  0.94666  0.48289  0.06387  1.0000
  C   C469      1.0  0.84251  0.04872  0.99279  1.0000
  H   H798      1.0  0.85855  0.21138  0.10208  1.0000
  C   C470      1.0  0.73448  0.06069  0.01515  1.0000
  H   H799      1.0  0.71788  0.02989  0.25419  1.0000
  H   H800      1.0  0.84972  0.49061  0.18963  1.0000
  H   H801      1.0  0.95402  0.09846  0.04154  1.0000
  H   H802      1.0  0.92801  0.16990  0.05957  1.0000
  H   H803      1.0  0.75704  0.48380  0.15491  1.0000
  C   C471      1.0  0.79627  0.34279  0.02356  1.0000
  C   C472      1.0  0.77502  0.02809  0.02896  1.0000
  H   H804      1.0  0.78114  0.48706  0.05030  1.0000
  C   C473      1.0  0.85765  0.30126  0.05149  1.0000
  C   C474      1.0  0.82948  0.29715  0.06048  1.0000
  C   C475      1.0  0.81615  0.26585  0.06273  1.0000
  C   C476      1.0  0.83077  0.23826  0.05606  1.0000
  C   C477      1.0  0.85862  0.24244  0.04682  1.0000
  C   C478      1.0  0.87198  0.27374  0.04460  1.0000
  H   H805      1.0  0.81810  0.31802  0.06585  1.0000
  H   H806      1.0  0.79454  0.26293  0.06986  1.0000
  H   H807      1.0  0.86991  0.22152  0.04145  1.0000
  H   H808      1.0  0.89361  0.27664  0.03749  1.0000
  H   H809      1.0  0.87412  0.40880  0.00182  1.0000
  C   C479      1.0  0.98262  0.46019  0.06326  1.0000
  H   H810      1.0  0.84875  0.39223  0.98639  1.0000
  C   C480      1.0  0.84454  0.30726  0.00416  1.0000
  H   H811      1.0  0.95869  0.41451  0.05833  1.0000
  H   H812      1.0  0.77493  0.29554  0.01587  1.0000
  H   H813      1.0  0.76001  0.06128  0.29272  1.0000
  C   C481      1.0  0.84155  0.01788  0.99957  1.0000
  C   C482      1.0  0.81832  0.32926  0.99688  1.0000
  H   H814      1.0  0.87624  0.36665  0.99715  1.0000
  C   C483      1.0  0.76973  0.03673  0.29502  1.0000
  N   N35       1.0  0.92017  0.21941  0.08502  1.0000
  C   C484      1.0  0.90193  0.25084  0.08649  1.0000
  C   C485      1.0  0.75720  0.08174  0.00482  1.0000
  C   C486      1.0  0.93715  0.21927  0.06905  1.0000
  H   H815      1.0  0.78835  0.36276  0.03164  1.0000
  C   C487      1.0  0.92120  0.28222  0.08279  1.0000
  H   H816      1.0  0.70638  0.04611  0.29850  1.0000
  H   H817      1.0  0.95878  0.23569  0.06941  1.0000
  C   C488      1.0  0.76728  0.02958  0.09381  1.0000
  H   H818      1.0  0.88032  0.25060  0.07843  1.0000
  H   H819      1.0  0.89216  0.25412  0.09878  1.0000
  H   H820      1.0  0.73147  0.07423  0.02663  1.0000
  C   C489      1.0  0.89535  0.19227  0.08555  1.0000
  H   H821      1.0  0.92082  0.22891  0.05957  1.0000
  H   H822      1.0  0.76404  0.30885  0.03539  1.0000
  H   H823      1.0  0.90450  0.03207  0.98483  1.0000
  C   C490      1.0  0.75402  0.00929  0.00299  1.0000
  H   H824      1.0  0.94306  0.28526  0.09048  1.0000
  H   H825      1.0  0.74162  0.05601  0.26686  1.0000
  H   H826      1.0  0.76675  0.38904  0.00920  1.0000
  H   H827      1.0  0.70752  0.04430  0.04538  1.0000
  H   H828      1.0  0.74665  0.10621  0.00361  1.0000
  H   H829      1.0  0.76009  0.07196  0.99251  1.0000
  H   H830      1.0  0.74552  0.32753  0.01854  1.0000
  C   C491      1.0  0.96273  0.18640  0.10126  1.0000
  H   H831      1.0  0.84837  0.37346  0.02209  1.0000
  H   H832      1.0  0.69989  0.04620  0.27179  1.0000
  H   H833      1.0  0.96320  0.23741  0.09732  1.0000
  C   C492      1.0  0.97612  0.09807  0.04861  1.0000
  H   H834      1.0  0.99610  0.46251  0.02659  1.0000
  H   H835      1.0  0.92791  0.28364  0.06996  1.0000
  H   H836      1.0  0.89052  0.18857  0.11186  1.0000
  H   H837      1.0  0.90546  0.30336  0.08514  1.0000
  C   C493      1.0  0.79977  0.03234  0.28436  1.0000
  H   H838      1.0  0.79536  0.04058  0.02280  1.0000
  C   C494      1.0  0.74737  0.00784  0.12465  1.0000
  N   N36       1.0  0.74535  0.02657  0.01831  1.0000
  H   H839      1.0  0.78886  0.03527  0.13335  1.0000
  C   C495      1.0  0.71429  0.02183  0.30251  1.0000
  H   H840      1.0  0.77903  0.03778  0.30758  1.0000
  C   C496      1.0  0.97461  0.10025  0.06532  1.0000
  N   N37       1.0  0.80720  0.35621  0.00768  1.0000
  H   H841      1.0  0.96147  0.19041  0.05101  1.0000
  S   S144      1.0  0.85321  0.48726  0.05744  1.0000
  H   H842      1.0  0.90622  0.16812  0.08394  1.0000
  H   H843      1.0  0.73509  0.46696  0.06834  1.0000
  H   H844      1.0  0.80612  0.05418  0.10648  1.0000
  H   H845      1.0  0.98671  0.18734  0.09532  1.0000
  H   H846      1.0  0.77541  0.02091  0.99734  1.0000
  C   C497      1.0  0.94865  0.18639  0.06247  1.0000
  H   H847      1.0  0.83335  0.28601  0.01017  1.0000
  C   C498      1.0  0.83347  0.49625  0.99837  1.0000
  H   H848      1.0  0.87810  0.19416  0.07526  1.0000
  H   H849      1.0  0.86024  0.32022  0.01304  1.0000
  H   H850      1.0  0.85937  0.16855  0.10048  1.0000
  C   C499      1.0  0.85931  0.38716  0.99828  1.0000
  H   H851      1.0  0.88020  0.50158  0.00980  1.0000
  C   C500      1.0  0.72280  0.03663  0.26693  1.0000
  H   H852      1.0  0.80325  0.48681  0.17260  1.0000
  H   H853      1.0  0.79754  0.31339  0.99312  1.0000
  C   C501      1.0  0.94424  0.21827  0.09872  1.0000
  H   H854      1.0  0.75957  0.35471  0.99648  1.0000
  C   C502      1.0  0.78516  0.39364  0.98543  1.0000
  H   H855      1.0  0.84627  0.01528  0.01225  1.0000
  H   H856      1.0  0.74488  0.47954  0.17550  1.0000
  H   H857      1.0  0.93251  0.03762  0.00094  1.0000
  C   C503      1.0  0.73162  0.48298  0.05785  1.0000
  C   C504      1.0  0.83391  0.38067  0.01143  1.0000
  H   H858      1.0  0.79938  0.41584  0.98865  1.0000
  H   H859      1.0  0.71014  0.06078  0.00929  1.0000
  C   C505      1.0  0.77435  0.49257  0.10160  1.0000
  H   H860      1.0  0.78990  0.49587  0.98388  1.0000
  H   H861      1.0  0.96695  0.18287  0.11430  1.0000
  C   C506      1.0  0.87510  0.19056  0.10098  1.0000
  H   H862      1.0  0.79395  0.03386  0.27139  1.0000
  C   C507      1.0  0.77489  0.02806  0.12285  1.0000
  H   H863      1.0  0.72677  0.46696  0.04731  1.0000
  H   H864      1.0  0.94962  0.16427  0.09723  1.0000
  H   H865      1.0  0.77122  0.04354  0.03974  1.0000
  H   H866      1.0  0.93274  0.22481  0.11031  1.0000
  H   H867      1.0  0.78130  0.08533  0.01051  1.0000
  C   C508      1.0  0.74604  0.48939  0.11083  1.0000
  C   C509      1.0  0.74317  0.49495  0.16470  1.0000
  H   H868      1.0  0.96585  0.17414  0.07051  1.0000
  H   H869      1.0  0.82342  0.40423  0.01506  1.0000
  H   H870      1.0  0.71863  0.03099  0.98630  1.0000
  H   H871      1.0  0.73381  0.46608  0.11137  1.0000
  H   H872      1.0  0.86095  0.29863  0.99459  1.0000
  C   C510      1.0  0.71786  0.00846  0.02619  1.0000
  N   N38       1.0  0.74351  0.01109  0.29324  1.0000
  C   C511      1.0  0.73384  0.00615  0.27591  1.0000
  H   H873      1.0  0.73102  0.01019  0.05192  1.0000
  H   H874      1.0  0.69474  0.01204  0.01950  1.0000
  H   H875      1.0  0.97585  0.01186  0.98622  1.0000
  H   H876      1.0  0.82724  0.33841  0.98523  1.0000
  H   H877      1.0  0.69311  0.00544  0.30010  1.0000
  H   H878      1.0  0.81210  0.00923  0.28672  1.0000
  H   H879      1.0  0.82898  0.49917  0.14992  1.0000
  C   C512      1.0  0.72692  0.00687  0.99019  1.0000
  C   C513      1.0  0.73959  0.00957  0.09561  1.0000
  H   H880      1.0  0.71730  0.49458  0.16084  1.0000
  H   H881      1.0  0.68879  0.00539  0.04782  1.0000
  H   H882      1.0  0.71004  0.49794  0.06015  1.0000
  H   H883      1.0  0.00128  0.17759  0.02741  1.0000
  H   H884      1.0  0.75779  0.49991  0.02432  1.0000
  H   H885      1.0  0.72568  0.00231  0.08510  1.0000
  Fe  Fe73      1.0  0.68920  0.45472  0.39611  1.0000
  S   S145      1.0  0.72761  0.43224  0.41136  1.0000
  H   H886      1.0  0.68605  0.32768  0.45223  1.0000
  Fe  Fe74      1.0  0.63482  0.42675  0.41727  1.0000
  S   S146      1.0  0.67040  0.40233  0.43370  1.0000
  S   S147      1.0  0.58347  0.41598  0.42551  1.0000
  Fe  Fe75      1.0  0.69847  0.44925  0.43261  1.0000
  S   S148      1.0  0.72557  0.47351  0.45367  1.0000
  Fe  Fe76      1.0  0.69588  0.38714  0.41124  1.0000
  S   S149      1.0  0.71920  0.33858  0.40474  1.0000
  S   S150      1.0  0.66170  0.47469  0.41735  1.0000
  S   S151      1.0  0.65870  0.40868  0.39482  1.0000
  Fe  Fe77      1.0  0.71478  0.07944  0.39650  1.0000
  S   S152      1.0  0.72516  0.10162  0.42126  1.0000
  S   S153      1.0  0.75406  0.06744  0.37778  1.0000
  Fe  Fe78      1.0  0.64181  0.08785  0.39992  1.0000
  S   S154      1.0  0.64769  0.10879  0.42444  1.0000
  S   S155      1.0  0.59326  0.08824  0.38675  1.0000
  Fe  Fe79      1.0  0.68818  0.13964  0.41476  1.0000
  S   S156      1.0  0.67977  0.19256  0.42312  1.0000
  Fe  Fe80      1.0  0.68351  0.06956  0.42936  1.0000
  S   S157      1.0  0.67141  0.04851  0.45413  1.0000
  S   S158      1.0  0.68084  0.11981  0.38978  1.0000
  S   S159      1.0  0.67474  0.04598  0.40499  1.0000
  H   H887      1.0  0.91764  0.16701  0.63338  1.0000
  H   H888      1.0  0.80078  0.37288  0.43954  1.0000
  S   S160      1.0  0.81288  0.03330  0.63201  1.0000
  S   S161      1.0  0.87184  0.10886  0.64261  1.0000
  N   N39       1.0  0.56932  0.18669  0.41337  1.0000
  H   H889      1.0  0.78461  0.41422  0.56201  1.0000
  C   C514      1.0  0.58726  0.16289  0.42367  1.0000
  H   H890      1.0  0.80309  0.40570  0.35236  1.0000
  H   H891      1.0  0.68460  0.37353  0.34531  1.0000
  N   N40       1.0  0.73999  0.04236  0.53979  1.0000
  C   C515      1.0  0.68827  0.39870  0.34976  1.0000
  C   C516      1.0  0.52754  0.07962  0.42244  1.0000
  H   H892      1.0  0.66931  0.41349  0.34391  1.0000
  H   H893      1.0  0.92300  0.01068  0.37333  1.0000
  C   C517      1.0  0.55699  0.08819  0.39778  1.0000
  C   C518      1.0  0.52805  0.09801  0.39038  1.0000
  C   C519      1.0  0.55662  0.07904  0.41385  1.0000
  H   H894      1.0  0.52827  0.10530  0.37796  1.0000
  H   H895      1.0  0.57877  0.07139  0.41965  1.0000
  H   H896      1.0  0.51442  0.17525  0.39040  1.0000
  C   C520      1.0  0.75394  0.04489  0.61621  1.0000
  H   H897      1.0  0.75402  0.06817  0.62224  1.0000
  C   C521      1.0  0.98499  0.23660  0.64299  1.0000
  H   H898      1.0  0.76615  0.11805  0.54814  1.0000
  H   H899      1.0  0.53163  0.31693  0.41006  1.0000
  H   H900      1.0  0.68383  0.40046  0.36277  1.0000
  H   H901      1.0  0.61349  0.16929  0.42441  1.0000
  H   H902      1.0  0.76064  0.41215  0.46435  1.0000
  C   C522      1.0  0.70658  0.29811  0.40930  1.0000
  C   C523      1.0  0.72297  0.27189  0.40229  1.0000
  C   C524      1.0  0.71464  0.23947  0.40600  1.0000
  C   C525      1.0  0.69014  0.23280  0.41704  1.0000
  C   C526      1.0  0.67366  0.25905  0.42399  1.0000
  C   C527      1.0  0.68152  0.29142  0.42002  1.0000
  H   H903      1.0  0.74240  0.27663  0.39398  1.0000
  H   H904      1.0  0.72766  0.21967  0.40058  1.0000
  H   H905      1.0  0.65478  0.25431  0.43259  1.0000
  H   H906      1.0  0.66841  0.31119  0.42538  1.0000
  C   C528      1.0  0.54770  0.43414  0.41838  1.0000
  C   C529      1.0  0.76557  0.49588  0.37126  1.0000
  C   C530      1.0  0.54615  0.44931  0.40349  1.0000
  H   H907      1.0  0.69277  0.49084  0.57237  1.0000
  H   H908      1.0  0.56785  0.45196  0.39640  1.0000
  H   H909      1.0  0.78341  0.39443  0.32322  1.0000
  H   H910      1.0  0.73414  0.46862  0.61267  1.0000
  H   H911      1.0  0.67464  0.32861  0.47312  1.0000
  H   H912      1.0  0.57320  0.15582  0.39244  1.0000
  H   H913      1.0  0.77725  0.06641  0.55411  1.0000
  H   H914      1.0  0.75286  0.47198  0.57756  1.0000
  H   H915      1.0  0.64346  0.02701  0.48348  1.0000
  H   H916      1.0  0.71269  0.34606  0.36383  1.0000
  H   H917      1.0  0.80651  0.00921  0.33333  1.0000
  S   S162      1.0  0.79257  0.45305  0.62970  1.0000
  H   H918      1.0  0.58580  0.13823  0.41823  1.0000
  C   C531      1.0  0.76256  0.42427  0.56764  1.0000
  C   C532      1.0  0.72793  0.03582  0.60587  1.0000
  H   H919      1.0  0.83504  0.01126  0.39041  1.0000
  H   H920      1.0  0.72951  0.00767  0.45674  1.0000
  H   H921      1.0  0.80045  0.37435  0.46698  1.0000
  C   C533      1.0  0.76185  0.03197  0.36603  1.0000
  C   C534      1.0  0.78268  0.03438  0.35276  1.0000
  C   C535      1.0  0.76751  0.06659  0.54161  1.0000
  H   H922      1.0  0.66529  0.46072  0.56468  1.0000
  H   H923      1.0  0.79258  0.05785  0.34962  1.0000
  C   C536      1.0  0.53343  0.17980  0.41504  1.0000
  H   H924      1.0  0.77336  0.37387  0.42296  1.0000
  C   C537      1.0  0.69810  0.07497  0.55642  1.0000
  C   C538      1.0  0.76026  0.10234  0.53758  1.0000
  C   C539      1.0  0.69069  0.33970  0.46400  1.0000
  H   H925      1.0  0.73499  0.10736  0.53411  1.0000
  H   H926      1.0  0.54055  0.25554  0.41390  1.0000
  H   H927      1.0  0.70806  0.05229  0.60416  1.0000
  C   C540      1.0  0.72741  0.00576  0.59770  1.0000
  H   H928      1.0  0.50711  0.38521  0.40367  1.0000
  C   C541      1.0  0.79085  0.00678  0.34356  1.0000
  C   C542      1.0  0.93370  0.17219  0.64389  1.0000
  H   H929      1.0  0.73144  0.04097  0.56537  1.0000
  H   H930      1.0  0.78821  0.46930  0.56643  1.0000
  C   C543      1.0  0.56515  0.24904  0.40979  1.0000
  H   H931      1.0  0.74754  0.35885  0.33541  1.0000
  H   H932      1.0  0.75942  0.43582  0.53601  1.0000
  H   H933      1.0  0.53863  0.35530  0.42032  1.0000
  H   H934      1.0  0.77611  0.11070  0.52771  1.0000
  H   H935      1.0  0.72701  0.42697  0.48646  1.0000
  H   H936      1.0  0.80328  0.32037  0.45197  1.0000
  H   H937      1.0  0.56666  0.19652  0.38770  1.0000
  H   H938      1.0  0.78830  0.05931  0.53400  1.0000
  H   H939      1.0  0.84959  0.26446  0.62584  1.0000
  H   H940      1.0  0.62485  0.21071  0.39623  1.0000
  C   C544      1.0  0.66614  0.01444  0.48221  1.0000
  H   H941      1.0  0.70891  0.38773  0.48796  1.0000
  H   H942      1.0  0.72737  0.31683  0.35008  1.0000
  H   H943      1.0  0.73298  0.31112  0.46529  1.0000
  C   C545      1.0  0.66547  0.48949  0.49162  1.0000
  H   H944      1.0  0.66459  0.45952  0.47016  1.0000
  H   H945      1.0  0.73705  0.04380  0.32423  1.0000
  C   C546      1.0  0.67769  0.47809  0.47689  1.0000
  H   H946      1.0  0.55830  0.34684  0.40218  1.0000
  H   H947      1.0  0.78483  0.30083  0.46906  1.0000
  C   C547      1.0  0.72642  0.33597  0.46925  1.0000
  H   H948      1.0  0.72639  0.36302  0.43955  1.0000
  H   H949      1.0  0.59189  0.14215  0.44738  1.0000
  H   H950      1.0  0.57799  0.18278  0.44796  1.0000
  H   H951      1.0  0.69613  0.47879  0.54231  1.0000
  H   H952      1.0  0.69568  0.03201  0.32636  1.0000
  C   C548      1.0  0.57591  0.15964  0.44120  1.0000
  H   H953      1.0  0.78015  0.35527  0.34929  1.0000
  C   C549      1.0  0.71764  0.04385  0.55397  1.0000
  H   H954      1.0  0.82316  0.32087  0.47100  1.0000
  H   H955      1.0  0.77103  0.40466  0.43803  1.0000
  H   H956      1.0  0.52642  0.49902  0.48721  1.0000
  H   H957      1.0  0.58169  0.27025  0.41170  1.0000
  C   C550      1.0  0.77553  0.37851  0.43606  1.0000
  H   H958      1.0  0.75140  0.39423  0.49307  1.0000
  C   C551      1.0  0.75429  0.36247  0.34826  1.0000
  C   C552      1.0  0.57970  0.18100  0.39628  1.0000
  Fe  Fe81      1.0  0.82740  0.07780  0.64753  1.0000
  C   C553      1.0  0.61611  0.18599  0.39296  1.0000
  H   H959      1.0  0.63093  0.16774  0.39917  1.0000
  H   H960      1.0  0.78786  0.36779  0.37680  1.0000
  H   H961      1.0  0.52411  0.19067  0.42634  1.0000
  H   H962      1.0  0.72763  0.33469  0.48257  1.0000
  H   H963      1.0  0.74486  0.42838  0.37395  1.0000
  H   H964      1.0  0.72010  0.40303  0.45949  1.0000
  H   H965      1.0  0.70213  0.02640  0.52327  1.0000
  C   C554      1.0  0.57821  0.22023  0.41937  1.0000
  H   H966      1.0  0.76239  0.41757  0.58052  1.0000
  H   H967      1.0  0.52884  0.15323  0.41606  1.0000
  H   H968      1.0  0.56934  0.22385  0.43179  1.0000
  H   H969      1.0  0.75422  0.33144  0.44096  1.0000
  H   H970      1.0  0.72329  0.47030  0.51894  1.0000
  H   H971      1.0  0.51406  0.21632  0.39822  1.0000
  H   H972      1.0  0.51631  0.36257  0.38625  1.0000
  H   H973      1.0  0.68304  0.36517  0.46327  1.0000
  H   H974      1.0  0.72271  0.40932  0.33185  1.0000
  H   H975      1.0  0.52748  0.07238  0.43488  1.0000
  S   S163      1.0  0.84253  0.19796  0.63583  1.0000
  C   C555      1.0  0.73497  0.33720  0.35812  1.0000
  C   C556      1.0  0.75045  0.35705  0.44474  1.0000
  H   H976      1.0  0.78012  0.44170  0.35217  1.0000
  H   H977      1.0  0.55089  0.14962  0.44199  1.0000
  H   H978      1.0  0.60496  0.22351  0.42075  1.0000
  H   H979      1.0  0.62046  0.18248  0.37994  1.0000
  H   H980      1.0  0.76287  0.46529  0.51093  1.0000
  H   H981      1.0  0.91853  0.22154  0.64227  1.0000
  H   H982      1.0  0.79115  0.01495  0.55860  1.0000
  C   C557      1.0  0.74069  0.04632  0.50890  1.0000
  C   C558      1.0  0.84921  0.29391  0.64742  1.0000
  H   H983      1.0  0.78191  0.35448  0.48322  1.0000
  H   H984      1.0  0.71397  0.09605  0.55939  1.0000
  C   C559      1.0  0.78512  0.41846  0.32922  1.0000
  H   H985      1.0  0.95887  0.17349  0.63946  1.0000
  N   N41       1.0  0.75090  0.39762  0.35308  1.0000
  C   C560      1.0  0.79902  0.32220  0.46505  1.0000
  C   C561      1.0  0.73158  0.40070  0.48471  1.0000
  N   N42       1.0  0.75008  0.36053  0.46273  1.0000
  C   C562      1.0  0.78308  0.35442  0.46991  1.0000
  C   C563      1.0  0.74063  0.39470  0.46704  1.0000
  H   H986      1.0  0.70719  0.43881  0.54650  1.0000
  H   H987      1.0  0.85358  0.31645  0.64125  1.0000
  H   H988      1.0  0.79900  0.41009  0.37972  1.0000
  C   C564      1.0  0.72170  0.41231  0.34509  1.0000
  H   H989      1.0  0.70006  0.44840  0.57586  1.0000
  C   C565      1.0  0.75401  0.00871  0.53930  1.0000
  H   H990      1.0  0.75070  0.32618  0.36742  1.0000
  H   H991      1.0  0.70635  0.06852  0.52435  1.0000
  C   C566      1.0  0.68524  0.02009  0.46858  1.0000
  H   H992      1.0  0.90209  0.03333  0.32782  1.0000
  H   H993      1.0  0.78843  0.46746  0.53774  1.0000
  C   C567      1.0  0.53492  0.34322  0.40848  1.0000
  H   H994      1.0  0.51736  0.29534  0.38616  1.0000
  C   C568      1.0  0.74929  0.47628  0.52099  1.0000
  H   H995      1.0  0.73428  0.49683  0.64620  1.0000
  H   H996      1.0  0.96319  0.24608  0.63700  1.0000
  H   H997      1.0  0.80965  0.42869  0.32682  1.0000
  H   H998      1.0  0.74103  0.41216  0.56219  1.0000
  C   C569      1.0  0.78192  0.48766  0.61814  1.0000
  H   H999      1.0  0.72427  0.05142  0.49862  1.0000
  H   H1000     1.0  0.99607  0.21845  0.63487  1.0000
  C   C570      1.0  0.78043  0.41634  0.34751  1.0000
  H   H1001     1.0  0.87603  0.02406  0.38695  1.0000
  H   H1002     1.0  0.84359  0.03405  0.37301  1.0000
  H   H1003     1.0  0.68229  0.07144  0.56702  1.0000
  C   C571      1.0  0.77978  0.02384  0.61868  1.0000
  H   H1004     1.0  0.56492  0.24505  0.39669  1.0000
  C   C572      1.0  0.73521  0.49731  0.36370  1.0000
  C   C573      1.0  0.51622  0.46037  0.39757  1.0000
  C   C574      1.0  0.75099  0.48852  0.61084  1.0000
  H   H1005     1.0  0.69977  0.02343  0.55335  1.0000
  H   H1006     1.0  0.72137  0.43889  0.34740  1.0000
  C   C575      1.0  0.77909  0.39185  0.38061  1.0000
  H   H1007     1.0  0.72787  0.38969  0.37626  1.0000
  C   C576      1.0  0.74895  0.40242  0.37100  1.0000
  C   C577      1.0  0.70725  0.49003  0.47116  1.0000
  S   S164      1.0  0.69890  0.48258  0.37278  1.0000
  H   H1008     1.0  0.77285  0.39009  0.39348  1.0000
  H   H1009     1.0  0.72730  0.08865  0.64681  1.0000
  H   H1010     1.0  0.77161  0.00622  0.52937  1.0000
  C   C578      1.0  0.84704  0.26444  0.63874  1.0000
  H   H1011     1.0  0.52044  0.41931  0.43902  1.0000
  N   N43       1.0  0.74506  0.47483  0.55178  1.0000
  C   C579      1.0  0.72073  0.04617  0.52447  1.0000
  H   H1012     1.0  0.51508  0.47179  0.38597  1.0000
  C   C580      1.0  0.69134  0.46626  0.56702  1.0000
  H   H1013     1.0  0.64296  0.47950  0.49609  1.0000
  S   S165      1.0  0.87516  0.40803  0.64733  1.0000
  H   H1014     1.0  0.70996  0.00381  0.64266  1.0000
  C   C581      1.0  0.51933  0.43082  0.42744  1.0000
  H   H1015     1.0  0.76745  0.48612  0.38322  1.0000
  C   C582      1.0  0.71896  0.02476  0.32087  1.0000
  H   H1016     1.0  0.76766  0.43540  0.32370  1.0000
  H   H1017     1.0  0.75153  0.02244  0.50638  1.0000
  C   C583      1.0  0.70994  0.46407  0.55110  1.0000
  H   H1018     1.0  0.68162  0.08021  0.54627  1.0000
  H   H1019     1.0  0.53591  0.00927  0.52528  1.0000
  H   H1020     1.0  0.88466  0.03348  0.35560  1.0000
  C   C584      1.0  0.76185  0.46265  0.53699  1.0000
  C   C585      1.0  0.71450  0.00358  0.46711  1.0000
  C   C586      1.0  0.50786  0.36009  0.39882  1.0000
  H   H1021     1.0  0.51306  0.03088  0.38075  1.0000
  C   C587      1.0  0.76229  0.46155  0.56624  1.0000
  H   H1022     1.0  0.75986  0.06534  0.50901  1.0000
  C   C588      1.0  0.51096  0.19053  0.40127  1.0000
  C   C589      1.0  0.84223  0.23494  0.64671  1.0000
  Fe  Fe82      1.0  0.83082  0.44023  0.64903  1.0000
  H   H1023     1.0  0.93318  0.01910  0.34070  1.0000
  C   C590      1.0  0.85350  0.01512  0.38097  1.0000
  C   C591      1.0  0.90883  0.01297  0.33575  1.0000
  C   C592      1.0  0.88342  0.00992  0.34905  1.0000
  H   H1024     1.0  0.85928  0.00880  0.34304  1.0000
  H   H1025     1.0  0.91544  0.27203  0.64912  1.0000
  H   H1026     1.0  0.97536  0.40858  0.64879  1.0000
  Fe  Fe83      1.0  0.88363  0.10496  0.66891  1.0000
  S   S166      1.0  0.93437  0.10666  0.68076  1.0000
  Fe  Fe84      1.0  0.81164  0.11509  0.67845  1.0000
  H   H1027     1.0  0.91772  0.29757  0.66631  1.0000
  S   S167      1.0  0.77170  0.12539  0.69670  1.0000
  H   H1028     1.0  0.86076  0.48569  0.76304  1.0000
  H   H1029     1.0  0.71925  0.46967  0.85605  1.0000
  S   S168      1.0  0.84133  0.07071  0.67367  1.0000
  S   S169      1.0  0.85456  0.14872  0.67581  1.0000
  S   S170      1.0  0.85500  0.47520  0.66633  1.0000
  Fe  Fe85      1.0  0.85428  0.38168  0.66858  1.0000
  S   S171      1.0  0.87912  0.41355  0.68713  1.0000
  H   H1030     1.0  0.80354  0.43760  0.75932  1.0000
  Fe  Fe86      1.0  0.83455  0.44395  0.68601  1.0000
  S   S172      1.0  0.80804  0.46767  0.70708  1.0000
  Fe  Fe87      1.0  0.89804  0.44146  0.66607  1.0000
  S   S173      1.0  0.95001  0.46275  0.66806  1.0000
  S   S174      1.0  0.80863  0.41048  0.66884  1.0000
  Fe  Fe88      1.0  0.67114  0.37947  0.81222  1.0000
  S   S175      1.0  0.64945  0.38495  0.78767  1.0000
  S   S176      1.0  0.66081  0.33292  0.82560  1.0000
  Fe  Fe89      1.0  0.69968  0.44857  0.81309  1.0000
  S   S177      1.0  0.67930  0.45841  0.78837  1.0000
  C   C593      1.0  0.97970  0.08142  0.65947  1.0000
  Fe  Fe90      1.0  0.63324  0.43353  0.79670  1.0000
  S   S178      1.0  0.58432  0.45590  0.78999  1.0000
  Fe  Fe91      1.0  0.69696  0.40914  0.78141  1.0000
  S   S179      1.0  0.72434  0.39175  0.75922  1.0000
  S   S180      1.0  0.65239  0.42706  0.82179  1.0000
  S   S181      1.0  0.71982  0.40025  0.80560  1.0000
  Fe  Fe92      1.0  0.69161  0.15028  0.80260  1.0000
  S   S182      1.0  0.66542  0.13332  0.78035  1.0000
  S   S183      1.0  0.71882  0.19840  0.80313  1.0000
  Fe  Fe93      1.0  0.68476  0.08451  0.81912  1.0000
  S   S184      1.0  0.65728  0.06274  0.79785  1.0000
  S   S185      1.0  0.69435  0.05898  0.84320  1.0000
  Fe  Fe94      1.0  0.69475  0.08830  0.78256  1.0000
  S   S186      1.0  0.72368  0.06393  0.76260  1.0000
  Fe  Fe95      1.0  0.62948  0.10967  0.79718  1.0000
  S   S187      1.0  0.57622  0.12058  0.79065  1.0000
  S   S188      1.0  0.72349  0.10667  0.80387  1.0000
  S   S189      1.0  0.65439  0.12998  0.81936  1.0000
  C   C594      1.0  0.67595  0.29578  0.81837  1.0000
  C   C595      1.0  0.65940  0.26673  0.82185  1.0000
  C   C596      1.0  0.67168  0.23667  0.81683  1.0000
  C   C597      1.0  0.70117  0.23548  0.80875  1.0000
  C   C598      1.0  0.71795  0.26445  0.80549  1.0000
  C   C599      1.0  0.70512  0.29453  0.81000  1.0000
  H   H1031     1.0  0.63692  0.26755  0.82840  1.0000
  H   H1032     1.0  0.65865  0.21448  0.81948  1.0000
  H   H1033     1.0  0.74103  0.26370  0.79947  1.0000
  H   H1034     1.0  0.71822  0.31673  0.80743  1.0000
  C   C600      1.0  0.78359  0.44619  0.72098  1.0000
  C   C601      1.0  0.78341  0.41238  0.72168  1.0000
  C   C602      1.0  0.76476  0.39623  0.73331  1.0000
  C   C603      1.0  0.74588  0.41357  0.74432  1.0000
  C   C604      1.0  0.74541  0.44740  0.74339  1.0000
  C   C605      1.0  0.76439  0.46360  0.73186  1.0000
  H   H1035     1.0  0.79800  0.39864  0.71339  1.0000
  H   H1036     1.0  0.76519  0.37007  0.73384  1.0000
  H   H1037     1.0  0.73057  0.46101  0.75159  1.0000
  H   H1038     1.0  0.76083  0.04678  0.65576  1.0000
  C   C606      1.0  0.76029  0.10866  0.71544  1.0000
  C   C607      1.0  0.77542  0.08169  0.72202  1.0000
  C   C608      1.0  0.76410  0.06846  0.73652  1.0000
  C   C609      1.0  0.73808  0.08243  0.74479  1.0000
  C   C610      1.0  0.72317  0.10957  0.73826  1.0000
  C   C611      1.0  0.73398  0.12228  0.72358  1.0000
  H   H1039     1.0  0.79568  0.07091  0.71592  1.0000
  H   H1040     1.0  0.77568  0.04735  0.74143  1.0000
  H   H1041     1.0  0.70274  0.12015  0.74431  1.0000
  H   H1042     1.0  0.72156  0.14252  0.71834  1.0000
  H   H1043     1.0  0.92065  0.06236  0.95964  1.0000
  H   H1044     1.0  0.80789  0.36723  0.79057  1.0000
  H   H1045     1.0  0.74077  0.49574  0.78222  1.0000
  C   C612      1.0  0.99569  0.42173  0.65409  1.0000
  H   H1046     1.0  0.76247  0.44183  0.77773  1.0000
  S   S190      1.0  0.73220  0.49028  0.82286  1.0000
  H   H1047     1.0  0.76844  0.45559  0.79765  1.0000
  C   C613      1.0  0.54423  0.44569  0.79642  1.0000
  C   C614      1.0  0.53839  0.42731  0.81014  1.0000
  H   H1048     1.0  0.72775  0.17116  0.76970  1.0000
  H   H1049     1.0  0.55858  0.41755  0.81679  1.0000
  C   C615      1.0  0.53294  0.08169  0.80796  1.0000
  C   C616      1.0  0.53718  0.10579  0.79645  1.0000
  C   C617      1.0  0.92020  0.00953  0.95477  1.0000
  H   H1050     1.0  0.55395  0.07115  0.81362  1.0000
  H   H1051     1.0  0.70764  0.45246  0.66378  1.0000
  H   H1052     1.0  0.80101  0.48775  0.81308  1.0000
  C   C618      1.0  0.74560  0.21899  0.76146  1.0000
  H   H1053     1.0  0.74811  0.47220  0.68907  1.0000
  C   C619      1.0  0.70415  0.02631  0.70398  1.0000
  H   H1054     1.0  0.76016  0.07489  0.67161  1.0000
  H   H1055     1.0  0.68507  0.03915  0.71078  1.0000
  C   C620      1.0  0.72911  0.04161  0.85263  1.0000
  C   C621      1.0  0.51747  0.45828  0.78805  1.0000
  C   C622      1.0  0.83366  0.47617  0.79293  1.0000
  H   H1056     1.0  0.53996  0.18994  0.82611  1.0000
  H   H1057     1.0  0.52158  0.47267  0.77748  1.0000
  N   N44       1.0  0.73455  0.03046  0.67690  1.0000
  C   C623      1.0  0.75280  0.01493  0.87620  1.0000
  H   H1058     1.0  0.99677  0.13132  0.69104  1.0000
  C   C624      1.0  0.91842  0.04511  0.94942  1.0000
  H   H1059     1.0  0.79789  0.01430  0.66489  1.0000
  H   H1060     1.0  0.83930  0.07521  0.97070  1.0000
  C   C625      1.0  0.74915  0.18215  0.76383  1.0000
  C   C626      1.0  0.82340  0.44806  0.76690  1.0000
  N   N45       1.0  0.81280  0.45132  0.78418  1.0000
  H   H1061     1.0  0.94872  0.22050  0.70099  1.0000
  H   H1062     1.0  0.70918  0.18554  0.73751  1.0000
  H   H1063     1.0  0.70572  0.09184  0.66510  1.0000
  H   H1064     1.0  0.55261  0.22566  0.81595  1.0000
  C   C627      1.0  0.71506  0.00337  0.66902  1.0000
  H   H1065     1.0  0.82748  0.02669  0.95366  1.0000
  H   H1066     1.0  0.58505  0.49604  0.84408  1.0000
  C   C628      1.0  0.74523  0.21441  0.72535  1.0000
  C   C629      1.0  0.71381  0.04684  0.68937  1.0000
  N   N46       1.0  0.75188  0.16620  0.84950  1.0000
  C   C630      1.0  0.72495  0.14132  0.84763  1.0000
  C   C631      1.0  0.77580  0.16023  0.83624  1.0000
  C   C632      1.0  0.73717  0.19945  0.84781  1.0000
  C   C633      1.0  0.76684  0.16195  0.86589  1.0000
  C   C634      1.0  0.69569  0.14531  0.85889  1.0000
  C   C635      1.0  0.79138  0.12647  0.83584  1.0000
  C   C636      1.0  0.75887  0.22686  0.84109  1.0000
  C   C637      1.0  0.79771  0.18198  0.86966  1.0000
  H   H1067     1.0  0.71539  0.14125  0.83513  1.0000
  H   H1068     1.0  0.73395  0.11645  0.84976  1.0000
  H   H1069     1.0  0.79612  0.17810  0.83663  1.0000
  H   H1070     1.0  0.76383  0.16368  0.82435  1.0000
  H   H1071     1.0  0.71588  0.19846  0.83947  1.0000
  H   H1072     1.0  0.72742  0.20812  0.85947  1.0000
  H   H1073     1.0  0.74928  0.16822  0.87543  1.0000
  H   H1074     1.0  0.77279  0.13605  0.86788  1.0000
  H   H1075     1.0  0.70248  0.14178  0.87163  1.0000
  H   H1076     1.0  0.68351  0.16886  0.85739  1.0000
  H   H1077     1.0  0.67735  0.12618  0.85589  1.0000
  H   H1078     1.0  0.77347  0.10718  0.83262  1.0000
  H   H1079     1.0  0.81002  0.12606  0.82631  1.0000
  H   H1080     1.0  0.80376  0.12052  0.84725  1.0000
  H   H1081     1.0  0.76378  0.22284  0.82816  1.0000
  H   H1082     1.0  0.78217  0.23007  0.84751  1.0000
  H   H1083     1.0  0.74570  0.25011  0.84195  1.0000
  H   H1084     1.0  0.81751  0.17697  0.86115  1.0000
  H   H1085     1.0  0.80683  0.17522  0.88174  1.0000
  H   H1086     1.0  0.79266  0.20819  0.87022  1.0000
  S   S191      1.0  0.85369  0.32891  0.67602  1.0000
  H   H1087     1.0  0.70015  0.27354  0.74043  1.0000
  H   H1088     1.0  0.94547  0.25736  0.68204  1.0000
  C   C638      1.0  0.94415  0.19258  0.67836  1.0000
  C   C639      1.0  0.76717  0.49319  0.78017  1.0000
  C   C640      1.0  0.71719  0.07428  0.65683  1.0000
  H   H1089     1.0  0.93658  0.05088  0.94012  1.0000
  C   C641      1.0  0.96208  0.20198  0.69407  1.0000
  C   C642      1.0  0.68627  0.22061  0.76112  1.0000
  C   C643      1.0  0.98991  0.44838  0.66412  1.0000
  C   C644      1.0  0.92985  0.27717  0.66011  1.0000
  H   H1090     1.0  0.79715  0.37981  0.97577  1.0000
  H   H1091     1.0  0.53924  0.49132  0.82632  1.0000
  H   H1092     1.0  0.63150  0.49609  0.80751  1.0000
  H   H1093     1.0  0.95530  0.16968  0.67429  1.0000
  C   C645      1.0  0.97948  0.22184  0.65979  1.0000
  C   C646      1.0  0.53153  0.21381  0.82182  1.0000
  C   C647      1.0  0.76416  0.01772  0.68537  1.0000
  H   H1094     1.0  0.85972  0.46974  0.79192  1.0000
  H   H1095     1.0  0.90605  0.24386  0.67607  1.0000
  C   C648      1.0  0.73604  0.49000  0.85645  1.0000
  C   C649      1.0  0.72627  0.02938  0.86829  1.0000
  H   H1096     1.0  0.69067  0.05520  0.68397  1.0000
  C   C650      1.0  0.93109  0.24823  0.67159  1.0000
  C   C651      1.0  0.83812  0.05152  0.97612  1.0000
  N   N47       1.0  0.94484  0.21717  0.66506  1.0000
  H   H1097     1.0  0.76844  0.22828  0.75606  1.0000
  H   H1098     1.0  0.99223  0.19818  0.65979  1.0000
  H   H1099     1.0  0.51232  0.13745  0.78019  1.0000
  H   H1100     1.0  0.72612  0.06912  0.69414  1.0000
  H   H1101     1.0  0.93106  0.15128  0.65204  1.0000
  H   H1102     1.0  0.77502  0.39090  0.78373  1.0000
  C   C652      1.0  0.83880  0.23520  0.66335  1.0000
  H   H1103     1.0  0.69433  0.22094  0.72850  1.0000
  H   H1104     1.0  0.83433  0.21288  0.66961  1.0000
  C   C653      1.0  0.75027  0.47627  0.67594  1.0000
  H   H1105     1.0  0.70326  0.03101  0.87435  1.0000
  H   H1106     1.0  0.74384  0.28944  0.76936  1.0000
  C   C654      1.0  0.73320  0.44785  0.66691  1.0000
  H   H1107     1.0  0.74110  0.19998  0.71418  1.0000
  H   H1108     1.0  0.66180  0.49347  0.83162  1.0000
  H   H1109     1.0  0.68193  0.19395  0.76101  1.0000
  H   H1110     1.0  0.83871  0.47343  0.74544  1.0000
  C   C655      1.0  0.71472  0.21176  0.73590  1.0000
  C   C656      1.0  0.78274  0.01237  0.86854  1.0000
  H   H1111     1.0  0.69143  0.47571  0.69076  1.0000
  H   H1112     1.0  0.71056  0.31161  0.76070  1.0000
  H   H1113     1.0  0.74214  0.27106  0.74275  1.0000
  C   C657      1.0  0.81787  0.41909  0.79219  1.0000
  H   H1114     1.0  0.91873  0.18609  0.68164  1.0000
  C   C658      1.0  0.71910  0.26508  0.74895  1.0000
  C   C659      1.0  0.84132  0.26444  0.67201  1.0000
  H   H1115     1.0  0.63413  0.22643  0.76234  1.0000
  C   C660      1.0  0.78568  0.02495  0.85295  1.0000
  H   H1116     1.0  0.68924  0.01058  0.66777  1.0000
  C   C661      1.0  0.65458  0.23588  0.75507  1.0000
  H   H1117     1.0  0.73270  0.42625  0.67476  1.0000
  H   H1118     1.0  0.76175  0.04816  0.83294  1.0000
  H   H1119     1.0  0.64920  0.22946  0.74240  1.0000
  H   H1120     1.0  0.65488  0.26259  0.75664  1.0000
  C   C662      1.0  0.77722  0.45900  0.78520  1.0000
  H   H1121     1.0  0.82019  0.49976  0.75956  1.0000
  H   H1122     1.0  0.89817  0.19924  0.65680  1.0000
  S   S192      1.0  0.79586  0.12049  0.65260  1.0000
  H   H1123     1.0  0.80860  0.02309  0.84684  1.0000
  H   H1124     1.0  0.98738  0.21011  0.69201  1.0000
  H   H1125     1.0  0.69854  0.05755  0.65170  1.0000
  H   H1126     1.0  0.81025  0.38562  0.77135  1.0000
  H   H1127     1.0  0.52470  0.22909  0.83220  1.0000
  H   H1128     1.0  0.89781  0.00488  0.96168  1.0000
  H   H1129     1.0  0.75383  0.16913  0.75242  1.0000
  H   H1130     1.0  0.68900  0.22695  0.77405  1.0000
  H   H1131     1.0  0.74518  0.23013  0.77367  1.0000
  H   H1132     1.0  0.96112  0.04600  0.97593  1.0000
  H   H1133     1.0  0.80822  0.41926  0.80461  1.0000
  C   C663      1.0  0.84685  0.29384  0.66414  1.0000
  H   H1134     1.0  0.76703  0.20432  0.73120  1.0000
  H   H1135     1.0  0.70220  0.27878  0.77333  1.0000
  H   H1136     1.0  0.73845  0.49184  0.88236  1.0000
  C   C664      1.0  0.50633  0.42226  0.81554  1.0000
  H   H1137     1.0  0.84361  0.43053  0.76581  1.0000
  C   C665      1.0  0.74495  0.05625  0.66528  1.0000
  H   H1138     1.0  0.89425  0.04903  0.94383  1.0000
  H   H1139     1.0  0.75024  0.23962  0.72157  1.0000
  H   H1140     1.0  0.72482  0.02368  0.71247  1.0000
  H   H1141     1.0  0.83928  0.26424  0.68493  1.0000
  C   C666      1.0  0.71916  0.28713  0.76402  1.0000
  H   H1142     1.0  0.84425  0.41397  0.79333  1.0000
  C   C667      1.0  0.59049  0.49987  0.83126  1.0000
  C   C668      1.0  0.80176  0.38937  0.78379  1.0000
  H   H1143     1.0  0.77742  0.03791  0.69167  1.0000
  H   H1144     1.0  0.77024  0.17782  0.77186  1.0000
  C   C669      1.0  0.83161  0.02402  0.96640  1.0000
  H   H1145     1.0  0.96314  0.18022  0.70180  1.0000
  C   C670      1.0  0.75912  0.03934  0.84503  1.0000
  C   C671      1.0  0.97400  0.10129  0.67278  1.0000
  N   N48       1.0  0.71643  0.22917  0.75186  1.0000
  H   H1146     1.0  0.59639  0.47529  0.82655  1.0000
  H   H1147     1.0  0.99302  0.23731  0.66864  1.0000
  H   H1148     1.0  0.74628  0.44173  0.65574  1.0000
  C   C672      1.0  0.82652  0.48104  0.81093  1.0000
  H   H1149     1.0  0.83270  0.45948  0.81809  1.0000
  C   C673      1.0  0.83625  0.47876  0.75847  1.0000
  H   H1150     1.0  0.95948  0.06972  0.65330  1.0000
  H   H1151     1.0  0.98194  0.03211  0.95058  1.0000
  C   C674      1.0  0.50940  0.11899  0.78920  1.0000
  H   H1152     1.0  0.77100  0.49724  0.76726  1.0000
  H   H1153     1.0  0.76425  0.48976  0.73139  1.0000
  H   H1154     1.0  0.77658  0.47326  0.67374  1.0000
  H   H1155     1.0  0.75004  0.00576  0.88822  1.0000
  C   C675      1.0  0.97902  0.00600  0.95343  1.0000
  H   H1156     1.0  0.66611  0.49506  0.86130  1.0000
  H   H1157     1.0  0.95443  0.28617  0.65708  1.0000
  C   C676      1.0  0.00080  0.11602  0.68069  1.0000
  C   C677      1.0  0.50367  0.20961  0.80948  1.0000
  C   C678      1.0  0.95489  0.02052  0.97904  1.0000
  H   H1158     1.0  0.76172  0.40212  0.98046  1.0000
  C   C679      1.0  0.92281  0.20397  0.65195  1.0000
  H   H1159     1.0  0.51139  0.19071  0.80072  1.0000
  Fe  Fe96      1.0  0.84087  0.15101  0.64985  1.0000
  H   H1160     1.0  0.63161  0.47291  0.85398  1.0000
  H   H1161     1.0  0.50291  0.23211  0.80240  1.0000
  C   C680      1.0  0.64244  0.49763  0.85504  1.0000
  H   H1162     1.0  0.84183  0.50136  0.81567  1.0000
  H   H1163     1.0  0.83170  0.50044  0.78742  1.0000
  H   H1164     1.0  0.68976  0.50203  0.66379  1.0000
  Fe  Fe97      1.0  0.62699  0.59238  0.16358  1.0000
  S   S193      1.0  0.64378  0.61309  0.14009  1.0000
  S   S194      1.0  0.57902  0.56388  0.16622  1.0000
  Fe  Fe98      1.0  0.68713  0.61915  0.18208  1.0000
  S   S195      1.0  0.70663  0.64233  0.15980  1.0000
  S   S196      1.0  0.71328  0.63471  0.20538  1.0000
  Fe  Fe99      1.0  0.65591  0.65781  0.15473  1.0000
  S   S197      1.0  0.63765  0.70757  0.14798  1.0000
  Fe  Fe100     1.0  0.69368  0.59540  0.14695  1.0000
  S   S198      1.0  0.73503  0.58074  0.12993  1.0000
  S   S199      1.0  0.63677  0.63793  0.17778  1.0000
  S   S200      1.0  0.67640  0.57130  0.16968  1.0000
  Fe  Fe101     1.0  0.69453  0.88415  0.16233  1.0000
  S   S201      1.0  0.65480  0.89059  0.18012  1.0000
  S   S202      1.0  0.72047  0.83702  0.15760  1.0000
  Fe  Fe102     1.0  0.70226  0.95718  0.15619  1.0000
  S   S203      1.0  0.66289  0.96922  0.17411  1.0000
  H   H1165     1.0  0.92031  0.99745  0.99550  1.0000
  Fe  Fe103     1.0  0.68587  0.93163  0.19013  1.0000
  S   S204      1.0  0.69349  0.93012  0.21740  1.0000
  Fe  Fe104     1.0  0.63448  0.92716  0.16296  1.0000
  S   S205      1.0  0.58185  0.92507  0.15322  1.0000
  S   S206      1.0  0.72657  0.92280  0.17327  1.0000
  S   S207      1.0  0.67285  0.91753  0.14416  1.0000
  Fe  Fe105     1.0  0.89568  0.92710  0.30487  1.0000
  C   C681      1.0  0.95050  0.73554  0.31048  1.0000
  Fe  Fe106     1.0  0.83828  0.93814  0.28136  1.0000
  S   S208      1.0  0.80548  0.90384  0.29422  1.0000
  S   S209      1.0  0.82150  0.96311  0.25851  1.0000
  Fe  Fe107     1.0  0.84871  0.87137  0.29546  1.0000
  C   C682      1.0  0.87849  0.52718  0.98727  1.0000
  S   S210      1.0  0.85583  0.96437  0.30386  1.0000
  S   S211      1.0  0.88090  0.90465  0.28123  1.0000
  Fe  Fe108     1.0  0.82434  0.58496  0.28134  1.0000
  H   H1166     1.0  0.83625  0.56651  0.05177  1.0000
  S   S212      1.0  0.79814  0.56441  0.25903  1.0000
  Fe  Fe109     1.0  0.89284  0.59656  0.29587  1.0000
  S   S213      1.0  0.94578  0.60425  0.28784  1.0000
  H   H1167     1.0  0.70195  0.89095  0.10910  1.0000
  H   H1168     1.0  0.79072  0.82740  0.11184  1.0000
  S   S214      1.0  0.86072  0.55204  0.29317  1.0000
  S   S215      1.0  0.85763  0.62861  0.28264  1.0000
  C   C683      1.0  0.86548  0.50768  0.99950  1.0000
  H   H1169     1.0  0.82619  0.88262  0.11662  1.0000
  C   C684      1.0  0.83570  0.72436  0.29293  1.0000
  C   C685      1.0  0.84129  0.75450  0.28568  1.0000
  H   H1170     1.0  0.83652  0.70230  0.28586  1.0000
  H   H1171     1.0  0.84659  0.75543  0.27302  1.0000
  C   C686      1.0  0.72944  0.93953  0.22848  1.0000
  C   C687      1.0  0.75515  0.95736  0.22198  1.0000
  C   C688      1.0  0.78303  0.96456  0.23135  1.0000
  C   C689      1.0  0.78594  0.95332  0.24716  1.0000
  C   C690      1.0  0.76035  0.93521  0.25362  1.0000
  C   C691      1.0  0.73210  0.92885  0.24441  1.0000
  H   H1172     1.0  0.91060  0.76842  0.30451  1.0000
  C   C692      1.0  0.75348  0.53027  0.16861  1.0000
  H   H1173     1.0  0.76209  0.92654  0.26577  1.0000
  H   H1174     1.0  0.71225  0.91526  0.24959  1.0000
  C   C693      1.0  0.73679  0.61442  0.22007  1.0000
  C   C694      1.0  0.75165  0.63286  0.23245  1.0000
  C   C695      1.0  0.77046  0.61803  0.24446  1.0000
  C   C696      1.0  0.77467  0.58448  0.24422  1.0000
  C   C697      1.0  0.75987  0.56604  0.23181  1.0000
  C   C698      1.0  0.74094  0.58086  0.21982  1.0000
  H   H1175     1.0  0.74855  0.65881  0.23278  1.0000
  H   H1176     1.0  0.78167  0.63252  0.25390  1.0000
  H   H1177     1.0  0.76281  0.54005  0.23158  1.0000
  H   H1178     1.0  0.72930  0.56633  0.21053  1.0000
  C   C699      1.0  0.66134  0.74336  0.14978  1.0000
  C   C700      1.0  0.64571  0.77334  0.15027  1.0000
  C   C701      1.0  0.66360  0.80230  0.15254  1.0000
  C   C702      1.0  0.69733  0.80142  0.15409  1.0000
  C   C703      1.0  0.71306  0.77151  0.15326  1.0000
  C   C704      1.0  0.69512  0.74254  0.15116  1.0000
  H   H1179     1.0  0.61960  0.77414  0.14910  1.0000
  H   H1180     1.0  0.65129  0.82525  0.15309  1.0000
  H   H1181     1.0  0.73917  0.77072  0.15435  1.0000
  H   H1182     1.0  0.70737  0.71957  0.15059  1.0000
  H   H1183     1.0  0.54485  0.85271  0.13350  1.0000
  H   H1184     1.0  0.79235  0.56393  0.14940  1.0000
  H   H1185     1.0  0.76127  0.88512  0.14290  1.0000
  H   H1186     1.0  0.90322  0.53599  0.98831  1.0000
  C   C705      1.0  0.81104  0.56121  0.05565  1.0000
  H   H1187     1.0  0.74673  0.59252  0.17719  1.0000
  C   C706      1.0  0.99235  0.93166  0.29115  1.0000
  H   H1188     1.0  0.76366  0.92738  0.14400  1.0000
  C   C707      1.0  0.53217  0.61143  0.16185  1.0000
  C   C708      1.0  0.53869  0.57849  0.16369  1.0000
  H   H1189     1.0  0.98107  0.70977  0.28547  1.0000
  H   H1190     1.0  0.55206  0.62875  0.16150  1.0000
  H   H1191     1.0  0.50590  0.80237  0.17143  1.0000
  H   H1192     1.0  0.71197  0.95741  0.30979  1.0000
  C   C709      1.0  0.54203  0.92957  0.16118  1.0000
  C   C710      1.0  0.53624  0.93582  0.17742  1.0000
  C   C711      1.0  0.79177  0.54695  0.04131  1.0000
  H   H1193     1.0  0.74364  0.93006  0.30584  1.0000
  C   C712      1.0  0.97779  0.69249  0.29550  1.0000
  C   C713      1.0  0.74413  0.52094  0.02909  1.0000
  H   H1194     1.0  0.73893  0.53667  0.17936  1.0000
  H   H1195     1.0  0.82669  0.93611  0.12434  1.0000
  C   C714      1.0  0.81469  0.50455  0.98489  1.0000
  C   C715      1.0  0.74886  0.54633  0.11890  1.0000
  C   C716      1.0  0.77714  0.54953  0.10965  1.0000
  H   H1196     1.0  0.72640  0.54053  0.07655  1.0000
  H   H1197     1.0  0.78953  0.57276  0.10922  1.0000
  H   H1198     1.0  0.72594  0.53653  0.00585  1.0000
  C   C717      1.0  0.79954  0.87934  0.11484  1.0000
  H   H1199     1.0  0.73708  0.93374  0.11895  1.0000
  N   N49       1.0  0.67500  0.73932  0.20281  1.0000
  C   C718      1.0  0.68753  0.71363  0.19155  1.0000
  C   C719      1.0  0.63951  0.73196  0.20540  1.0000
  C   C720      1.0  0.69361  0.73674  0.21842  1.0000
  C   C721      1.0  0.68073  0.77179  0.19512  1.0000
  C   C722      1.0  0.72461  0.71362  0.18899  1.0000
  C   C723      1.0  0.61763  0.73308  0.19033  1.0000
  C   C724      1.0  0.67783  0.75102  0.23356  1.0000
  C   C725      1.0  0.66620  0.80183  0.20330  1.0000
  H   H1200     1.0  0.68038  0.68911  0.19575  1.0000
  H   H1201     1.0  0.67630  0.71554  0.17948  1.0000
  H   H1202     1.0  0.62864  0.74859  0.21427  1.0000
  H   H1203     1.0  0.63649  0.70738  0.21068  1.0000
  H   H1204     1.0  0.69808  0.71077  0.22128  1.0000
  H   H1205     1.0  0.71804  0.74832  0.21739  1.0000
  H   H1206     1.0  0.70711  0.77718  0.19419  1.0000
  H   H1207     1.0  0.67251  0.77152  0.18242  1.0000
  H   H1208     1.0  0.73052  0.69406  0.18036  1.0000
  H   H1209     1.0  0.73369  0.73648  0.18372  1.0000
  H   H1210     1.0  0.73814  0.70818  0.20017  1.0000
  H   H1211     1.0  0.59193  0.73009  0.19394  1.0000
  H   H1212     1.0  0.61969  0.75645  0.18397  1.0000
  H   H1213     1.0  0.62262  0.71281  0.18195  1.0000
  H   H1214     1.0  0.89393  0.70867  0.27275  1.0000
  H   H1215     1.0  0.65671  0.73604  0.23731  1.0000
  H   H1216     1.0  0.72230  0.58295  0.07391  1.0000
  H   H1217     1.0  0.68350  0.81274  0.21215  1.0000
  H   H1218     1.0  0.64258  0.79733  0.20902  1.0000
  H   H1219     1.0  0.66113  0.82022  0.19399  1.0000
  H   H1220     1.0  0.80720  0.52844  0.03539  1.0000
  C   C726      1.0  0.98477  0.59786  0.29664  1.0000
  H   H1221     1.0  0.81739  0.57432  0.18455  1.0000
  H   H1222     1.0  0.73242  0.56948  0.01969  1.0000
  H   H1223     1.0  0.82052  0.92762  0.15098  1.0000
  C   C727      1.0  0.73723  0.56183  0.07049  1.0000
  H   H1224     1.0  0.97506  0.66820  0.28971  1.0000
  C   C728      1.0  0.52847  0.83221  0.13672  1.0000
  H   H1225     1.0  0.76168  0.56631  0.07556  1.0000
  H   H1226     1.0  0.50880  0.57768  0.21861  1.0000
  C   C729      1.0  0.72963  0.99885  0.11089  1.0000
  Fe  Fe110     1.0  0.83550  0.63778  0.30675  1.0000
  H   H1227     1.0  0.77577  0.97028  0.29162  1.0000
  H   H1228     1.0  0.74217  0.58227  0.04692  1.0000
  H   H1229     1.0  0.72156  0.98182  0.02572  1.0000
  H   H1230     1.0  0.78135  0.60562  0.16563  1.0000
  H   H1231     1.0  0.81287  0.54443  0.06586  1.0000
  C   C730      1.0  0.73334  0.51601  0.11941  1.0000
  H   H1232     1.0  0.76633  0.54991  0.00993  1.0000
  N   N50       1.0  0.75868  0.53278  0.04481  1.0000
  H   H1233     1.0  0.72013  0.87585  0.12683  1.0000
  H   H1234     1.0  0.71162  0.51301  0.12644  1.0000
  C   C731      1.0  0.91842  0.75278  0.31456  1.0000
  H   H1235     1.0  0.89584  0.69802  0.30054  1.0000
  C   C732      1.0  0.77329  0.59673  0.17745  1.0000
  H   H1236     1.0  0.78280  0.56004  0.19499  1.0000
  C   C733      1.0  0.51232  0.55643  0.16403  1.0000
  H   H1237     1.0  0.82589  0.96779  0.10096  1.0000
  H   H1238     1.0  0.79565  0.87802  0.10162  1.0000
  N   N51       1.0  0.79927  0.85006  0.23501  1.0000
  C   C734      1.0  0.78955  0.87198  0.22141  1.0000
  C   C735      1.0  0.82401  0.86837  0.24514  1.0000
  C   C736      1.0  0.76936  0.84276  0.24475  1.0000
  C   C737      1.0  0.81273  0.81957  0.22772  1.0000
  C   C738      1.0  0.75961  0.86115  0.21133  1.0000
  C   C739      1.0  0.85517  0.87906  0.23648  1.0000
  C   C740      1.0  0.77445  0.83171  0.26219  1.0000
  C   C741      1.0  0.82766  0.79466  0.23920  1.0000
  H   H1239     1.0  0.78439  0.89665  0.22604  1.0000
  H   H1240     1.0  0.80972  0.87523  0.21278  1.0000
  H   H1241     1.0  0.83187  0.85449  0.25572  1.0000
  H   H1242     1.0  0.81305  0.89052  0.25036  1.0000
  H   H1243     1.0  0.75408  0.86471  0.24572  1.0000
  H   H1244     1.0  0.75391  0.82398  0.23865  1.0000
  H   H1245     1.0  0.79342  0.80609  0.22096  1.0000
  H   H1246     1.0  0.83095  0.82511  0.21832  1.0000
  H   H1247     1.0  0.76269  0.83710  0.20560  1.0000
  H   H1248     1.0  0.73698  0.86143  0.21842  1.0000
  H   H1249     1.0  0.75601  0.87879  0.20151  1.0000
  H   H1250     1.0  0.85031  0.89781  0.22737  1.0000
  H   H1251     1.0  0.87207  0.89043  0.24539  1.0000
  H   H1252     1.0  0.86792  0.85828  0.23105  1.0000
  H   H1253     1.0  0.78455  0.85161  0.26983  1.0000
  H   H1254     1.0  0.78994  0.81025  0.26323  1.0000
  H   H1255     1.0  0.75060  0.82503  0.26736  1.0000
  H   H1256     1.0  0.80901  0.77716  0.24342  1.0000
  H   H1257     1.0  0.84054  0.80548  0.24963  1.0000
  H   H1258     1.0  0.84659  0.78093  0.23275  1.0000
  H   H1259     1.0  0.72016  0.94471  0.28941  1.0000
  H   H1260     1.0  0.51700  0.53087  0.16535  1.0000
  C   C742      1.0  0.73672  0.55798  0.05201  1.0000
  H   H1261     1.0  0.81037  0.83760  0.13016  1.0000
  C   C743      1.0  0.98648  0.93524  0.30757  1.0000
  H   H1262     1.0  0.73388  0.86267  0.10720  1.0000
  H   H1263     1.0  0.83009  0.55790  0.15902  1.0000
  H   H1264     1.0  0.80137  0.89647  0.16228  1.0000
  H   H1265     1.0  0.84303  0.53169  0.19517  1.0000
  H   H1266     1.0  0.76806  0.98320  0.31147  1.0000
  C   C744      1.0  0.74946  0.91233  0.11374  1.0000
  H   H1267     1.0  0.97656  0.52836  0.98342  1.0000
  H   H1268     1.0  0.80083  0.58464  0.05961  1.0000
  H   H1269     1.0  0.76959  0.97706  0.03713  1.0000
  H   H1270     1.0  0.75335  0.96601  0.20979  1.0000
  S   S216      1.0  0.79922  0.59666  0.30457  1.0000
  C   C745      1.0  0.51518  0.92626  0.15070  1.0000
  H   H1271     1.0  0.51931  0.92169  0.13810  1.0000
  C   C746      1.0  0.91900  0.69364  0.29441  1.0000
  H   H1272     1.0  0.93621  0.70352  0.26998  1.0000
  C   C747      1.0  0.81332  0.51789  0.14461  1.0000
  C   C748      1.0  0.84008  0.78339  0.29467  1.0000
  H   H1273     1.0  0.71089  0.55293  0.04874  1.0000
  C   C749      1.0  0.83309  0.78194  0.31102  1.0000
  C   C750      1.0  0.50412  0.93880  0.18301  1.0000
  H   H1274     1.0  0.79016  0.56725  0.03270  1.0000
  H   H1275     1.0  0.52610  0.60314  0.20361  1.0000
  C   C751      1.0  0.91800  0.71260  0.27857  1.0000
  H   H1276     1.0  0.69566  0.75049  0.24362  1.0000
  H   H1277     1.0  0.83274  0.96675  0.99532  1.0000
  C   C752      1.0  0.80448  0.50916  0.18010  1.0000
  H   H1278     1.0  0.70601  0.99214  0.99435  1.0000
  H   H1279     1.0  0.96194  0.75042  0.30093  1.0000
  H   H1280     1.0  0.81183  0.52578  0.09427  1.0000
  C   C753      1.0  0.74225  0.54605  0.01552  1.0000
  C   C754      1.0  0.72543  0.88352  0.11444  1.0000
  C   C755      1.0  0.73125  0.95171  0.30110  1.0000
  H   H1281     1.0  0.67046  0.77644  0.23214  1.0000
  H   H1282     1.0  0.77218  0.51041  0.06739  1.0000
  C   C756      1.0  0.79172  0.56634  0.18283  1.0000
  H   H1283     1.0  0.85581  0.52135  0.17499  1.0000
  H   H1284     1.0  0.51856  0.82192  0.12536  1.0000
  H   H1285     1.0  0.55652  0.93862  0.18565  1.0000
  H   H1286     1.0  0.91777  0.66744  0.29117  1.0000
  H   H1287     1.0  0.80489  0.98480  0.02523  1.0000
  C   C757      1.0  0.80811  0.90365  0.14993  1.0000
  H   H1288     1.0  0.70818  0.98372  0.11200  1.0000
  H   H1289     1.0  0.74399  0.54567  0.15881  1.0000
  H   H1290     1.0  0.50738  0.78003  0.15329  1.0000
  C   C758      1.0  0.80206  0.93833  0.11897  1.0000
  H   H1291     1.0  0.54384  0.81414  0.14280  1.0000
  C   C759      1.0  0.84032  0.51396  0.18514  1.0000
  C   C760      1.0  0.79110  0.84555  0.12176  1.0000
  H   H1292     1.0  0.97213  0.92977  0.28284  1.0000
  S   S217      1.0  0.84756  0.82041  0.28480  1.0000
  N   N52       1.0  0.78199  0.90802  0.12178  1.0000
  C   C761      1.0  0.78983  0.52292  0.10109  1.0000
  H   H1293     1.0  0.50494  0.56761  0.19743  1.0000
  C   C762      1.0  0.80632  0.54587  0.15634  1.0000
  H   H1294     1.0  0.81687  0.92752  0.09401  1.0000
  N   N53       1.0  0.78914  0.53732  0.17168  1.0000
  H   H1295     1.0  0.79120  0.95955  0.12511  1.0000
  H   H1296     1.0  0.82665  0.52778  0.13418  1.0000
  H   H1297     1.0  0.76163  0.98403  0.00545  1.0000
  C   C763      1.0  0.80757  0.94782  0.10133  1.0000
  H   H1298     1.0  0.77790  0.61658  0.18631  1.0000
  H   H1299     1.0  0.92143  0.73901  0.28047  1.0000
  H   H1300     1.0  0.79089  0.50678  0.13967  1.0000
  H   H1301     1.0  0.78534  0.95762  0.09574  1.0000
  H   H1302     1.0  0.71888  0.51184  0.03078  1.0000
  H   H1303     1.0  0.71347  0.98835  0.27474  1.0000
  H   H1304     1.0  0.76738  0.84333  0.12770  1.0000
  H   H1305     1.0  0.75397  0.99538  0.26898  1.0000
  S   S218      1.0  0.73772  0.99322  0.14424  1.0000
  H   H1306     1.0  0.80256  0.97877  0.22626  1.0000
  C   C764      1.0  0.50481  0.58748  0.20644  1.0000
  H   H1307     1.0  0.51473  0.85499  0.15865  1.0000
  C   C765      1.0  0.75634  0.97959  0.29952  1.0000
  H   H1308     1.0  0.75214  0.91720  0.10075  1.0000
  C   C766      1.0  0.77702  0.90581  0.13963  1.0000
  N   N54       1.0  0.94800  0.70054  0.30510  1.0000
  H   H1309     1.0  0.94705  0.65230  0.31505  1.0000
  H   H1310     1.0  0.82518  0.88546  0.14528  1.0000
  C   C767      1.0  0.98896  0.58097  0.31094  1.0000
  C   C768      1.0  0.82885  0.72282  0.30928  1.0000
  C   C769      1.0  0.83437  0.99041  0.98990  1.0000
  S   S219      1.0  0.94641  0.93796  0.31554  1.0000
  C   C770      1.0  0.78861  0.99521  0.03439  1.0000
  H   H1311     1.0  0.80236  0.99882  0.04579  1.0000
  H   H1312     1.0  0.99125  0.50475  0.02503  1.0000
  H   H1313     1.0  0.79069  0.50326  0.19117  1.0000
  C   C771      1.0  0.76264  0.50361  0.05536  1.0000
  N   N55       1.0  0.88680  0.98195  0.36042  1.0000
  H   H1314     1.0  0.81365  0.89782  0.49711  1.0000
  S   S220      1.0  0.79063  0.93991  0.33753  1.0000
  S   S221      1.0  0.66674  0.52467  0.51981  1.0000
  C   C772      1.0  0.88385  0.95051  0.35113  1.0000
  S   S222      1.0  0.82815  0.53437  0.33852  1.0000
  Fe  Fe111     1.0  0.67596  0.56724  0.53728  1.0000
  S   S223      1.0  0.66697  0.55516  0.56331  1.0000
  H   H1315     1.0  0.50702  0.89895  0.53502  1.0000
  Fe  Fe112     1.0  0.68899  0.63993  0.54536  1.0000
  S   S224      1.0  0.68234  0.63176  0.57166  1.0000
  S   S225      1.0  0.69333  0.68997  0.53350  1.0000
  Fe  Fe113     1.0  0.71119  0.58599  0.56862  1.0000
  S   S226      1.0  0.75354  0.57364  0.58566  1.0000
  Fe  Fe114     1.0  0.63880  0.60149  0.56419  1.0000
  S   S227      1.0  0.59184  0.61397  0.57679  1.0000
  S   S228      1.0  0.72151  0.59637  0.54247  1.0000
  S   S229      1.0  0.64426  0.61122  0.53802  1.0000
  Fe  Fe115     1.0  0.68381  0.88308  0.55564  1.0000
  S   S230      1.0  0.64872  0.91207  0.57042  1.0000
  S   S231      1.0  0.70025  0.83299  0.56393  1.0000
  Fe  Fe116     1.0  0.69118  0.93758  0.53074  1.0000
  S   S232      1.0  0.65648  0.96985  0.54359  1.0000
  S   S233      1.0  0.71960  0.95010  0.50811  1.0000
  Fe  Fe117     1.0  0.68244  0.95495  0.56642  1.0000
  C   C773      1.0  0.91793  0.98489  0.37003  1.0000
  Fe  Fe118     1.0  0.62587  0.92480  0.54674  1.0000
  S   S234      1.0  0.57345  0.91719  0.53876  1.0000
  S   S235      1.0  0.71906  0.92526  0.55326  1.0000
  S   S236      1.0  0.65912  0.89328  0.53229  1.0000
  H   H1316     1.0  0.97004  0.98658  0.36589  1.0000
  H   H1317     1.0  0.94896  0.97026  0.34902  1.0000
  H   H1318     1.0  0.75963  0.53147  0.32831  1.0000
  H   H1319     1.0  0.77855  0.76594  0.52240  1.0000
  C   C774      1.0  0.51938  0.56301  0.55417  1.0000
  H   H1320     1.0  0.85887  0.91586  0.36681  1.0000
  C   C775      1.0  0.74070  0.54839  0.64719  1.0000
  C   C776      1.0  0.91818  0.68171  0.33074  1.0000
  C   C777      1.0  0.53934  0.71781  0.57907  1.0000
  H   H1321     1.0  0.91932  0.66216  0.33979  1.0000
  C   C778      1.0  0.58234  0.77354  0.55703  1.0000
  C   C779      1.0  0.53871  0.92978  0.54924  1.0000
  C   C780      1.0  0.72334  0.83197  0.50128  1.0000
  C   C781      1.0  0.54030  0.95304  0.56153  1.0000
  H   H1322     1.0  0.73459  0.99027  0.53678  1.0000
  H   H1323     1.0  0.56356  0.96297  0.56532  1.0000
  C   C782      1.0  0.76326  0.54053  0.59845  1.0000
  C   C783      1.0  0.79400  0.53990  0.60594  1.0000
  H   H1324     1.0  0.61351  0.72064  0.53491  1.0000
  H   H1325     1.0  0.74628  0.78956  0.53027  1.0000
  H   H1326     1.0  0.89435  0.67899  0.32467  1.0000
  H   H1327     1.0  0.81096  0.55968  0.60402  1.0000
  H   H1328     1.0  0.91971  0.70494  0.33749  1.0000
  C   C784      1.0  0.69321  0.72926  0.54256  1.0000
  C   C785      1.0  0.70567  0.73502  0.55799  1.0000
  C   C786      1.0  0.70713  0.76681  0.56435  1.0000
  C   C787      1.0  0.69566  0.79328  0.55555  1.0000
  C   C788      1.0  0.68217  0.78744  0.54031  1.0000
  C   C789      1.0  0.68150  0.75571  0.53377  1.0000
  H   H1329     1.0  0.71506  0.71508  0.56486  1.0000
  H   H1330     1.0  0.71763  0.77097  0.57613  1.0000
  H   H1331     1.0  0.67281  0.80742  0.53347  1.0000
  H   H1332     1.0  0.67176  0.75157  0.52183  1.0000
  H   H1333     1.0  0.51293  0.98207  0.57815  1.0000
  H   H1334     1.0  0.79281  0.52163  0.54067  1.0000
  H   H1335     1.0  0.64718  0.70039  0.56338  1.0000
  S   S237      1.0  0.69374  0.99579  0.58480  1.0000
  C   C790      1.0  0.80322  0.51383  0.61580  1.0000
  C   C791      1.0  0.55357  0.60093  0.56930  1.0000
  C   C792      1.0  0.55040  0.57439  0.55884  1.0000
  H   H1336     1.0  0.88752  0.89819  0.35358  1.0000
  H   H1337     1.0  0.57181  0.56201  0.55479  1.0000
  H   H1338     1.0  0.69760  0.87795  0.50535  1.0000
  C   C793      1.0  0.88311  0.91959  0.36138  1.0000
  H   H1339     1.0  0.86133  0.95022  0.34365  1.0000
  H   H1340     1.0  0.72431  0.54470  0.50146  1.0000
  H   H1341     1.0  0.56070  0.71130  0.55044  1.0000
  H   H1342     1.0  0.86069  0.96400  0.38114  1.0000
  H   H1343     1.0  0.74826  0.95028  0.36421  1.0000
  H   H1344     1.0  0.71758  0.51533  0.59595  1.0000
  H   H1345     1.0  0.79388  0.86423  0.53697  1.0000
  C   C794      1.0  0.85848  0.98295  0.37181  1.0000
  H   H1346     1.0  0.63177  0.71294  0.59905  1.0000
  H   H1347     1.0  0.75341  0.96158  0.59399  1.0000
  H   H1348     1.0  0.75481  0.88929  0.49799  1.0000
  N   N56       1.0  0.75080  0.61559  0.35696  1.0000
  C   C795      1.0  0.75377  0.59244  0.37080  1.0000
  C   C796      1.0  0.78167  0.61373  0.34743  1.0000
  C   C797      1.0  0.72197  0.60487  0.34675  1.0000
  C   C798      1.0  0.74582  0.64906  0.36382  1.0000
  C   C799      1.0  0.72291  0.58704  0.38087  1.0000
  C   C800      1.0  0.81339  0.62119  0.35676  1.0000
  C   C801      1.0  0.72340  0.61157  0.32858  1.0000
  C   C802      1.0  0.74612  0.67715  0.35183  1.0000
  H   H1349     1.0  0.76137  0.56823  0.36643  1.0000
  H   H1350     1.0  0.77296  0.60064  0.37944  1.0000
  H   H1351     1.0  0.78147  0.63037  0.33707  1.0000
  H   H1352     1.0  0.78405  0.58912  0.34207  1.0000
  H   H1353     1.0  0.71819  0.57814  0.34740  1.0000
  H   H1354     1.0  0.69915  0.61548  0.35136  1.0000
  H   H1355     1.0  0.72220  0.65037  0.37010  1.0000
  H   H1356     1.0  0.76449  0.65487  0.37316  1.0000
  H   H1357     1.0  0.72826  0.56902  0.39032  1.0000
  H   H1358     1.0  0.71529  0.60948  0.38708  1.0000
  H   H1359     1.0  0.70239  0.57673  0.37372  1.0000
  H   H1360     1.0  0.81915  0.60182  0.36542  1.0000
  H   H1361     1.0  0.83370  0.62187  0.34815  1.0000
  H   H1362     1.0  0.81318  0.64517  0.36280  1.0000
  N   N57       1.0  0.59883  0.71787  0.56844  1.0000
  H   H1363     1.0  0.96876  0.68132  0.32700  1.0000
  C   C803      1.0  0.73344  0.51029  0.34816  1.0000
  H   H1364     1.0  0.76954  0.67951  0.34549  1.0000
  H   H1365     1.0  0.74283  0.70027  0.35850  1.0000
  H   H1366     1.0  0.72581  0.67509  0.34313  1.0000
  C   C804      1.0  0.64722  0.71300  0.58825  1.0000
  H   H1367     1.0  0.83205  0.80404  0.31805  1.0000
  H   H1368     1.0  0.73848  0.88314  0.52494  1.0000
  H   H1369     1.0  0.82198  0.75074  0.33093  1.0000
  H   H1370     1.0  0.56295  0.77855  0.56574  1.0000
  C   C805      1.0  0.77924  0.99378  0.61052  1.0000
  H   H1371     1.0  0.53086  0.69430  0.57386  1.0000
  H   H1372     1.0  0.83536  0.97717  0.36536  1.0000
  H   H1373     1.0  0.76104  0.86878  0.55045  1.0000
  C   C806      1.0  0.78004  0.52742  0.55193  1.0000
  H   H1374     1.0  0.91532  0.97191  0.38161  1.0000
  C   C807      1.0  0.51546  0.99385  0.52075  1.0000
  C   C808      1.0  0.57617  0.71736  0.58264  1.0000
  C   C809      1.0  0.94690  0.67804  0.31925  1.0000
  H   H1375     1.0  0.82061  0.86386  0.50962  1.0000
  H   H1376     1.0  0.73531  0.51985  0.56419  1.0000
  C   C810      1.0  0.72446  0.98190  0.47917  1.0000
  H   H1377     1.0  0.79808  0.89878  0.51685  1.0000
  H   H1378     1.0  0.95416  0.94669  0.36694  1.0000
  C   C811      1.0  0.74457  0.85708  0.52616  1.0000
  H   H1379     1.0  0.70901  0.87080  0.48484  1.0000
  H   H1380     1.0  0.70859  0.81535  0.50882  1.0000
  C   C812      1.0  0.60453  0.69691  0.53924  1.0000
  H   H1381     1.0  0.72939  0.81774  0.49030  1.0000
  H   H1382     1.0  0.90200  0.91993  0.37089  1.0000
  H   H1383     1.0  0.50488  0.98342  0.53168  1.0000
  H   H1384     1.0  0.53201  0.73746  0.57099  1.0000
  C   C813      1.0  0.79186  0.52019  0.34780  1.0000
  H   H1385     1.0  0.79533  0.52154  0.56248  1.0000
  C   C814      1.0  0.67597  0.99268  0.49420  1.0000
  H   H1386     1.0  0.62342  0.67406  0.57522  1.0000
  H   H1387     1.0  0.79768  0.81944  0.51859  1.0000
  H   H1388     1.0  0.67590  0.84867  0.49330  1.0000
  H   H1389     1.0  0.89806  0.73679  0.31799  1.0000
  C   C815      1.0  0.70034  0.85911  0.49598  1.0000
  H   H1390     1.0  0.73965  0.59409  0.32262  1.0000
  C   C816      1.0  0.77896  0.97612  0.34775  1.0000
  H   H1391     1.0  0.62921  0.75193  0.55574  1.0000
  C   C817      1.0  0.76964  0.85460  0.53999  1.0000
  H   H1392     1.0  0.57204  0.76332  0.54574  1.0000
  H   H1393     1.0  0.79898  0.97721  0.61234  1.0000
  H   H1394     1.0  0.74725  0.96954  0.47796  1.0000
  H   H1395     1.0  0.74264  0.77101  0.51067  1.0000
  C   C818      1.0  0.80257  0.88242  0.50650  1.0000
  C   C819      1.0  0.71120  0.52620  0.49469  1.0000
  H   H1396     1.0  0.72199  0.84555  0.53074  1.0000
  C   C820      1.0  0.58359  0.69992  0.55438  1.0000
  H   H1397     1.0  0.78415  0.80611  0.49952  1.0000
  H   H1398     1.0  0.58183  0.73781  0.59105  1.0000
  N   N58       1.0  0.75382  0.84285  0.51009  1.0000
  H   H1399     1.0  0.73141  0.63643  0.32561  1.0000
  C   C821      1.0  0.77536  0.81376  0.51155  1.0000
  H   H1400     1.0  0.66797  0.69692  0.59081  1.0000
  S   S238      1.0  0.82228  0.68528  0.31885  1.0000
  H   H1401     1.0  0.71016  0.51139  0.34212  1.0000
  C   C822      1.0  0.75952  0.78357  0.51919  1.0000
  H   H1402     1.0  0.57663  0.67480  0.55796  1.0000
  H   H1403     1.0  0.65766  0.73755  0.58640  1.0000
  H   H1404     1.0  0.77536  0.85784  0.48772  1.0000
  C   C823      1.0  0.75779  0.97377  0.36085  1.0000
  H   H1405     1.0  0.77193  0.82942  0.54427  1.0000
  C   C824      1.0  0.70530  0.97635  0.49280  1.0000
  C   C825      1.0  0.52556  0.61664  0.57458  1.0000
  H   H1406     1.0  0.57955  0.69489  0.58978  1.0000
  C   C826      1.0  0.74611  0.51132  0.55278  1.0000
  C   C827      1.0  0.60872  0.75207  0.56428  1.0000
  H   H1407     1.0  0.74691  0.52339  0.47593  1.0000
  C   C828      1.0  0.77054  0.86796  0.49990  1.0000
  H   H1408     1.0  0.82705  0.51370  0.62131  1.0000
  H   H1409     1.0  0.59344  0.79738  0.55400  1.0000
  C   C829      1.0  0.94890  0.97117  0.36225  1.0000
  H   H1410     1.0  0.62511  0.68045  0.54116  1.0000
  C   C830      1.0  0.82736  0.75172  0.31828  1.0000
  C   C831      1.0  0.75339  0.98484  0.60006  1.0000
  H   H1411     1.0  0.74869  0.54934  0.63452  1.0000
  C   C832      1.0  0.76148  0.52171  0.34027  1.0000
  H   H1412     1.0  0.58963  0.68583  0.52943  1.0000
  H   H1413     1.0  0.71436  0.55333  0.64716  1.0000
  H   H1414     1.0  0.78400  0.97422  0.55198  1.0000
  H   H1415     1.0  0.61810  0.76540  0.57504  1.0000
  H   H1416     1.0  0.90352  0.94751  0.34237  1.0000
  H   H1417     1.0  0.96690  0.73799  0.32111  1.0000
  H   H1418     1.0  0.52782  0.63694  0.58281  1.0000
  C   C833      1.0  0.62912  0.70006  0.57316  1.0000
  H   H1419     1.0  0.69892  0.60767  0.32320  1.0000
  H   H1420     1.0  0.81698  0.50581  0.36931  1.0000
  C   C834      1.0  0.79366  0.50707  0.36332  1.0000
  C   C835      1.0  0.51158  0.96387  0.56874  1.0000
  H   H1421     1.0  0.77726  0.55413  0.55225  1.0000
  C   C836      1.0  0.68205  0.51361  0.50063  1.0000
  C   C837      1.0  0.77200  0.99759  0.55456  1.0000
  H   H1422     1.0  0.73079  0.52216  0.54322  1.0000
  S   S239      1.0  0.86549  0.89187  0.31921  1.0000
  C   C838      1.0  0.72397  0.51404  0.48020  1.0000
  H   H1423     1.0  0.51857  0.99660  0.39289  1.0000
  H   H1424     1.0  0.51711  0.54178  0.54654  1.0000
  H   H1425     1.0  0.66088  0.98869  0.50455  1.0000
  C   C839      1.0  0.50836  0.91712  0.54444  1.0000
  H   H1426     1.0  0.52612  0.72118  0.59050  1.0000
  H   H1427     1.0  0.52564  0.97419  0.51323  1.0000
  Fe  Fe119     1.0  0.82503  0.92804  0.31680  1.0000
  S   S240      1.0  0.87243  0.60865  0.32002  1.0000
  H   H1428     1.0  0.90969  0.99122  0.32794  1.0000
  H   H1429     1.0  0.75495  0.99278  0.56449  1.0000
  H   H1430     1.0  0.72577  0.00158  0.32648  1.0000
  H   H1431     1.0  0.73314  0.99906  0.38002  1.0000
  C   C840      1.0  0.74156  0.51491  0.60125  1.0000
  H   H1432     1.0  0.96801  0.57137  0.31710  1.0000
  Fe  Fe120     1.0  0.83722  0.56667  0.31653  1.0000
  H   H1433     1.0  0.92277  0.76960  0.32485  1.0000
  H   H1434     1.0  0.75118  0.99689  0.64904  1.0000
  H   H1435     1.0  0.75310  0.50285  0.52026  1.0000
  C   C841      1.0  0.74912  0.00145  0.36987  1.0000
  Fe  Fe121     1.0  0.83634  0.64491  0.91915  1.0000
  S   S241      1.0  0.84319  0.62522  0.89411  1.0000
  S   S242      1.0  0.83164  0.69745  0.92840  1.0000
  Fe  Fe122     1.0  0.85844  0.57989  0.93488  1.0000
  S   S243      1.0  0.86834  0.55690  0.91078  1.0000
  S   S244      1.0  0.87779  0.56015  0.95879  1.0000
  Fe  Fe123     1.0  0.89003  0.60490  0.90360  1.0000
  S   S245      1.0  0.93748  0.62144  0.89242  1.0000
  Fe  Fe124     1.0  0.82050  0.57838  0.90299  1.0000
  S   S246      1.0  0.78160  0.54409  0.89168  1.0000
  S   S247      1.0  0.88382  0.62604  0.92804  1.0000
  S   S248      1.0  0.80998  0.59974  0.92769  1.0000
  Fe  Fe125     1.0  0.89169  0.93736  0.91723  1.0000
  S   S249      1.0  0.86217  0.90480  0.93300  1.0000
  S   S250      1.0  0.94418  0.93972  0.92560  1.0000
  Fe  Fe126     1.0  0.83054  0.96253  0.89969  1.0000
  S   S251      1.0  0.79742  0.93196  0.91494  1.0000
  C   C842      1.0  0.96533  0.59793  0.95105  1.0000
  Fe  Fe127     1.0  0.82984  0.94789  0.93582  1.0000
  S   S252      1.0  0.81645  0.95876  0.96191  1.0000
  Fe  Fe128     1.0  0.83314  0.89151  0.91102  1.0000
  S   S253      1.0  0.81796  0.84143  0.90092  1.0000
  S   S254      1.0  0.86043  0.98105  0.92088  1.0000
  S   S255      1.0  0.86506  0.92139  0.89487  1.0000
  H   H1436     1.0  0.97548  0.99340  0.94166  1.0000
  H   H1437     1.0  0.66191  0.53674  0.79337  1.0000
  H   H1438     1.0  0.95500  0.55345  0.88997  1.0000
  H   H1439     1.0  0.95627  0.69886  0.88298  1.0000
  C   C843      1.0  0.75772  0.53408  0.68192  1.0000
  H   H1440     1.0  0.96330  0.95941  0.97913  1.0000
  H   H1441     1.0  0.96503  0.64889  0.94479  1.0000
  C   C844      1.0  0.98038  0.93610  0.91463  1.0000
  C   C845      1.0  0.97152  0.62554  0.93904  1.0000
  C   C846      1.0  0.98060  0.93123  0.89802  1.0000
  H   H1442     1.0  0.81033  0.99399  0.68249  1.0000
  H   H1443     1.0  0.95795  0.92953  0.89142  1.0000
  H   H1444     1.0  0.67952  0.53481  0.81287  1.0000
  H   H1445     1.0  0.94440  0.50271  0.93430  1.0000
  H   H1446     1.0  0.61837  0.56809  0.85873  1.0000
  C   C847      1.0  0.76942  0.52877  0.87233  1.0000
  C   C848      1.0  0.94879  0.96442  0.96814  1.0000
  H   H1447     1.0  0.92446  0.56000  0.93564  1.0000
  H   H1448     1.0  0.66457  0.50918  0.69053  1.0000
  H   H1449     1.0  0.80459  0.55582  0.68794  1.0000
  H   H1450     1.0  0.54930  0.53323  0.82834  1.0000
  H   H1451     1.0  0.99739  0.62746  0.93564  1.0000
  C   C849      1.0  0.82704  0.73721  0.92048  1.0000
  C   C850      1.0  0.81547  0.74279  0.90494  1.0000
  C   C851      1.0  0.81261  0.77478  0.89926  1.0000
  C   C852      1.0  0.82154  0.80167  0.90893  1.0000
  C   C853      1.0  0.83318  0.79610  0.92445  1.0000
  C   C854      1.0  0.83558  0.76413  0.93021  1.0000
  H   H1452     1.0  0.80841  0.72246  0.89735  1.0000
  H   H1453     1.0  0.80344  0.77871  0.88726  1.0000
  H   H1454     1.0  0.83999  0.81644  0.93210  1.0000
  H   H1455     1.0  0.84430  0.76022  0.94230  1.0000
  C   C855      1.0  0.97481  0.60129  0.89414  1.0000
  H   H1456     1.0  0.58243  0.58552  0.85006  1.0000
  N   N59       1.0  0.61880  0.52294  0.82891  1.0000
  C   C856      1.0  0.82911  0.99334  0.97328  1.0000
  C   C857      1.0  0.96826  0.53977  0.95837  1.0000
  H   H1457     1.0  0.96017  0.94958  0.95854  1.0000
  H   H1458     1.0  0.00214  0.64563  0.89789  1.0000
  H   H1459     1.0  0.74724  0.55864  0.68075  1.0000
  C   C858      1.0  0.78041  0.54225  0.85798  1.0000
  C   C859      1.0  0.85975  0.53551  0.97377  1.0000
  H   H1460     1.0  0.98086  0.51680  0.95546  1.0000
  H   H1461     1.0  0.62726  0.51290  0.86280  1.0000
  C   C860      1.0  0.97859  0.54981  0.97553  1.0000
  C   C861      1.0  0.59794  0.56374  0.85017  1.0000
  H   H1462     1.0  0.80730  0.51488  0.68157  1.0000
  N   N60       1.0  0.97336  0.56426  0.94523  1.0000
  C   C862      1.0  0.61060  0.55740  0.83312  1.0000
  H   H1463     1.0  0.77880  0.97617  0.67052  1.0000
  C   C863      1.0  0.91497  0.94851  0.97033  1.0000
  H   H1464     1.0  0.92021  0.72450  0.93997  1.0000
  N   N61       1.0  0.73999  0.50977  0.67130  1.0000
  C   C864      1.0  0.65725  0.54161  0.80626  1.0000
  H   H1465     1.0  0.99253  0.84403  0.91875  1.0000
  H   H1466     1.0  0.95364  0.68492  0.90281  1.0000
  C   C865      1.0  0.72546  0.99258  0.65198  1.0000
  H   H1467     1.0  0.74624  0.89674  0.89495  1.0000
  H   H1468     1.0  0.63236  0.57339  0.83198  1.0000
  H   H1469     1.0  0.69767  0.54017  0.67257  1.0000
  C   C866      1.0  0.62721  0.52157  0.81133  1.0000
  H   H1470     1.0  0.86622  0.68700  0.87370  1.0000
  H   H1471     1.0  0.81302  0.53025  0.96234  1.0000
  H   H1472     1.0  0.58209  0.54415  0.85470  1.0000
  H   H1473     1.0  0.65328  0.56800  0.80750  1.0000
  C   C867      1.0  0.55805  0.50989  0.82351  1.0000
  H   H1474     1.0  0.90181  0.94642  0.95867  1.0000
  H   H1475     1.0  0.79739  0.56243  0.85842  1.0000
  C   C868      1.0  0.98626  0.72565  0.89976  1.0000
  H   H1476     1.0  0.60682  0.52995  0.80370  1.0000
  C   C869      1.0  0.94978  0.55590  0.93183  1.0000
  N   N62       1.0  0.76008  0.91057  0.86136  1.0000
  C   C870      1.0  0.79005  0.89744  0.86942  1.0000
  C   C871      1.0  0.74228  0.92937  0.87407  1.0000
  C   C872      1.0  0.77124  0.93299  0.84827  1.0000
  C   C873      1.0  0.74053  0.88244  0.85458  1.0000
  C   C874      1.0  0.81469  0.88042  0.85850  1.0000
  C   C875      1.0  0.72754  0.90903  0.88770  1.0000
  C   C876      1.0  0.74518  0.95245  0.83934  1.0000
  C   C877      1.0  0.70494  0.88898  0.84965  1.0000
  H   H1477     1.0  0.80366  0.91714  0.87590  1.0000
  H   H1478     1.0  0.78342  0.87945  0.87868  1.0000
  H   H1479     1.0  0.72229  0.94384  0.86912  1.0000
  H   H1480     1.0  0.75881  0.94774  0.87976  1.0000
  H   H1481     1.0  0.78934  0.95083  0.85313  1.0000
  H   H1482     1.0  0.78396  0.91928  0.83873  1.0000
  H   H1483     1.0  0.75263  0.87223  0.84382  1.0000
  H   H1484     1.0  0.73996  0.86205  0.86326  1.0000
  H   H1485     1.0  0.83353  0.86924  0.86620  1.0000
  H   H1486     1.0  0.80349  0.86063  0.85122  1.0000
  H   H1487     1.0  0.82760  0.89793  0.85072  1.0000
  H   H1488     1.0  0.70955  0.89092  0.88319  1.0000
  H   H1489     1.0  0.91768  0.99416  0.94377  1.0000
  H   H1490     1.0  0.71464  0.92546  0.89603  1.0000
  H   H1491     1.0  0.75753  0.96857  0.83064  1.0000
  H   H1492     1.0  0.73138  0.96875  0.84727  1.0000
  H   H1493     1.0  0.72865  0.93668  0.83214  1.0000
  H   H1494     1.0  0.70159  0.88477  0.83656  1.0000
  H   H1495     1.0  0.69631  0.91360  0.85234  1.0000
  H   H1496     1.0  0.68841  0.87174  0.85581  1.0000
  N   N63       1.0  0.92381  0.72650  0.89789  1.0000
  C   C878      1.0  0.92068  0.73844  0.91495  1.0000
  C   C879      1.0  0.92478  0.75562  0.88711  1.0000
  C   C880      1.0  0.95432  0.70747  0.89563  1.0000
  C   C881      1.0  0.89538  0.70442  0.89398  1.0000
  C   C882      1.0  0.92397  0.71273  0.92812  1.0000
  C   C883      1.0  0.89271  0.77415  0.88550  1.0000
  C   C884      1.0  0.97674  0.56766  0.89242  1.0000
  C   C885      1.0  0.89213  0.69262  0.87639  1.0000
  H   H1497     1.0  0.93858  0.75814  0.91773  1.0000
  H   H1498     1.0  0.89662  0.74963  0.91676  1.0000
  H   H1499     1.0  0.93310  0.74909  0.87487  1.0000
  H   H1500     1.0  0.94309  0.77370  0.89153  1.0000
  H   H1501     1.0  0.95319  0.57211  0.92152  1.0000
  H   H1502     1.0  0.94207  0.53302  0.95930  1.0000
  H   H1503     1.0  0.89644  0.68202  0.90127  1.0000
  H   H1504     1.0  0.87209  0.71518  0.89762  1.0000
  H   H1505     1.0  0.94833  0.70181  0.92842  1.0000
  C   C886      1.0  0.78882  0.99967  0.67497  1.0000
  H   H1506     1.0  0.90509  0.69357  0.92693  1.0000
  H   H1507     1.0  0.89641  0.79516  0.87747  1.0000
  H   H1508     1.0  0.87300  0.75901  0.88010  1.0000
  H   H1509     1.0  0.88473  0.78407  0.89718  1.0000
  H   H1510     1.0  0.70333  0.51386  0.70008  1.0000
  H   H1511     1.0  0.77924  0.51244  0.78749  1.0000
  H   H1512     1.0  0.77728  0.54107  0.83211  1.0000
  H   H1513     1.0  0.90647  0.67048  0.87428  1.0000
  H   H1514     1.0  0.89930  0.71091  0.86748  1.0000
  H   H1515     1.0  0.99062  0.74613  0.89153  1.0000
  H   H1516     1.0  0.91795  0.92344  0.97475  1.0000
  H   H1517     1.0  0.59315  0.56773  0.82434  1.0000
  C   C887      1.0  0.82773  0.52406  0.97264  1.0000
  C   C888      1.0  0.64825  0.51225  0.83835  1.0000
  C   C889      1.0  0.79453  0.53771  0.67925  1.0000
  C   C890      1.0  0.76889  0.53002  0.84304  1.0000
  S   S256      1.0  0.81689  0.99275  0.87746  1.0000
  H   H1518     1.0  0.96190  0.56819  0.98050  1.0000
  H   H1519     1.0  0.66599  0.53263  0.84001  1.0000
  H   H1520     1.0  0.98711  0.73426  0.91238  1.0000
  H   H1521     1.0  0.89960  0.96146  0.97899  1.0000
  C   C891      1.0  0.74799  0.51456  0.65389  1.0000
  H   H1522     1.0  0.55924  0.51088  0.81026  1.0000
  H   H1523     1.0  0.97467  0.51518  0.91981  1.0000
  H   H1524     1.0  0.93940  0.59893  0.95468  1.0000
  H   H1525     1.0  0.93266  0.51828  0.91533  1.0000
  H   H1526     1.0  0.95627  0.62317  0.92810  1.0000
  H   H1527     1.0  0.72113  0.96607  0.65062  1.0000
  N   N64       1.0  0.95014  0.00016  0.96408  1.0000
  H   H1528     1.0  0.71490  0.98155  0.67677  1.0000
  H   H1529     1.0  0.75401  0.56797  0.65372  1.0000
  H   H1530     1.0  0.80052  0.54653  0.66711  1.0000
  H   H1531     1.0  0.77392  0.50920  0.65157  1.0000
  H   H1532     1.0  0.73665  0.99446  0.97940  1.0000
  H   H1533     1.0  0.97916  0.60489  0.96201  1.0000
  H   H1534     1.0  0.75485  0.52768  0.69477  1.0000
  C   C892      1.0  0.74657  0.50388  0.84214  1.0000
  H   H1535     1.0  0.75732  0.00009  0.69477  1.0000
  C   C893      1.0  0.70407  0.51415  0.67355  1.0000
  C   C894      1.0  0.95092  0.52091  0.92514  1.0000
  C   C895      1.0  0.74713  0.50258  0.87139  1.0000
  C   C896      1.0  0.69049  0.50246  0.68971  1.0000
  H   H1536     1.0  0.69422  0.00219  0.70046  1.0000
