data_image0
_chemical_formula_structural       HFeS2FeS2FeSFeS3CH2CHFeS2H2CHC6H5C5H8CH3C7H5C2H2CHCH5CH3CH2CH2CH3CHCHCHCH5CNH2SCNH3C3H2CH4C4HNHCH8CH2CHCHCH3C3HFeS2FeSFeSFeS3CHSH2C2SCH5CHNCH2CH2C7H3C6H5SH2C2HC2H3CH3FeH2NC7FeHSH3FeH3C3SH2FeCNCH4SH6C2HCH13FeHNC5H10SHCH7CHSC2H7SH3SHCFeS2FeC2FeSFeHS2CS2CSFeSHSHFeSHFeS2FeHFeS3FeS2FeS2FeSFeS3FeS2C4H2C6H4C3HCH6C6H4CSC5H4C7H5CHC6H4CH2CH2CHNHCFeCH6CNC8H20SH2C2H9CH4CH3CHSNC5HC2H4FeH5C2H2CH7NCH4CH10CNHC2H2C2H2CHCH3NH5CH3SC3HFeCHCHCH2SH15CHSCHSHCH4NC2HNSCH2SNFeSH2FeS2FeS2Fe2HS2H3FeS2FeS2FeSFeS3HC4H2CH4CHC2SC6H4C6H4CHCHC4H3C2SHC2HC3H2CHC2H2NHC3SHC2HCH6CFeHCFeH3CH4CH3NCH2SCSH2NSHCHCH2FeH4CH2CH2CH2NC8H17SH3C2NC8H23SH2NC2H2CH6CH3CHCH5CH4C2H2C2H2C2HCH3CHC2HCH2CHSCH4CHC2H2CHFeC2HCHC4HCHCHC2H2C2H3C2H2CH4CH2CH2SH3C7H3FeHSCSH12C2HC2H2CH2SFeHSHCS3HCHCHNHC4H11C2H2CH6CH2FeC2H2CHNHC2H2CHC3H2C2FeS2FeS2FeSFeS3C3FeS2H2FeH3C3H6C6H4C6H7SH2C5H5CH6NCHC2HNHCHC2H3CFeHCH2C2HCH3CNH6CSH2CHSH5CH3CHC3HCHFeH2CH4NC8H23CFeHCHCHC2HC2H2SHCH2NCH4CSH2CSFeS2FeS2FeSFeS4H2CH3SHFeSH3CH2FeHCHC4H3SHC6H4CHCH2C8H7CSHCH2FeNH2SHCHCHC2H3FeH2CH3CSC2H7CH7CH3SH5CHSHCHCHCHCH2CHC2NHCH2CH3CHSCSCH2CH3NHC2NSHFeSFeS2FeSFeS3FeHSH2SCFeHSFeS2HFeCS2CH2CHC3H3CH6C6H4C6H4CHSNHC3H2C2H7CHCHCH7CH2CH3NC5H2SH3CHCHFeH4SCH5CH6C2H5CH3C2H2CSHNHC2HFeHSCH3S2H3C3SHCH6CFeSHSFeS2FeS2FeSFeS3C2H3C3HC2H4C6H6CHSHCH2C6H3NCH4FeH5C3H3SCH3CH6NH4CHSFeH6NC3HCHCH7CH3C3HCH2CHCH2CHCH2CH2CH2NCH5C3H2CH3C2HSHFeSHSH3SH2CH4C3H3C2H3CH4NH5C3FeH2C2H3C2HCHCHCNC2H2C2H4C4HCH4SH2CH3CH2SH5CNCHC2HFeCH7C2HCH4C2HC2HC2H4CSHFeCH4CHFeH2FeS2CSFeCS3FeSCH2CSC3HC2HCH5FeHSCSH2C6H2CH2FeCH4C2H3SH4CSCH2CHCH3CHCH2CH2CHCNCSC6H7CH2NH3C2H10SH3CH4CHFeH2CHCH3CS2H2NCHC2FeS2FeCFeS3H2FeS2FeS2Fe2S3FeS2FeS2FeSFeS3HFeCHFeHSFeCHS2CHC6H4C6H4CHCH2C6H4C7H4SH2C7H2CHC4NH4C3H4SCH6NH3CSCHCH4CHCHCH5CH3CHC2NC4H3CH4C2H2CH3C3H7SCSHC2HCHNHCHCHCHCH3CH3CHNH3SH3CHCH7C3H2CHCH3NC4H8C2HCSH4NHC2HC2H2CH6S2H2NCH7C2HCH4CH4FeCH2CH3NH2CH4CS2HNCH3CH7C2HCH2CHCHC3HCH4CHCH2SHCHCHCHCHCHFeC2HSHSH2CSHCH2CHC2HCH2FeSHFeSCSNFeS2H2CH2FeS3FeS2FeS2FeS2FeS2FeSFeS2FeS2FeS2FeSFeS3H2C4H4C6H4C4H3C6H5C6H4C6HCH2C6H4CNFeCH2CH5C2HNHFeC2HCH2CHCH2CSH4CH3SH5CHNHC2H2C2H15NC8H11CHCHCH6C2HCH5C3NH2CHCSH2CH5CHCFeHSHCH2CHC2H4NCHFeH13FeH3C2H5C3H2CH2SHC2SHCHFeHC2NH4CSHCH2C2HFeHSHCHFeHCHCH3CH4CH10CHC2H3SHCSH3FeS2FeS2FeSFeS3H2SHCHCH2SH3CFeH3SH3CHFeC6H4CHCHFeHC7H3C3H7CHNH4CH2C3HCFeH2CHCSC2H2CHCNH10C2H3SH3C2HCSH4NH3SNFeS2FeS2FeSFeS3NCHC6H4C6H5CHC2HC2HC5HNC2H3CH8CH3CH3CHCH3CH8CH2CHCH3CH2C2HCHCH2CHC2HCH2CH3NH4CH2CHCHC3HCSC3H2C2HCHCHCFeH3FeH3CHCH2NH6C2HCH2C2H8CH8CHCH2C
_chemical_formula_sum              "H1728 Fe144 S288 C1008 N72"
_cell_length_a       71.6371
_cell_length_b       73.5894
_cell_length_c       31.7127
_cell_angle_alpha    89.3308
_cell_angle_beta     91.0406
_cell_angle_gamma    112.294

_space_group_name_H-M_alt    "P 1"
_space_group_IT_number       1

loop_
  _space_group_symop_operation_xyz
  'x, y, z'

loop_
  _atom_site_type_symbol
  _atom_site_label
  _atom_site_symmetry_multiplicity
  _atom_site_fract_x
  _atom_site_fract_y
  _atom_site_fract_z
  _atom_site_occupancy
  H   H1        1.0  0.31257  0.03676  0.43237  1.0000
  Fe  Fe1       1.0  0.28357  0.07511  0.32299  1.0000
  S   S1        1.0  0.26072  0.08634  0.29549  1.0000
  S   S2        1.0  0.29828  0.08177  0.38824  1.0000
  Fe  Fe2       1.0  0.28785  0.05628  0.23916  1.0000
  S   S3        1.0  0.26538  0.06593  0.20567  1.0000
  S   S4        1.0  0.30436  0.03816  0.21184  1.0000
  Fe  Fe3       1.0  0.28046  0.09511  0.23832  1.0000
  S   S5        1.0  0.29150  0.12348  0.19884  1.0000
  Fe  Fe4       1.0  0.24763  0.05638  0.26526  1.0000
  S   S6        1.0  0.21412  0.03943  0.25980  1.0000
  S   S7        1.0  0.30439  0.08592  0.26796  1.0000
  S   S8        1.0  0.26899  0.04463  0.29667  1.0000
  C   C1        1.0  0.46872  0.01023  0.50133  1.0000
  H   H2        1.0  0.33138  0.03342  0.46690  1.0000
  H   H3        1.0  0.33464  0.07356  0.10613  1.0000
  C   C2        1.0  0.34940  0.10034  0.19630  1.0000
  H   H4        1.0  0.28701  0.03900  0.47575  1.0000
  Fe  Fe5       1.0  0.27424  0.22431  0.15578  1.0000
  S   S9        1.0  0.26362  0.19666  0.19726  1.0000
  S   S10       1.0  0.29007  0.23025  0.09339  1.0000
  H   H5        1.0  0.24946  0.19143  0.32318  1.0000
  H   H6        1.0  0.20449  0.23335  0.26887  1.0000
  C   C3        1.0  0.31205  0.02692  0.07230  1.0000
  H   H7        1.0  0.26180  0.99436  0.09286  1.0000
  C   C4        1.0  0.28338  0.14361  0.19897  1.0000
  C   C5        1.0  0.29236  0.15944  0.17101  1.0000
  C   C6        1.0  0.28650  0.17574  0.16994  1.0000
  C   C7        1.0  0.27156  0.17643  0.19695  1.0000
  C   C8        1.0  0.26258  0.16061  0.22495  1.0000
  C   C9        1.0  0.26842  0.14430  0.22596  1.0000
  H   H8        1.0  0.30394  0.15910  0.14999  1.0000
  H   H9        1.0  0.29357  0.18776  0.14827  1.0000
  H   H10       1.0  0.25099  0.16093  0.24594  1.0000
  H   H11       1.0  0.26135  0.13226  0.24760  1.0000
  H   H12       1.0  0.36527  0.10140  0.19660  1.0000
  C   C10       1.0  0.29895  0.03617  0.08367  1.0000
  C   C11       1.0  0.29600  0.03928  0.12635  1.0000
  C   C12       1.0  0.30623  0.03324  0.15799  1.0000
  C   C13       1.0  0.31897  0.02359  0.14665  1.0000
  C   C14       1.0  0.32192  0.02047  0.10399  1.0000
  H   H13       1.0  0.28599  0.04652  0.13473  1.0000
  H   H14       1.0  0.32695  0.01886  0.17099  1.0000
  H   H15       1.0  0.33207  0.01336  0.09562  1.0000
  H   H16       1.0  0.25402  0.01875  0.42799  1.0000
  H   H17       1.0  0.36278  0.12033  0.06319  1.0000
  H   H18       1.0  0.46653  0.01303  0.17453  1.0000
  H   H19       1.0  0.23744  0.05041  0.47350  1.0000
  H   H20       1.0  0.17302  0.01430  0.25639  1.0000
  C   C15       1.0  0.23695  0.01061  0.18008  1.0000
  H   H21       1.0  0.32560  0.02143  0.41718  1.0000
  H   H22       1.0  0.22154  0.19985  0.19357  1.0000
  H   H23       1.0  0.27651  0.13096  0.48572  1.0000
  C   C16       1.0  0.20226  0.01437  0.27338  1.0000
  C   C17       1.0  0.26410  0.06313  0.51265  1.0000
  C   C18       1.0  0.28500  0.07349  0.51284  1.0000
  C   C19       1.0  0.29527  0.07911  0.47443  1.0000
  C   C20       1.0  0.28474  0.07454  0.43564  1.0000
  C   C21       1.0  0.26384  0.06422  0.43554  1.0000
  C   C22       1.0  0.25360  0.05849  0.47390  1.0000
  H   H24       1.0  0.26840  0.00059  0.16322  1.0000
  H   H25       1.0  0.31146  0.08701  0.47474  1.0000
  H   H26       1.0  0.25560  0.06057  0.40587  1.0000
  H   H27       1.0  0.47432  0.01261  0.03954  1.0000
  H   H28       1.0  0.31475  0.10242  0.17533  1.0000
  C   C23       1.0  0.24549  0.14118  0.49371  1.0000
  C   C24       1.0  0.20393  0.23254  0.33650  1.0000
  H   H29       1.0  0.29210  0.12557  0.52554  1.0000
  H   H30       1.0  0.22841  0.02310  0.12251  1.0000
  C   C25       1.0  0.21815  0.20109  0.22724  1.0000
  H   H31       1.0  0.47243  0.03308  0.13878  1.0000
  C   C26       1.0  0.25230  0.20696  0.31489  1.0000
  H   H32       1.0  0.37595  0.08558  0.15162  1.0000
  H   H33       1.0  0.33519  0.12026  0.22145  1.0000
  H   H34       1.0  0.47122  0.99601  0.44403  1.0000
  H   H35       1.0  0.28038  0.10863  0.48423  1.0000
  H   H36       1.0  0.31276  0.03823  0.51893  1.0000
  C   C27       1.0  0.34771  0.11414  0.07806  1.0000
  H   H37       1.0  0.46739  0.03664  0.19219  1.0000
  H   H38       1.0  0.34417  0.12690  0.13686  1.0000
  H   H39       1.0  0.30793  0.08007  0.09160  1.0000
  C   C28       1.0  0.22326  0.01905  0.15525  1.0000
  H   H40       1.0  0.35565  0.11889  0.25190  1.0000
  H   H41       1.0  0.25850  0.20881  0.28282  1.0000
  C   C29       1.0  0.27815  0.11934  0.50587  1.0000
  H   H42       1.0  0.26046  0.15254  0.50127  1.0000
  H   H43       1.0  0.36619  0.06973  0.10789  1.0000
  C   C30       1.0  0.30236  0.02365  0.53075  1.0000
  H   H44       1.0  0.26754  0.00336  0.41929  1.0000
  H   H45       1.0  0.28947  0.08410  0.12278  1.0000
  H   H46       1.0  0.29119  0.04111  0.05928  1.0000
  C   C31       1.0  0.21290  0.00295  0.28827  1.0000
  H   H47       1.0  0.34006  0.09910  0.06582  1.0000
  C   C32       1.0  0.23644  0.12651  0.53002  1.0000
  H   H48       1.0  0.26396  0.21665  0.33692  1.0000
  C   C33       1.0  0.35009  0.11911  0.21902  1.0000
  H   H49       1.0  0.30887  0.10480  0.10099  1.0000
  C   C34       1.0  0.18134  0.00558  0.26767  1.0000
  H   H50       1.0  0.25259  0.02175  0.17680  1.0000
  H   H51       1.0  0.22903  0.00967  0.29336  1.0000
  H   H52       1.0  0.23356  0.01102  0.21402  1.0000
  H   H53       1.0  0.22407  0.03281  0.17074  1.0000
  H   H54       1.0  0.19720  0.20949  0.29118  1.0000
  C   C35       1.0  0.27732  0.02310  0.47632  1.0000
  N   N1        1.0  0.34050  0.09708  0.15207  1.0000
  H   H55       1.0  0.36078  0.13262  0.20388  1.0000
  H   H56       1.0  0.37266  0.09544  0.10071  1.0000
  S   S11       1.0  0.25079  0.23643  0.13508  1.0000
  C   C36       1.0  0.24883  0.99910  0.09215  1.0000
  N   N2        1.0  0.28904  0.01169  0.49540  1.0000
  H   H57       1.0  0.36665  0.12233  0.13381  1.0000
  H   H58       1.0  0.22533  0.11318  0.51464  1.0000
  H   H59       1.0  0.31119  0.07741  0.17330  1.0000
  C   C37       1.0  0.30577  0.09009  0.11501  1.0000
  C   C38       1.0  0.34407  0.07970  0.13452  1.0000
  C   C39       1.0  0.23243  0.21041  0.31808  1.0000
  H   H60       1.0  0.21971  0.19591  0.31471  1.0000
  H   H61       1.0  0.24750  0.22327  0.23573  1.0000
  C   C40       1.0  0.35013  0.11568  0.12674  1.0000
  H   H62       1.0  0.23157  0.21429  0.35157  1.0000
  H   H63       1.0  0.20720  0.00917  0.15455  1.0000
  H   H64       1.0  0.24645  0.13335  0.46458  1.0000
  H   H65       1.0  0.34117  0.08749  0.21697  1.0000
  C   C41       1.0  0.31884  0.02601  0.44432  1.0000
  C   C42       1.0  0.23190  0.22161  0.24328  1.0000
  C   C43       1.0  0.43412  0.00322  0.52391  1.0000
  C   C44       1.0  0.31806  0.09163  0.15607  1.0000
  H   H66       1.0  0.23563  0.14947  0.48701  1.0000
  N   N3        1.0  0.22969  0.22564  0.28909  1.0000
  H   H67       1.0  0.33915  0.06731  0.15758  1.0000
  C   C45       1.0  0.36605  0.08318  0.12329  1.0000
  H   H68       1.0  0.26427  0.02177  0.49646  1.0000
  H   H69       1.0  0.22117  0.18923  0.24433  1.0000
  H   H70       1.0  0.29421  0.99823  0.43808  1.0000
  H   H71       1.0  0.25435  0.01487  0.10035  1.0000
  H   H72       1.0  0.27869  0.02940  0.40813  1.0000
  H   H73       1.0  0.31085  0.99908  0.47992  1.0000
  H   H74       1.0  0.26019  0.00347  0.24138  1.0000
  H   H75       1.0  0.33916  0.12305  0.06631  1.0000
  C   C46       1.0  0.30272  0.00767  0.46437  1.0000
  H   H76       1.0  0.47128  0.99386  0.23061  1.0000
  H   H77       1.0  0.24304  0.99750  0.05909  1.0000
  C   C47       1.0  0.26922  0.01804  0.43051  1.0000
  H   H78       1.0  0.24802  0.09795  0.51287  1.0000
  C   C48       1.0  0.25969  0.10860  0.53364  1.0000
  H   H79       1.0  0.20193  0.19863  0.22854  1.0000
  C   C49       1.0  0.46100  0.99801  0.46647  1.0000
  H   H80       1.0  0.20696  0.22471  0.36419  1.0000
  H   H81       1.0  0.18766  0.23018  0.33700  1.0000
  H   H82       1.0  0.22902  0.23270  0.22285  1.0000
  C   C50       1.0  0.20843  0.22481  0.29431  1.0000
  C   C51       1.0  0.45515  0.01289  0.52977  1.0000
  C   C52       1.0  0.47462  0.02907  0.17190  1.0000
  H   H83       1.0  0.47452  0.02245  0.25235  1.0000
  Fe  Fe6       1.0  0.25798  0.05672  0.71931  1.0000
  S   S12       1.0  0.28326  0.08498  0.73688  1.0000
  S   S13       1.0  0.24193  0.03846  0.77582  1.0000
  Fe  Fe7       1.0  0.26432  0.06625  0.62438  1.0000
  S   S14       1.0  0.29030  0.09495  0.63503  1.0000
  Fe  Fe8       1.0  0.29965  0.07766  0.68441  1.0000
  S   S15       1.0  0.33035  0.07722  0.69673  1.0000
  Fe  Fe9       1.0  0.27147  0.09972  0.68666  1.0000
  S   S16       1.0  0.26387  0.12671  0.69772  1.0000
  S   S17       1.0  0.27525  0.04852  0.66971  1.0000
  S   S18       1.0  0.24465  0.07193  0.67296  1.0000
  C   C53       1.0  0.28037  0.03035  0.89933  1.0000
  H   H84       1.0  0.36463  0.06341  0.74910  1.0000
  S   S19       1.0  0.32069  0.21748  0.68889  1.0000
  H   H85       1.0  0.29456  0.03200  0.91644  1.0000
  H   H86       1.0  0.27438  0.16636  0.60920  1.0000
  C   C54       1.0  0.29040  0.16543  0.82476  1.0000
  C   C55       1.0  0.28228  0.02971  0.85096  1.0000
  S   S20       1.0  0.36210  0.02361  0.95171  1.0000
  C   C56       1.0  0.23520  0.01278  0.78180  1.0000
  H   H87       1.0  0.22270  0.01220  0.84338  1.0000
  H   H88       1.0  0.26789  0.02946  0.83670  1.0000
  H   H89       1.0  0.30701  0.01693  0.78742  1.0000
  H   H90       1.0  0.29067  0.21624  0.93436  1.0000
  H   H91       1.0  0.20930  0.09210  0.56591  1.0000
  C   C57       1.0  0.22592  0.00357  0.81925  1.0000
  H   H92       1.0  0.38119  0.05980  0.64287  1.0000
  N   N4        1.0  0.39964  0.05210  0.68927  1.0000
  C   C58       1.0  0.28571  0.17568  0.86338  1.0000
  H   H93       1.0  0.23489  0.17390  0.83915  1.0000
  H   H94       1.0  0.29918  0.18026  0.88480  1.0000
  C   C59       1.0  0.24587  0.17152  0.81785  1.0000
  H   H95       1.0  0.25449  0.18196  0.89797  1.0000
  H   H96       1.0  0.44334  0.08008  0.67067  1.0000
  C   C60       1.0  0.44526  0.01372  0.02321  1.0000
  C   C61       1.0  0.33644  0.06618  0.65335  1.0000
  C   C62       1.0  0.33708  0.04745  0.65726  1.0000
  C   C63       1.0  0.34304  0.03907  0.62305  1.0000
  C   C64       1.0  0.31474  0.08391  0.82516  1.0000
  C   C65       1.0  0.34746  0.06807  0.58107  1.0000
  C   C66       1.0  0.34124  0.07631  0.61502  1.0000
  H   H97       1.0  0.33313  0.03952  0.68680  1.0000
  H   H98       1.0  0.25129  0.14786  0.62535  1.0000
  H   H99       1.0  0.34061  0.09073  0.61185  1.0000
  C   C67       1.0  0.28034  0.15174  0.69668  1.0000
  C   C68       1.0  0.27243  0.16609  0.70523  1.0000
  C   C69       1.0  0.28462  0.18621  0.70282  1.0000
  C   C70       1.0  0.30495  0.19223  0.69229  1.0000
  C   C71       1.0  0.31292  0.17789  0.68391  1.0000
  C   C72       1.0  0.30067  0.15771  0.68605  1.0000
  H   H100      1.0  0.25666  0.16159  0.71298  1.0000
  H   H101      1.0  0.27819  0.19707  0.70853  1.0000
  H   H102      1.0  0.32862  0.18240  0.67561  1.0000
  H   H103      1.0  0.30692  0.14681  0.67922  1.0000
  H   H104      1.0  0.22682  0.07967  0.56396  1.0000
  S   S21       1.0  0.28391  0.23556  0.75454  1.0000
  H   H105      1.0  0.28275  0.01513  0.84432  1.0000
  H   H106      1.0  0.35157  0.05347  0.84249  1.0000
  C   C73       1.0  0.39853  0.03196  0.67682  1.0000
  C   C74       1.0  0.34842  0.99737  0.79297  1.0000
  H   H107      1.0  0.21542  0.08153  0.61224  1.0000
  C   C75       1.0  0.40695  0.06108  0.60952  1.0000
  C   C76       1.0  0.39736  0.06365  0.65102  1.0000
  H   H108      1.0  0.40931  0.03259  0.65170  1.0000
  H   H109      1.0  0.38340  0.02325  0.66282  1.0000
  H   H110      1.0  0.45079  0.06874  0.71527  1.0000
  C   C77       1.0  0.26761  0.13885  0.57612  1.0000
  H   H111      1.0  0.41914  0.05696  0.74504  1.0000
  H   H112      1.0  0.30360  0.16150  0.83252  1.0000
  H   H113      1.0  0.38353  0.04175  0.74796  1.0000
  Fe  Fe10      1.0  0.30964  0.24098  0.71040  1.0000
  H   H114      1.0  0.41839  0.02642  0.72522  1.0000
  H   H115      1.0  0.40330  0.07968  0.65783  1.0000
  N   N5        1.0  0.30006  0.04591  0.83159  1.0000
  C   C78       1.0  0.34329  0.00198  0.75237  1.0000
  C   C79       1.0  0.29853  0.04296  0.78445  1.0000
  C   C80       1.0  0.29794  0.06506  0.84121  1.0000
  C   C81       1.0  0.31932  0.04528  0.85055  1.0000
  C   C82       1.0  0.33838  0.05320  0.82314  1.0000
  C   C83       1.0  0.29699  0.02259  0.76924  1.0000
  C   C84       1.0  0.34861  0.04957  0.58517  1.0000
  Fe  Fe11      1.0  0.35691  0.00979  0.55143  1.0000
  H   H116      1.0  0.39191  0.01652  0.73860  1.0000
  S   S22       1.0  0.34184  0.00787  0.83714  1.0000
  H   H117      1.0  0.31151  0.05399  0.76817  1.0000
  H   H118      1.0  0.28509  0.04532  0.77129  1.0000
  H   H119      1.0  0.32880  0.08727  0.84414  1.0000
  Fe  Fe12      1.0  0.33533  0.00840  0.99281  1.0000
  H   H120      1.0  0.33567  0.01209  0.74861  1.0000
  H   H121      1.0  0.46096  0.02238  0.55669  1.0000
  H   H122      1.0  0.29757  0.06719  0.87575  1.0000
  C   C85       1.0  0.37869  0.06780  0.73067  1.0000
  C   C86       1.0  0.23934  0.00150  0.75088  1.0000
  C   C87       1.0  0.26079  0.15400  0.59752  1.0000
  S   S23       1.0  0.38285  0.00285  0.57716  1.0000
  H   H123      1.0  0.30267  0.03968  0.58823  1.0000
  H   H124      1.0  0.31740  0.02994  0.85909  1.0000
  Fe  Fe13      1.0  0.34717  0.99976  0.90447  1.0000
  C   C88       1.0  0.45926  0.00448  0.02749  1.0000
  N   N6        1.0  0.25095  0.12112  0.55757  1.0000
  C   C89       1.0  0.40277  0.01956  0.71255  1.0000
  H   H125      1.0  0.33725  0.04340  0.79613  1.0000
  H   H126      1.0  0.28120  0.01186  0.77130  1.0000
  H   H127      1.0  0.37645  0.07624  0.70317  1.0000
  H   H128      1.0  0.34404  0.02488  0.62659  1.0000
  S   S24       1.0  0.31584  0.02406  0.01823  1.0000
  H   H129      1.0  0.31782  0.08348  0.79118  1.0000
  H   H130      1.0  0.30994  0.09646  0.82936  1.0000
  H   H131      1.0  0.39108  0.07746  0.75121  1.0000
  H   H132      1.0  0.27776  0.15125  0.81808  1.0000
  H   H133      1.0  0.36771  0.03902  0.70293  1.0000
  H   H134      1.0  0.30460  0.20895  0.78173  1.0000
  C   C90       1.0  0.41878  0.06350  0.71331  1.0000
  C   C91       1.0  0.43877  0.06678  0.69108  1.0000
  H   H135      1.0  0.28327  0.06493  0.82831  1.0000
  C   C92       1.0  0.38205  0.04907  0.71791  1.0000
  H   H136      1.0  0.32308  0.05341  0.88093  1.0000
  H   H137      1.0  0.40121  0.00508  0.69957  1.0000
  H   H138      1.0  0.24815  0.15799  0.82741  1.0000
  H   H139      1.0  0.42309  0.06349  0.61301  1.0000
  H   H140      1.0  0.24648  0.00839  0.72195  1.0000
  H   H141      1.0  0.32026  0.20231  0.81975  1.0000
  H   H142      1.0  0.29417  0.17418  0.79538  1.0000
  H   H143      1.0  0.39849  0.04639  0.59570  1.0000
  H   H144      1.0  0.30119  0.02356  0.73548  1.0000
  H   H145      1.0  0.34183  0.06824  0.81105  1.0000
  H   H146      1.0  0.28713  0.19066  0.94273  1.0000
  H   H147      1.0  0.27355  0.16396  0.88076  1.0000
  H   H148      1.0  0.41940  0.07845  0.72081  1.0000
  Fe  Fe14      1.0  0.37560  0.00289  0.98012  1.0000
  H   H149      1.0  0.43832  0.05407  0.67225  1.0000
  N   N7        1.0  0.27949  0.19282  0.85448  1.0000
  C   C93       1.0  0.26791  0.19556  0.89169  1.0000
  C   C94       1.0  0.26577  0.18972  0.81629  1.0000
  C   C95       1.0  0.29767  0.21161  0.84890  1.0000
  C   C96       1.0  0.27957  0.20086  0.93414  1.0000
  C   C97       1.0  0.31212  0.21220  0.81305  1.0000
  H   H150      1.0  0.26190  0.20725  0.88486  1.0000
  H   H151      1.0  0.27333  0.18869  0.78691  1.0000
  H   H152      1.0  0.26159  0.20272  0.81117  1.0000
  H   H153      1.0  0.29277  0.22415  0.84391  1.0000
  H   H154      1.0  0.30741  0.21518  0.87772  1.0000
  H   H155      1.0  0.26876  0.19992  0.95958  1.0000
  H   H156      1.0  0.23877  0.16894  0.78586  1.0000
  H   H157      1.0  0.32380  0.22731  0.81091  1.0000
  H   H158      1.0  0.27513  0.04207  0.90883  1.0000
  H   H159      1.0  0.23249  0.11735  0.61337  1.0000
  S   S25       1.0  0.40858  0.01584  0.00264  1.0000
  H   H160      1.0  0.40577  0.07192  0.58598  1.0000
  C   C98       1.0  0.42557  0.00343  0.00749  1.0000
  H   H161      1.0  0.26465  0.09938  0.55585  1.0000
  H   H162      1.0  0.27664  0.13414  0.59973  1.0000
  H   H163      1.0  0.34391  0.99713  0.68538  1.0000
  H   H164      1.0  0.27869  0.14725  0.55221  1.0000
  H   H165      1.0  0.25280  0.16037  0.57526  1.0000
  H   H166      1.0  0.24965  0.10527  0.61613  1.0000
  H   H167      1.0  0.28467  0.01515  0.58915  1.0000
  C   C99       1.0  0.23931  0.10900  0.59416  1.0000
  H   H168      1.0  0.35161  0.07616  0.55172  1.0000
  S   S26       1.0  0.25055  0.05546  0.55992  1.0000
  C   C100      1.0  0.22181  0.08955  0.58268  1.0000
  C   C101      1.0  0.29147  0.02818  0.56844  1.0000
  H   H169      1.0  0.27988  0.03396  0.55848  1.0000
  H   H170      1.0  0.26866  0.01626  0.91000  1.0000
  H   H171      1.0  0.22683  0.13208  0.54911  1.0000
  H   H172      1.0  0.20598  0.23858  0.99918  1.0000
  H   H173      1.0  0.42392  0.00524  0.54638  1.0000
  H   H174      1.0  0.29328  0.07701  0.54246  1.0000
  H   H175      1.0  0.31227  0.01628  0.54375  1.0000
  S   S27       1.0  0.35798  0.04042  0.54320  1.0000
  H   H176      1.0  0.24604  0.23939  0.92012  1.0000
  H   H177      1.0  0.36641  0.24260  0.70255  1.0000
  H   H178      1.0  0.44971  0.02895  0.03208  1.0000
  S   S28       1.0  0.25289  0.24038  0.01016  1.0000
  H   H179      1.0  0.26594  0.99499  0.53957  1.0000
  C   C102      1.0  0.34791  0.99351  0.71650  1.0000
  Fe  Fe15      1.0  0.37965  0.40629  0.40191  1.0000
  S   S29       1.0  0.38019  0.43490  0.42783  1.0000
  S   S30       1.0  0.39090  0.40262  0.33730  1.0000
  Fe  Fe16      1.0  0.36179  0.38288  0.48262  1.0000
  C   C103      1.0  0.97855  0.35762  0.37483  1.0000
  C   C104      1.0  0.21089  0.27040  0.23506  1.0000
  Fe  Fe17      1.0  0.34959  0.41632  0.45292  1.0000
  S   S31       1.0  0.32184  0.42363  0.45561  1.0000
  Fe  Fe18      1.0  0.39224  0.42605  0.48731  1.0000
  H   H180      1.0  0.28602  0.39720  0.17263  1.0000
  S   S32       1.0  0.34814  0.38865  0.42218  1.0000
  S   S33       1.0  0.39366  0.39835  0.46000  1.0000
  C   C105      1.0  0.29117  0.35337  0.45134  1.0000
  S   S34       1.0  0.34261  0.37955  0.07909  1.0000
  S   S35       1.0  0.97838  0.26326  0.26738  1.0000
  C   C106      1.0  0.38144  0.46964  0.09533  1.0000
  S   S36       1.0  0.38711  0.36319  0.05422  1.0000
  Fe  Fe19      1.0  0.35638  0.40986  0.10539  1.0000
  S   S37       1.0  0.34806  0.41676  0.17013  1.0000
  H   H181      1.0  0.07689  0.33163  0.09786  1.0000
  S   S38       1.0  0.38762  0.41506  0.08370  1.0000
  H   H182      1.0  0.41977  0.45166  0.21547  1.0000
  Fe  Fe20      1.0  0.99702  0.29561  0.26736  1.0000
  S   S39       1.0  0.98713  0.31852  0.24010  1.0000
  H   H183      1.0  0.39063  0.45142  0.23482  1.0000
  Fe  Fe21      1.0  0.03754  0.32511  0.29840  1.0000
  S   S40       1.0  0.03077  0.35103  0.27352  1.0000
  S   S41       1.0  0.06255  0.32249  0.34097  1.0000
  Fe  Fe22      1.0  0.99957  0.33551  0.29938  1.0000
  H   H184      1.0  0.27354  0.24320  0.29036  1.0000
  Fe  Fe23      1.0  0.01855  0.33225  0.21583  1.0000
  S   S42       1.0  0.02111  0.34525  0.14993  1.0000
  S   S43       1.0  0.00700  0.31118  0.32876  1.0000
  S   S44       1.0  0.02772  0.30770  0.23844  1.0000
  Fe  Fe24      1.0  0.18011  0.33892  0.36111  1.0000
  S   S45       1.0  0.17310  0.30849  0.38767  1.0000
  S   S46       1.0  0.15859  0.35235  0.33313  1.0000
  Fe  Fe25      1.0  0.22559  0.34785  0.35834  1.0000
  S   S47       1.0  0.22176  0.31835  0.38463  1.0000
  S   S48       1.0  0.25641  0.36583  0.33283  1.0000
  Fe  Fe26      1.0  0.19531  0.30639  0.34056  1.0000
  S   S49       1.0  0.19024  0.28070  0.29699  1.0000
  Fe  Fe27      1.0  0.20035  0.32315  0.43004  1.0000
  S   S50       1.0  0.20513  0.31256  0.49562  1.0000
  S   S51       1.0  0.20044  0.33552  0.31117  1.0000
  S   S52       1.0  0.20613  0.35392  0.40665  1.0000
  Fe  Fe28      1.0  0.30835  0.26021  0.11972  1.0000
  S   S53       1.0  0.34205  0.27514  0.11443  1.0000
  S   S54       1.0  0.28770  0.27448  0.09597  1.0000
  C   C107      1.0  0.21190  0.28350  0.26771  1.0000
  C   C108      1.0  0.23035  0.29856  0.27735  1.0000
  C   C109      1.0  0.24775  0.30025  0.25542  1.0000
  C   C110      1.0  0.24688  0.28708  0.22320  1.0000
  H   H185      1.0  0.23131  0.30889  0.30200  1.0000
  H   H186      1.0  0.26196  0.31167  0.26405  1.0000
  C   C111      1.0  0.13185  0.34347  0.33519  1.0000
  C   C112      1.0  0.12104  0.33058  0.36681  1.0000
  C   C113      1.0  0.09985  0.32432  0.36789  1.0000
  C   C114      1.0  0.08919  0.33068  0.33721  1.0000
  C   C115      1.0  0.09998  0.34340  0.30527  1.0000
  C   C116      1.0  0.12121  0.34988  0.30453  1.0000
  H   H187      1.0  0.12904  0.32586  0.39107  1.0000
  H   H188      1.0  0.09165  0.31463  0.39295  1.0000
  H   H189      1.0  0.09201  0.34854  0.28170  1.0000
  H   H190      1.0  0.12948  0.36001  0.28020  1.0000
  C   C117      1.0  0.39243  0.48816  0.51522  1.0000
  C   C118      1.0  0.99462  0.36683  0.44371  1.0000
  C   C119      1.0  0.99421  0.35905  0.40318  1.0000
  H   H191      1.0  0.13699  0.26785  0.32214  1.0000
  C   C120      1.0  0.98207  0.36473  0.18756  1.0000
  H   H192      1.0  0.10722  0.29920  0.30909  1.0000
  H   H193      1.0  0.00691  0.36808  0.46536  1.0000
  H   H194      1.0  0.00614  0.35438  0.39373  1.0000
  H   H195      1.0  0.25584  0.37176  0.18779  1.0000
  H   H196      1.0  0.12985  0.29382  0.36741  1.0000
  H   H197      1.0  0.10501  0.33756  0.06745  1.0000
  C   C121      1.0  0.45567  0.48112  0.04515  1.0000
  C   C122      1.0  0.25727  0.35002  0.47318  1.0000
  C   C123      1.0  0.42566  0.49131  0.17497  1.0000
  C   C124      1.0  0.35323  0.29942  0.09552  1.0000
  C   C125      1.0  0.34253  0.31185  0.09071  1.0000
  C   C126      1.0  0.35257  0.33148  0.07736  1.0000
  H   H198      1.0  0.99012  0.37143  0.15847  1.0000
  H   H199      1.0  0.05294  0.30743  0.05589  1.0000
  H   H200      1.0  0.32668  0.30645  0.09787  1.0000
  H   H201      1.0  0.34431  0.34099  0.07369  1.0000
  C   C127      1.0  0.00421  0.42200  0.32720  1.0000
  S   S55       1.0  0.29463  0.25315  0.18367  1.0000
  C   C128      1.0  0.38378  0.32611  0.07341  1.0000
  C   C129      1.0  0.00854  0.29689  0.07726  1.0000
  C   C130      1.0  0.01245  0.30931  0.11240  1.0000
  C   C131      1.0  0.01404  0.32873  0.10731  1.0000
  C   C132      1.0  0.01123  0.33549  0.06704  1.0000
  H   H202      1.0  0.21232  0.24862  0.33994  1.0000
  H   H203      1.0  0.00800  0.28208  0.08127  1.0000
  H   H204      1.0  0.01480  0.30401  0.14322  1.0000
  H   H205      1.0  0.01261  0.35055  0.06275  1.0000
  C   C133      1.0  0.26563  0.25314  0.28293  1.0000
  C   C134      1.0  0.30343  0.40951  0.41916  1.0000
  C   C135      1.0  0.30920  0.40266  0.38270  1.0000
  C   C136      1.0  0.29455  0.38984  0.35567  1.0000
  C   C137      1.0  0.27404  0.38356  0.36522  1.0000
  C   C138      1.0  0.26816  0.39108  0.40069  1.0000
  C   C139      1.0  0.28286  0.40416  0.42755  1.0000
  H   H206      1.0  0.32499  0.40727  0.37524  1.0000
  H   H207      1.0  0.29918  0.38453  0.32774  1.0000
  H   H208      1.0  0.25230  0.38664  0.40766  1.0000
  H   H209      1.0  0.27831  0.40967  0.45540  1.0000
  H   H210      1.0  0.26539  0.25543  0.24835  1.0000
  C   C140      1.0  0.00112  0.41976  0.37537  1.0000
  H   H211      1.0  0.42724  0.47131  0.45585  1.0000
  C   C141      1.0  0.37896  0.40693  0.29128  1.0000
  C   C142      1.0  0.36140  0.41093  0.29314  1.0000
  C   C143      1.0  0.35209  0.41393  0.25572  1.0000
  C   C144      1.0  0.36012  0.41276  0.21626  1.0000
  C   C145      1.0  0.37770  0.40883  0.21439  1.0000
  C   C146      1.0  0.38713  0.40603  0.25181  1.0000
  H   H212      1.0  0.35503  0.41173  0.32342  1.0000
  H   H213      1.0  0.33857  0.41715  0.25744  1.0000
  H   H214      1.0  0.38411  0.40805  0.18417  1.0000
  H   H215      1.0  0.40081  0.40311  0.25025  1.0000
  C   C147      1.0  0.14193  0.26584  0.23694  1.0000
  H   H216      1.0  0.43050  0.45313  0.04971  1.0000
  H   H217      1.0  0.02207  0.44587  0.46745  1.0000
  C   C148      1.0  0.07107  0.34342  0.09224  1.0000
  H   H218      1.0  0.30844  0.38710  0.21028  1.0000
  H   H219      1.0  0.98007  0.41419  0.44643  1.0000
  C   C149      1.0  0.00668  0.47146  0.41264  1.0000
  H   H220      1.0  0.23040  0.35583  0.48692  1.0000
  N   N8        1.0  0.99429  0.43448  0.39598  1.0000
  H   H221      1.0  0.00005  0.44750  0.05039  1.0000
  C   C150      1.0  0.40897  0.45619  0.15129  1.0000
  Fe  Fe29      1.0  0.26815  0.24422  0.07447  1.0000
  C   C151      1.0  0.30062  0.34811  0.22419  1.0000
  H   H222      1.0  0.44583  0.48560  0.12930  1.0000
  H   H223      1.0  0.11718  0.31838  0.24436  1.0000
  H   H224      1.0  0.27479  0.26770  0.29665  1.0000
  H   H225      1.0  0.36158  0.49255  0.45014  1.0000
  H   H226      1.0  0.00045  0.40723  0.31310  1.0000
  H   H227      1.0  0.26604  0.34803  0.14808  1.0000
  C   C152      1.0  0.29016  0.33903  0.13278  1.0000
  N   N9        1.0  0.36391  0.33675  0.22130  1.0000
  C   C153      1.0  0.37275  0.33681  0.26483  1.0000
  C   C154      1.0  0.37706  0.33231  0.18975  1.0000
  C   C155      1.0  0.34284  0.32132  0.21739  1.0000
  C   C156      1.0  0.36301  0.35661  0.21308  1.0000
  C   C157      1.0  0.36016  0.33932  0.30171  1.0000
  C   C158      1.0  0.39873  0.34774  0.18557  1.0000
  C   C159      1.0  0.34037  0.30024  0.23014  1.0000
  C   C160      1.0  0.35700  0.36032  0.16783  1.0000
  H   H228      1.0  0.37580  0.32324  0.27063  1.0000
  H   H229      1.0  0.38773  0.34908  0.26800  1.0000
  H   H230      1.0  0.36993  0.33016  0.15794  1.0000
  H   H231      1.0  0.37864  0.31816  0.19743  1.0000
  H   H232      1.0  0.33196  0.32535  0.23593  1.0000
  H   H233      1.0  0.33721  0.32020  0.18420  1.0000
  H   H234      1.0  0.35201  0.35913  0.23419  1.0000
  H   H235      1.0  0.37774  0.36852  0.22078  1.0000
  H   H236      1.0  0.35911  0.35400  0.30116  1.0000
  H   H237      1.0  0.34486  0.32763  0.30271  1.0000
  H   H238      1.0  0.36789  0.33844  0.33192  1.0000
  H   H239      1.0  0.40642  0.34296  0.16036  1.0000
  H   H240      1.0  0.39910  0.36239  0.17590  1.0000
  H   H241      1.0  0.40777  0.34901  0.21491  1.0000
  H   H242      1.0  0.34879  0.29421  0.20906  1.0000
  H   H243      1.0  0.32419  0.29053  0.22668  1.0000
  H   H244      1.0  0.34470  0.29910  0.26348  1.0000
  H   H245      1.0  0.36874  0.36113  0.14477  1.0000
  H   H246      1.0  0.35544  0.37475  0.16683  1.0000
  H   H247      1.0  0.34231  0.34925  0.15742  1.0000
  S   S56       1.0  0.34769  0.42336  0.04820  1.0000
  H   H248      1.0  0.39398  0.44385  0.15252  1.0000
  H   H249      1.0  0.28034  0.32935  0.10795  1.0000
  C   C161      1.0  0.99114  0.42944  0.44221  1.0000
  C   C162      1.0  0.40161  0.48275  0.11616  1.0000
  H   H250      1.0  0.10357  0.27767  0.36336  1.0000
  H   H251      1.0  0.38661  0.48686  0.18877  1.0000
  H   H252      1.0  0.26755  0.34675  0.25375  1.0000
  H   H253      1.0  0.05004  0.36142  0.05841  1.0000
  H   H254      1.0  0.28030  0.37841  0.13258  1.0000
  H   H255      1.0  0.10375  0.29669  0.21240  1.0000
  H   H256      1.0  0.19096  0.34383  0.51475  1.0000
  H   H257      1.0  0.30398  0.39771  0.13316  1.0000
  H   H258      1.0  0.24292  0.34592  0.20036  1.0000
  C   C163      1.0  0.28267  0.33769  0.41658  1.0000
  H   H259      1.0  0.97944  0.25010  0.12897  1.0000
  H   H260      1.0  0.24490  0.36425  0.23824  1.0000
  H   H261      1.0  0.28002  0.37268  0.25110  1.0000
  H   H262      1.0  0.43924  0.46018  0.17655  1.0000
  C   C164      1.0  0.27275  0.35937  0.23122  1.0000
  H   H263      1.0  0.28098  0.32286  0.42794  1.0000
  H   H264      1.0  0.26818  0.33726  0.40284  1.0000
  H   H265      1.0  0.00596  0.42757  0.50163  1.0000
  C   C165      1.0  0.31019  0.35799  0.26625  1.0000
  H   H266      1.0  0.46528  0.47676  0.06627  1.0000
  S   S57       1.0  0.98065  0.38332  0.50688  1.0000
  N   N10       1.0  0.12501  0.28465  0.28041  1.0000
  C   C166      1.0  0.12310  0.27112  0.31782  1.0000
  C   C167      1.0  0.12432  0.27287  0.24136  1.0000
  C   C168      1.0  0.10705  0.29064  0.28039  1.0000
  C   C169      1.0  0.14456  0.30219  0.28531  1.0000
  C   C170      1.0  0.11936  0.27859  0.36095  1.0000
  H   H267      1.0  0.23809  0.25722  0.28986  1.0000
  C   C171      1.0  0.10495  0.30361  0.24363  1.0000
  C   C172      1.0  0.15286  0.31512  0.24575  1.0000
  H   H268      1.0  0.09277  0.27738  0.28141  1.0000
  H   H269      1.0  0.28859  0.38272  0.49788  1.0000
  H   H270      1.0  0.12392  0.28096  0.21202  1.0000
  H   H271      1.0  0.12166  0.26913  0.38645  1.0000
  Fe  Fe30      1.0  0.37291  0.38566  0.05232  1.0000
  H   H272      1.0  0.42153  0.43549  0.17584  1.0000
  H   H273      1.0  0.14321  0.31197  0.31044  1.0000
  H   H274      1.0  0.15682  0.29749  0.29684  1.0000
  H   H275      1.0  0.01162  0.45867  0.35555  1.0000
  H   H276      1.0  0.40579  0.47676  0.24907  1.0000
  C   C173      1.0  0.01015  0.43094  0.46809  1.0000
  C   C174      1.0  0.37332  0.33866  0.06907  1.0000
  H   H277      1.0  0.07454  0.38004  0.06027  1.0000
  H   H278      1.0  0.01588  0.42066  0.38886  1.0000
  C   C175      1.0  0.30146  0.37682  0.18385  1.0000
  H   H279      1.0  0.38220  0.29718  0.09043  1.0000
  H   H280      1.0  0.30594  0.35281  0.46108  1.0000
  H   H281      1.0  0.15530  0.33063  0.25282  1.0000
  H   H282      1.0  0.14325  0.31104  0.21716  1.0000
  H   H283      1.0  0.16790  0.31508  0.23785  1.0000
  H   H284      1.0  0.37632  0.47840  0.43526  1.0000
  H   H285      1.0  0.19656  0.25893  0.22693  1.0000
  N   N11       1.0  0.27786  0.35131  0.48898  1.0000
  C   C176      1.0  0.25314  0.36044  0.21260  1.0000
  H   H286      1.0  0.98423  0.43876  0.45796  1.0000
  H   H287      1.0  0.97753  0.37557  0.20419  1.0000
  H   H288      1.0  0.29860  0.35628  0.29036  1.0000
  H   H289      1.0  0.39976  0.33150  0.06696  1.0000
  C   C177      1.0  0.35794  0.46690  0.49159  1.0000
  H   H290      1.0  0.31477  0.37590  0.16778  1.0000
  H   H291      1.0  0.99314  0.36165  0.20857  1.0000
  H   H292      1.0  0.26692  0.32865  0.17968  1.0000
  H   H293      1.0  0.99230  0.47271  0.40263  1.0000
  H   H294      1.0  0.98490  0.35610  0.09920  1.0000
  H   H295      1.0  0.38084  0.47472  0.06236  1.0000
  H   H296      1.0  0.29472  0.36796  0.43596  1.0000
  H   H297      1.0  0.07335  0.36978  0.12802  1.0000
  H   H298      1.0  0.31333  0.34824  0.20444  1.0000
  H   H299      1.0  0.37520  0.46152  0.17560  1.0000
  C   C178      1.0  0.08065  0.35893  0.12673  1.0000
  N   N12       1.0  0.28767  0.35711  0.20061  1.0000
  H   H300      1.0  0.02486  0.46557  0.05785  1.0000
  C   C179      1.0  0.42318  0.45087  0.18189  1.0000
  C   C180      1.0  0.24576  0.35946  0.50055  1.0000
  H   H301      1.0  0.41466  0.45549  0.11913  1.0000
  H   H302      1.0  0.37900  0.46732  0.25170  1.0000
  C   C181      1.0  0.37383  0.30666  0.08673  1.0000
  C   C182      1.0  0.29208  0.38794  0.15427  1.0000
  H   H303      1.0  0.25831  0.35730  0.44198  1.0000
  H   H304      1.0  0.02543  0.45511  0.39924  1.0000
  C   C183      1.0  0.06506  0.36643  0.04326  1.0000
  H   H305      1.0  0.29356  0.34146  0.39027  1.0000
  C   C184      1.0  0.27614  0.33280  0.51231  1.0000
  H   H306      1.0  0.02014  0.43129  0.31999  1.0000
  H   H307      1.0  0.24707  0.33448  0.46746  1.0000
  H   H308      1.0  0.26848  0.31969  0.49224  1.0000
  N   N13       1.0  0.40668  0.47554  0.15801  1.0000
  H   H309      1.0  0.31979  0.37375  0.26226  1.0000
  H   H310      1.0  0.30009  0.35269  0.11688  1.0000
  H   H311      1.0  0.41335  0.48414  0.09242  1.0000
  H   H312      1.0  0.09717  0.36649  0.12300  1.0000
  H   H313      1.0  0.32003  0.35066  0.27930  1.0000
  C   C185      1.0  0.27669  0.34306  0.16589  1.0000
  H   H314      1.0  0.29178  0.33235  0.23147  1.0000
  H   H315      1.0  0.09071  0.30611  0.24772  1.0000
  H   H316      1.0  0.29921  0.33103  0.14652  1.0000
  S   S58       1.0  0.26931  0.29002  0.19685  1.0000
  C   C186      1.0  0.38950  0.47302  0.18739  1.0000
  C   C187      1.0  0.97942  0.37323  0.45612  1.0000
  C   C188      1.0  0.43667  0.47929  0.48185  1.0000
  H   H317      1.0  0.11001  0.25964  0.24007  1.0000
  Fe  Fe31      1.0  0.27256  0.26564  0.15837  1.0000
  C   C189      1.0  0.22836  0.27218  0.21276  1.0000
  H   H318      1.0  0.22748  0.26221  0.18734  1.0000
  C   C190      1.0  0.39182  0.46686  0.23314  1.0000
  H   H319      1.0  0.11054  0.25663  0.31269  1.0000
  C   C191      1.0  0.01024  0.45469  0.38966  1.0000
  H   H320      1.0  0.01626  0.41990  0.45820  1.0000
  H   H321      1.0  0.99093  0.40439  0.38265  1.0000
  S   S59       1.0  0.34455  0.35129  0.50371  1.0000
  H   H322      1.0  0.36829  0.47066  0.11162  1.0000
  H   H323      1.0  0.15677  0.27827  0.23676  1.0000
  H   H324      1.0  0.37993  0.45414  0.09383  1.0000
  H   H325      1.0  0.35981  0.45281  0.48563  1.0000
  H   H326      1.0  0.07816  0.35145  0.15798  1.0000
  H   H327      1.0  0.32019  0.37683  0.50658  1.0000
  H   H328      1.0  0.99431  0.42837  0.31096  1.0000
  H   H329      1.0  0.01901  0.48564  0.40479  1.0000
  H   H330      1.0  0.00693  0.46981  0.44744  1.0000
  H   H331      1.0  0.05467  0.33639  0.09900  1.0000
  H   H332      1.0  0.43091  0.48668  0.20481  1.0000
  H   H333      1.0  0.34163  0.46277  0.49839  1.0000
  H   H334      1.0  0.10392  0.37404  0.05399  1.0000
  H   H335      1.0  0.25316  0.37572  0.50018  1.0000
  H   H336      1.0  0.29135  0.33266  0.51962  1.0000
  C   C192      1.0  0.43451  0.47052  0.52180  1.0000
  H   H337      1.0  0.12472  0.35697  0.04393  1.0000
  S   S60       1.0  0.97783  0.34889  0.32294  1.0000
  C   C193      1.0  0.28769  0.36934  0.51594  1.0000
  H   H338      1.0  0.00010  0.48110  0.06633  1.0000
  S   S61       1.0  0.36139  0.40972  0.51462  1.0000
  H   H339      1.0  0.39834  0.47763  0.50124  1.0000
  C   C194      1.0  0.24415  0.24606  0.30081  1.0000
  H   H340      1.0  0.97693  0.44215  0.34659  1.0000
  H   H341      1.0  0.34976  0.46908  0.42601  1.0000
  H   H342      1.0  0.24575  0.24769  0.33572  1.0000
  H   H343      1.0  0.14197  0.25522  0.26198  1.0000
  N   N14       1.0  0.07399  0.35086  0.04733  1.0000
  C   C195      1.0  0.10856  0.34735  0.03959  1.0000
  C   C196      1.0  0.36184  0.47767  0.44867  1.0000
  H   H344      1.0  0.14032  0.25813  0.20637  1.0000
  N   N15       1.0  0.37093  0.47734  0.52876  1.0000
  S   S62       1.0  0.41601  0.44677  0.53220  1.0000
  C   C197      1.0  0.30920  0.37312  0.53255  1.0000
  H   H345      1.0  0.24388  0.35406  0.53350  1.0000
  H   H346      1.0  0.20449  0.27229  0.90943  1.0000
  S   S63       1.0  0.29551  0.28356  0.75213  1.0000
  N   N16       1.0  0.36891  0.27904  0.62665  1.0000
  Fe  Fe32      1.0  0.32019  0.28589  0.70760  1.0000
  S   S64       1.0  0.34089  0.31679  0.68908  1.0000
  H   H347      1.0  0.35617  0.29598  0.58709  1.0000
  H   H348      1.0  0.00524  0.42895  0.83653  1.0000
  Fe  Fe33      1.0  0.02692  0.34093  0.88540  1.0000
  S   S65       1.0  0.99512  0.32265  0.90306  1.0000
  S   S66       1.0  0.04323  0.37348  0.89317  1.0000
  Fe  Fe34      1.0  0.03573  0.30636  0.85387  1.0000
  S   S67       1.0  0.00422  0.28474  0.86858  1.0000
  S   S68       1.0  0.06021  0.29759  0.82611  1.0000
  Fe  Fe35      1.0  0.99322  0.30736  0.84097  1.0000
  Fe  Fe36      1.0  0.00834  0.30168  0.92924  1.0000
  H   H349      1.0  0.25542  0.28181  0.95012  1.0000
  S   S69       1.0  0.02440  0.32758  0.82143  1.0000
  S   S70       1.0  0.04038  0.32121  0.91646  1.0000
  H   H350      1.0  0.39933  0.26161  0.62000  1.0000
  H   H351      1.0  0.37358  0.26450  0.57112  1.0000
  H   H352      1.0  0.31904  0.31492  0.54061  1.0000
  Fe  Fe37      1.0  0.19828  0.31021  0.80404  1.0000
  S   S71       1.0  0.22133  0.33046  0.76066  1.0000
  S   S72       1.0  0.20072  0.28194  0.82383  1.0000
  Fe  Fe38      1.0  0.17909  0.33916  0.82273  1.0000
  S   S73       1.0  0.20168  0.36244  0.78279  1.0000
  S   S74       1.0  0.15449  0.34590  0.85599  1.0000
  Fe  Fe39      1.0  0.19603  0.33844  0.73527  1.0000
  S   S75       1.0  0.19099  0.34786  0.66888  1.0000
  Fe  Fe40      1.0  0.22545  0.35276  0.81127  1.0000
  S   S76       1.0  0.25828  0.37276  0.82367  1.0000
  S   S77       1.0  0.17220  0.31561  0.77390  1.0000
  S   S78       1.0  0.20356  0.33197  0.85615  1.0000
  H   H353      1.0  0.26535  0.29703  0.88151  1.0000
  C   C198      1.0  0.97806  0.47565  0.92421  1.0000
  C   C199      1.0  0.19527  0.33787  0.62127  1.0000
  C   C200      1.0  0.20241  0.32263  0.62074  1.0000
  C   C201      1.0  0.20533  0.31501  0.58196  1.0000
  H   H354      1.0  0.26738  0.31043  0.98817  1.0000
  H   H355      1.0  0.03713  0.39661  0.76598  1.0000
  C   C202      1.0  0.19127  0.34551  0.58284  1.0000
  H   H356      1.0  0.20545  0.31658  0.65013  1.0000
  H   H357      1.0  0.21064  0.30307  0.58173  1.0000
  H   H358      1.0  0.23003  0.26421  0.83152  1.0000
  H   H359      1.0  0.18579  0.35733  0.58302  1.0000
  C   C203      1.0  0.33640  0.26600  0.58021  1.0000
  H   H360      1.0  0.38911  0.26120  0.68406  1.0000
  C   C204      1.0  0.24335  0.28388  0.93037  1.0000
  C   C205      1.0  0.03798  0.40699  0.91311  1.0000
  S   S79       1.0  0.99268  0.42186  0.95274  1.0000
  C   C206      1.0  0.29242  0.37373  0.94859  1.0000
  C   C207      1.0  0.30171  0.38678  0.91593  1.0000
  C   C208      1.0  0.29107  0.38630  0.87781  1.0000
  C   C209      1.0  0.27109  0.37286  0.87209  1.0000
  C   C210      1.0  0.26188  0.35976  0.90472  1.0000
  C   C211      1.0  0.27251  0.36025  0.94274  1.0000
  H   H361      1.0  0.31703  0.39724  0.92002  1.0000
  H   H362      1.0  0.29829  0.39653  0.85276  1.0000
  H   H363      1.0  0.24650  0.34942  0.90078  1.0000
  H   H364      1.0  0.26519  0.35033  0.96806  1.0000
  C   C212      1.0  0.08627  0.31072  0.83692  1.0000
  C   C213      1.0  0.10035  0.30312  0.82287  1.0000
  C   C214      1.0  0.12124  0.31353  0.82918  1.0000
  C   C215      1.0  0.12830  0.33175  0.84941  1.0000
  C   C216      1.0  0.11421  0.33923  0.86395  1.0000
  C   C217      1.0  0.09331  0.32880  0.85772  1.0000
  H   H365      1.0  0.09506  0.28911  0.80693  1.0000
  H   H366      1.0  0.13185  0.30744  0.81834  1.0000
  H   H367      1.0  0.11950  0.35331  0.87959  1.0000
  H   H368      1.0  0.08267  0.33489  0.86843  1.0000
  C   C218      1.0  0.00712  0.40810  0.94073  1.0000
  H   H369      1.0  0.31269  0.33562  0.86121  1.0000
  C   C219      1.0  0.23454  0.26271  0.72512  1.0000
  H   H370      1.0  0.45975  0.47007  0.85403  1.0000
  C   C220      1.0  0.22758  0.26629  0.79840  1.0000
  C   C221      1.0  0.21384  0.27475  0.78583  1.0000
  C   C222      1.0  0.21068  0.27748  0.74300  1.0000
  C   C223      1.0  0.22074  0.27109  0.71260  1.0000
  H   H371      1.0  0.34562  0.25764  0.66434  1.0000
  H   H372      1.0  0.23681  0.27022  0.91141  1.0000
  H   H373      1.0  0.20001  0.28396  0.73328  1.0000
  C   C224      1.0  0.43088  0.49196  0.99026  1.0000
  C   C225      1.0  0.00578  0.30365  0.03698  1.0000
  S   S80       1.0  0.30135  0.26098  0.66614  1.0000
  H   H374      1.0  0.21563  0.24491  0.94739  1.0000
  C   C226      1.0  0.34021  0.32689  0.63852  1.0000
  C   C227      1.0  0.32732  0.31589  0.60654  1.0000
  H   H375      1.0  0.09969  0.34726  0.64021  1.0000
  C   C228      1.0  0.98103  0.39938  0.83103  1.0000
  C   C229      1.0  0.35473  0.35408  0.58879  1.0000
  C   C230      1.0  0.35364  0.34612  0.62969  1.0000
  H   H376      1.0  0.31671  0.30117  0.61307  1.0000
  H   H377      1.0  0.33215  0.36174  0.93900  1.0000
  C   C231      1.0  0.26216  0.24521  0.92597  1.0000
  H   H378      1.0  0.36363  0.35474  0.65432  1.0000
  C   C232      1.0  0.02961  0.38646  0.91439  1.0000
  C   C233      1.0  0.01031  0.37677  0.93072  1.0000
  H   H379      1.0  0.36987  0.29687  0.68100  1.0000
  H   H380      1.0  0.00398  0.36098  0.93289  1.0000
  N   N17       1.0  0.33113  0.33194  0.94148  1.0000
  H   H381      1.0  0.31416  0.38612  0.55355  1.0000
  C   C234      1.0  0.33168  0.34986  0.91695  1.0000
  C   C235      1.0  0.35072  0.33687  0.96591  1.0000
  C   C236      1.0  0.32665  0.31406  0.91423  1.0000
  S   S81       1.0  0.00034  0.28754  0.99374  1.0000
  H   H382      1.0  0.21785  0.27269  0.67943  1.0000
  C   C237      1.0  0.36995  0.34056  0.94053  1.0000
  C   C238      1.0  0.33834  0.31683  0.87244  1.0000
  H   H383      1.0  0.29639  0.25553  0.00689  1.0000
  C   C239      1.0  0.31474  0.32772  0.97388  1.0000
  H   H384      1.0  0.34568  0.35659  0.89874  1.0000
  H   H385      1.0  0.00705  0.39775  0.71080  1.0000
  H   H386      1.0  0.34215  0.28563  0.63303  1.0000
  H   H387      1.0  0.34990  0.32493  0.98837  1.0000
  H   H388      1.0  0.32950  0.30230  0.93244  1.0000
  H   H389      1.0  0.44896  0.45421  0.92468  1.0000
  C   C240      1.0  0.36077  0.26001  0.65160  1.0000
  Fe  Fe41      1.0  0.33643  0.39317  0.01939  1.0000
  H   H390      1.0  0.37296  0.35237  0.91665  1.0000
  C   C241      1.0  0.40190  0.27568  0.60355  1.0000
  Fe  Fe42      1.0  0.30486  0.26225  0.78905  1.0000
  H   H391      1.0  0.40005  0.31736  0.61002  1.0000
  H   H392      1.0  0.36976  0.32686  0.92608  1.0000
  H   H393      1.0  0.97694  0.34333  0.83428  1.0000
  C   C242      1.0  0.38186  0.27753  0.59098  1.0000
  H   H394      1.0  0.34751  0.30756  0.87280  1.0000
  H   H395      1.0  0.34851  0.33205  0.86529  1.0000
  H   H396      1.0  0.32755  0.31159  0.84547  1.0000
  H   H397      1.0  0.00709  0.48911  0.95481  1.0000
  C   C243      1.0  0.99901  0.38759  0.94373  1.0000
  H   H398      1.0  0.34184  0.45473  0.59223  1.0000
  H   H399      1.0  0.03311  0.43367  0.92416  1.0000
  H   H400      1.0  0.31001  0.36065  0.55135  1.0000
  N   N18       1.0  0.98950  0.39122  0.79588  1.0000
  C   C244      1.0  0.44697  0.48113  0.55515  1.0000
  H   H401      1.0  0.37950  0.46871  0.58971  1.0000
  H   H402      1.0  0.41179  0.28821  0.62283  1.0000
  S   S82       1.0  0.39839  0.45660  0.99497  1.0000
  C   C245      1.0  0.98398  0.39858  0.75480  1.0000
  S   S83       1.0  0.30511  0.37292  0.99660  1.0000
  H   H403      1.0  0.02783  0.37775  0.80416  1.0000
  H   H404      1.0  0.29927  0.34270  0.90133  1.0000
  N   N19       1.0  0.22739  0.28638  0.95747  1.0000
  S   S84       1.0  0.33116  0.26642  0.74743  1.0000
  H   H405      1.0  0.05497  0.30374  0.00113  1.0000
  C   C246      1.0  0.06232  0.31371  0.02783  1.0000
  H   H406      1.0  0.39290  0.29403  0.67203  1.0000
  C   C247      1.0  0.32862  0.32374  0.56554  1.0000
  H   H407      1.0  0.21479  0.29795  0.90632  1.0000
  H   H408      1.0  0.01437  0.37631  0.75499  1.0000
  Fe  Fe43      1.0  0.27727  0.25744  0.71321  1.0000
  H   H409      1.0  0.37916  0.45291  0.54761  1.0000
  H   H410      1.0  0.44106  0.47413  0.91548  1.0000
  H   H411      1.0  0.26963  0.24971  0.85981  1.0000
  H   H412      1.0  0.38546  0.29044  0.56949  1.0000
  C   C248      1.0  0.19168  0.28742  0.95182  1.0000
  H   H413      1.0  0.01597  0.39847  0.83600  1.0000
  H   H414      1.0  0.99069  0.41488  0.75299  1.0000
  C   C249      1.0  0.26965  0.24696  0.96762  1.0000
  H   H415      1.0  0.46222  0.47699  0.95055  1.0000
  H   H416      1.0  0.06884  0.33816  0.98474  1.0000
  C   C250      1.0  0.20992  0.28565  0.92953  1.0000
  H   H417      1.0  0.32345  0.27002  0.57066  1.0000
  H   H418      1.0  0.07629  0.37860  0.97992  1.0000
  N   N20       1.0  0.12548  0.33797  0.71081  1.0000
  C   C251      1.0  0.14480  0.34700  0.73629  1.0000
  C   C252      1.0  0.12175  0.31651  0.70522  1.0000
  C   C253      1.0  0.10864  0.34024  0.73558  1.0000
  C   C254      1.0  0.12834  0.34886  0.66937  1.0000
  C   C255      1.0  0.14999  0.36824  0.75169  1.0000
  C   C256      1.0  0.13731  0.31209  0.67852  1.0000
  C   C257      1.0  0.08691  0.32569  0.72641  1.0000
  C   C258      1.0  0.11129  0.34084  0.63606  1.0000
  H   H419      1.0  0.14449  0.33798  0.76482  1.0000
  H   H420      1.0  0.15802  0.34733  0.71815  1.0000
  H   H421      1.0  0.10689  0.30823  0.69028  1.0000
  H   H422      1.0  0.12109  0.30930  0.73658  1.0000
  H   H423      1.0  0.11101  0.33862  0.76998  1.0000
  H   H424      1.0  0.10868  0.35531  0.73158  1.0000
  H   H425      1.0  0.13012  0.36435  0.67453  1.0000
  H   H426      1.0  0.14285  0.35038  0.65446  1.0000
  H   H427      1.0  0.16442  0.37296  0.76993  1.0000
  H   H428      1.0  0.15232  0.37878  0.72522  1.0000
  H   H429      1.0  0.13857  0.36935  0.77358  1.0000
  H   H430      1.0  0.13817  0.31796  0.64594  1.0000
  H   H431      1.0  0.15252  0.31768  0.69329  1.0000
  H   H432      1.0  0.13269  0.29592  0.67597  1.0000
  H   H433      1.0  0.08459  0.31070  0.73807  1.0000
  H   H434      1.0  0.08253  0.32511  0.69275  1.0000
  H   H435      1.0  0.07624  0.33031  0.74423  1.0000
  S   S85       1.0  0.24746  0.25530  0.68702  1.0000
  H   H436      1.0  0.10396  0.32466  0.63574  1.0000
  H   H437      1.0  0.35250  0.43648  0.59691  1.0000
  H   H438      1.0  0.27110  0.34036  0.57721  1.0000
  C   C259      1.0  0.34250  0.34274  0.55637  1.0000
  C   C260      1.0  0.29047  0.25423  0.97494  1.0000
  N   N21       1.0  0.28089  0.34064  0.70678  1.0000
  C   C261      1.0  0.28753  0.33151  0.74402  1.0000
  C   C262      1.0  0.29814  0.34815  0.67627  1.0000
  C   C263      1.0  0.26286  0.32586  0.68441  1.0000
  C   C264      1.0  0.27516  0.35702  0.72263  1.0000
  C   C265      1.0  0.27093  0.31982  0.77541  1.0000
  C   C266      1.0  0.31623  0.36660  0.69020  1.0000
  C   C267      1.0  0.26586  0.30753  0.66799  1.0000
  C   C268      1.0  0.26786  0.36823  0.68887  1.0000
  H   H439      1.0  0.29490  0.32155  0.73337  1.0000
  H   H440      1.0  0.29935  0.34298  0.76288  1.0000
  H   H441      1.0  0.29299  0.35129  0.64471  1.0000
  H   H442      1.0  0.30438  0.33668  0.67021  1.0000
  H   H443      1.0  0.24936  0.32085  0.70486  1.0000
  H   H444      1.0  0.25831  0.33266  0.65656  1.0000
  H   H445      1.0  0.26265  0.35129  0.74529  1.0000
  H   H446      1.0  0.28739  0.36775  0.74215  1.0000
  H   H447      1.0  0.27783  0.31390  0.80098  1.0000
  H   H448      1.0  0.26402  0.32916  0.79080  1.0000
  H   H449      1.0  0.25897  0.30696  0.76063  1.0000
  H   H450      1.0  0.31220  0.37973  0.69113  1.0000
  H   H451      1.0  0.32254  0.36446  0.72117  1.0000
  H   H452      1.0  0.32845  0.36971  0.66681  1.0000
  H   H453      1.0  0.25161  0.29764  0.65269  1.0000
  H   H454      1.0  0.26937  0.29902  0.69381  1.0000
  H   H455      1.0  0.27773  0.31124  0.64382  1.0000
  H   H456      1.0  0.25123  0.36111  0.68399  1.0000
  H   H457      1.0  0.27525  0.36938  0.65811  1.0000
  H   H458      1.0  0.27159  0.38356  0.69954  1.0000
  H   H459      1.0  0.99775  0.46322  0.95284  1.0000
  H   H460      1.0  0.39701  0.32751  0.65903  1.0000
  H   H461      1.0  0.05297  0.41453  0.90080  1.0000
  S   S86       1.0  0.36649  0.39778  0.99093  1.0000
  H   H462      1.0  0.11779  0.34484  0.60412  1.0000
  H   H463      1.0  0.26414  0.31477  0.56756  1.0000
  N   N22       1.0  0.98583  0.47453  0.00415  1.0000
  C   C269      1.0  0.22107  0.27009  0.98993  1.0000
  C   C270      1.0  0.02676  0.41780  0.92628  1.0000
  H   H464      1.0  0.35368  0.35016  0.98567  1.0000
  H   H465      1.0  0.98533  0.47650  0.89321  1.0000
  C   C271      1.0  0.23824  0.26061  0.76801  1.0000
  H   H466      1.0  0.33001  0.25180  0.59741  1.0000
  H   H467      1.0  0.04661  0.33237  0.01472  1.0000
  H   H468      1.0  0.35824  0.24711  0.63095  1.0000
  H   H469      1.0  0.44538  0.47453  0.58623  1.0000
  H   H470      1.0  0.27861  0.36901  0.54408  1.0000
  H   H471      1.0  0.99890  0.36412  0.84714  1.0000
  C   C272      1.0  0.31395  0.34669  0.88553  1.0000
  H   H472      1.0  0.38308  0.34545  0.96277  1.0000
  H   H473      1.0  0.24299  0.30183  0.87404  1.0000
  H   H474      1.0  0.37710  0.32129  0.62124  1.0000
  C   C273      1.0  0.29631  0.25831  0.89935  1.0000
  H   H475      1.0  0.00492  0.32834  0.00107  1.0000
  C   C274      1.0  0.45456  0.47041  0.92064  1.0000
  H   H476      1.0  0.23453  0.26882  0.00566  1.0000
  H   H477      1.0  0.31660  0.36073  0.86858  1.0000
  H   H478      1.0  0.30062  0.32800  0.95957  1.0000
  H   H479      1.0  0.31916  0.33949  0.99827  1.0000
  H   H480      1.0  0.98411  0.37551  0.71042  1.0000
  C   C275      1.0  0.01210  0.39829  0.80180  1.0000
  H   H481      1.0  0.01659  0.49127  0.02438  1.0000
  H   H482      1.0  0.24890  0.25414  0.77770  1.0000
  H   H483      1.0  0.34347  0.26403  0.55072  1.0000
  H   H484      1.0  0.09752  0.36544  0.00272  1.0000
  C   C276      1.0  0.99320  0.47575  0.95953  1.0000
  C   C277      1.0  0.20115  0.32255  0.54352  1.0000
  H   H485      1.0  0.19337  0.30304  0.95365  1.0000
  H   H486      1.0  0.31027  0.30757  0.90577  1.0000
  C   C278      1.0  0.19419  0.33790  0.54411  1.0000
  C   C279      1.0  0.25372  0.30056  0.89848  1.0000
  H   H487      1.0  0.24821  0.32652  0.54757  1.0000
  H   H488      1.0  0.19295  0.24842  0.96261  1.0000
  C   C280      1.0  0.38892  0.31653  0.63453  1.0000
  C   C281      1.0  0.02297  0.38631  0.78029  1.0000
  H   H489      1.0  0.36546  0.36873  0.58205  1.0000
  C   C282      1.0  0.36221  0.49056  0.54979  1.0000
  H   H490      1.0  0.26158  0.31496  0.91388  1.0000
  H   H491      1.0  0.17769  0.27914  0.93353  1.0000
  H   H492      1.0  0.41030  0.27564  0.57445  1.0000
  C   C283      1.0  0.38004  0.29604  0.65549  1.0000
  H   H493      1.0  0.05054  0.36093  0.97983  1.0000
  C   C284      1.0  0.06209  0.37291  0.99788  1.0000
  C   C285      1.0  0.97717  0.48985  0.01226  1.0000
  H   H494      1.0  0.98472  0.39455  0.86231  1.0000
  C   C286      1.0  0.35116  0.28269  0.60765  1.0000
  H   H495      1.0  0.98244  0.42588  0.86274  1.0000
  H   H496      1.0  0.22360  0.30703  0.00121  1.0000
  C   C287      1.0  0.35021  0.44733  0.57484  1.0000
  H   H497      1.0  0.41017  0.48972  0.57380  1.0000
  S   S87       1.0  0.31375  0.26575  0.85811  1.0000
  C   C288      1.0  0.06279  0.33440  0.01718  1.0000
  H   H498      1.0  0.98298  0.42848  0.80716  1.0000
  H   H499      1.0  0.18925  0.28101  0.98390  1.0000
  H   H500      1.0  0.01943  0.41382  0.79102  1.0000
  H   H501      1.0  0.07746  0.31332  0.03247  1.0000
  C   C289      1.0  0.25442  0.30987  0.00729  1.0000
  H   H502      1.0  0.31985  0.26532  0.94692  1.0000
  C   C290      1.0  0.26420  0.32870  0.55353  1.0000
  C   C291      1.0  0.20816  0.24944  0.97322  1.0000
  H   H503      1.0  0.98334  0.36177  0.77172  1.0000
  H   H504      1.0  0.21271  0.27332  0.01615  1.0000
  C   C292      1.0  0.00351  0.47789  0.03381  1.0000
  H   H505      1.0  0.05642  0.38500  0.99939  1.0000
  Fe  Fe44      1.0  0.37865  0.42709  0.02472  1.0000
  C   C293      1.0  0.30373  0.25985  0.94092  1.0000
  C   C294      1.0  0.01136  0.46107  0.03669  1.0000
  H   H506      1.0  0.34602  0.48228  0.55694  1.0000
  C   C295      1.0  0.37109  0.46189  0.56045  1.0000
  H   H507      1.0  0.98406  0.38006  0.95607  1.0000
  C   C296      1.0  0.23525  0.30582  0.97989  1.0000
  C   C297      1.0  0.27547  0.25096  0.89182  1.0000
  C   C298      1.0  0.98858  0.42198  0.83381  1.0000
  C   C299      1.0  0.42334  0.47304  0.00844  1.0000
  H   H508      1.0  0.23821  0.31819  0.95711  1.0000
  C   C300      1.0  0.46891  0.47660  0.88281  1.0000
  H   H509      1.0  0.34079  0.43878  0.54826  1.0000
  C   C301      1.0  0.09597  0.36027  0.03605  1.0000
  H   H510      1.0  0.29910  0.29558  0.97631  1.0000
  C   C302      1.0  0.00703  0.32298  0.03199  1.0000
  C   C303      1.0  0.37308  0.25796  0.69062  1.0000
  H   H511      1.0  0.01608  0.45770  0.00561  1.0000
  H   H512      1.0  0.10695  0.33858  0.01047  1.0000
  C   C304      1.0  0.97908  0.36916  0.79788  1.0000
  C   C305      1.0  0.98269  0.35942  0.83884  1.0000
  H   H513      1.0  0.37213  0.26752  0.71666  1.0000
  H   H514      1.0  0.98441  0.39760  0.68669  1.0000
  H   H515      1.0  0.32131  0.30444  0.00976  1.0000
  C   C306      1.0  0.99041  0.39168  0.71389  1.0000
  C   C307      1.0  0.30844  0.30776  0.99719  1.0000
  H   H516      1.0  0.29896  0.30782  0.02447  1.0000
  H   H517      1.0  0.25869  0.32444  0.02253  1.0000
  C   C308      1.0  0.43590  0.46770  0.03598  1.0000
  H   H518      1.0  0.25195  0.29887  0.03296  1.0000
  H   H519      1.0  0.44204  0.50818  0.12003  1.0000
  H   H520      1.0  0.37645  0.51589  0.50610  1.0000
  H   H521      1.0  0.34914  0.50536  0.50429  1.0000
  C   C309      1.0  0.01318  0.69562  0.53226  1.0000
  H   H522      1.0  0.04533  0.64548  0.46991  1.0000
  H   H523      1.0  0.98581  0.68308  0.46028  1.0000
  C   C310      1.0  0.97692  0.64093  0.53360  1.0000
  H   H524      1.0  0.11459  0.72251  0.34972  1.0000
  H   H525      1.0  0.98840  0.72497  0.29662  1.0000
  S   S88       1.0  0.05298  0.71072  0.42116  1.0000
  H   H526      1.0  0.09399  0.71428  0.38700  1.0000
  H   H527      1.0  0.40137  0.49774  0.11927  1.0000
  H   H528      1.0  0.98597  0.65916  0.13953  1.0000
  C   C311      1.0  0.44376  0.49809  0.14479  1.0000
  C   C312      1.0  0.03880  0.68543  0.42769  1.0000
  C   C313      1.0  0.04824  0.67414  0.44777  1.0000
  C   C314      1.0  0.03786  0.65396  0.45386  1.0000
  C   C315      1.0  0.01798  0.64467  0.43932  1.0000
  C   C316      1.0  0.00851  0.65579  0.41809  1.0000
  C   C317      1.0  0.01887  0.67627  0.41266  1.0000
  H   H529      1.0  0.06367  0.68104  0.45902  1.0000
  H   H530      1.0  0.99332  0.64869  0.40596  1.0000
  H   H531      1.0  0.01162  0.68489  0.39640  1.0000
  Fe  Fe45      1.0  0.03833  0.73289  0.41908  1.0000
  H   H532      1.0  0.00650  0.66931  0.49485  1.0000
  S   S89       1.0  0.00581  0.61933  0.44994  1.0000
  C   C318      1.0  0.09085  0.73448  0.33791  1.0000
  S   S90       1.0  0.00963  0.72917  0.45143  1.0000
  H   H533      1.0  0.97570  0.57251  0.23348  1.0000
  H   H534      1.0  0.97618  0.62425  0.11572  1.0000
  H   H535      1.0  0.02438  0.70226  0.50708  1.0000
  H   H536      1.0  0.09033  0.70477  0.33500  1.0000
  H   H537      1.0  0.45785  0.50641  0.16269  1.0000
  H   H538      1.0  0.07454  0.72956  0.34580  1.0000
  H   H539      1.0  0.42270  0.50464  0.18333  1.0000
  H   H540      1.0  0.98478  0.68888  0.13334  1.0000
  H   H541      1.0  0.98670  0.62856  0.16769  1.0000
  H   H542      1.0  0.39367  0.49888  0.48958  1.0000
  H   H543      1.0  0.45252  0.50514  0.44454  1.0000
  H   H544      1.0  0.09130  0.73417  0.30288  1.0000
  C   C319      1.0  0.00442  0.67309  0.52760  1.0000
  C   C320      1.0  0.09814  0.71832  0.35364  1.0000
  H   H545      1.0  0.97864  0.63819  0.49971  1.0000
  C   C321      1.0  0.45098  0.49850  0.47556  1.0000
  C   C322      1.0  0.46345  0.50911  0.50891  1.0000
  H   H546      1.0  0.00179  0.70231  0.52879  1.0000
  H   H547      1.0  0.97555  0.66992  0.32585  1.0000
  C   C323      1.0  0.36273  0.50889  0.52497  1.0000
  H   H548      1.0  0.42222  0.50809  0.53556  1.0000
  H   H549      1.0  0.42133  0.49629  0.96893  1.0000
  S   S91       1.0  0.03969  0.72502  0.70246  1.0000
  Fe  Fe46      1.0  0.01375  0.71856  0.85240  1.0000
  H   H550      1.0  0.98287  0.52099  0.00963  1.0000
  S   S92       1.0  0.98985  0.69309  0.88699  1.0000
  H   H551      1.0  0.45544  0.50641  0.89869  1.0000
  C   C324      1.0  0.04000  0.73287  0.61761  1.0000
  S   S93       1.0  0.00130  0.72344  0.78970  1.0000
  S   S94       1.0  0.04508  0.72680  0.82645  1.0000
  S   S95       1.0  0.99516  0.61496  0.96431  1.0000
  H   H552      1.0  0.03240  0.68188  0.76586  1.0000
  C   C325      1.0  0.98205  0.66682  0.58767  1.0000
  H   H553      1.0  0.00473  0.51614  0.02440  1.0000
  C   C326      1.0  0.40741  0.49965  0.55009  1.0000
  H   H554      1.0  0.01484  0.66794  0.54603  1.0000
  N   N23       1.0  0.98299  0.66261  0.54154  1.0000
  H   H555      1.0  0.98168  0.68247  0.74523  1.0000
  C   C327      1.0  0.99216  0.67204  0.91023  1.0000
  C   C328      1.0  0.00977  0.66824  0.90717  1.0000
  C   C329      1.0  0.01050  0.65074  0.92416  1.0000
  C   C330      1.0  0.99372  0.63698  0.94455  1.0000
  H   H556      1.0  0.99412  0.66410  0.60610  1.0000
  H   H557      1.0  0.36300  0.52039  0.54765  1.0000
  H   H558      1.0  0.02281  0.67871  0.89166  1.0000
  H   H559      1.0  0.02415  0.64782  0.92154  1.0000
  H   H560      1.0  0.98210  0.61468  0.55223  1.0000
  H   H561      1.0  0.08371  0.73634  0.74096  1.0000
  H   H562      1.0  0.99039  0.63217  0.84496  1.0000
  H   H563      1.0  0.98050  0.65480  0.70650  1.0000
  H   H564      1.0  0.36918  0.49535  0.58150  1.0000
  H   H565      1.0  0.98066  0.61878  0.79680  1.0000
  H   H566      1.0  0.04593  0.72147  0.61419  1.0000
  C   C331      1.0  0.00230  0.66370  0.78721  1.0000
  C   C332      1.0  0.03597  0.73794  0.65800  1.0000
  H   H567      1.0  0.97533  0.72450  0.90578  1.0000
  H   H568      1.0  0.00474  0.63563  0.54790  1.0000
  C   C333      1.0  0.97777  0.64438  0.73355  1.0000
  H   H569      1.0  0.00445  0.67098  0.81856  1.0000
  H   H570      1.0  0.98715  0.73415  0.59314  1.0000
  H   H571      1.0  0.01456  0.67334  0.72334  1.0000
  H   H572      1.0  0.99586  0.51377  0.96996  1.0000
  H   H573      1.0  0.45262  0.49835  0.84554  1.0000
  H   H574      1.0  0.98944  0.63786  0.73072  1.0000
  C   C334      1.0  0.03624  0.74238  0.58155  1.0000
  H   H575      1.0  0.00847  0.65196  0.79075  1.0000
  H   H576      1.0  0.01460  0.69297  0.75738  1.0000
  Fe  Fe47      1.0  0.03279  0.73445  0.76599  1.0000
  C   C335      1.0  0.01648  0.67874  0.75623  1.0000
  C   C336      1.0  0.46131  0.50033  0.54884  1.0000
  H   H577      1.0  0.98523  0.68271  0.59244  1.0000
  H   H578      1.0  0.47070  0.50832  0.57488  1.0000
  C   C337      1.0  0.97688  0.62598  0.82403  1.0000
  H   H579      1.0  0.03914  0.73826  0.55043  1.0000
  N   N24       1.0  0.98019  0.65518  0.77481  1.0000
  H   H580      1.0  0.98846  0.63243  0.59309  1.0000
  C   C338      1.0  0.97541  0.65836  0.93090  1.0000
  C   C339      1.0  0.99123  0.51130  0.00336  1.0000
  H   H581      1.0  0.97667  0.68081  0.80021  1.0000
  H   H582      1.0  0.02080  0.69980  0.56342  1.0000
  C   C340      1.0  0.98891  0.63069  0.55856  1.0000
  H   H583      1.0  0.45975  0.53461  0.85863  1.0000
  C   C341      1.0  0.45066  0.50539  0.99942  1.0000
  C   C342      1.0  0.47170  0.52866  0.85423  1.0000
  C   C343      1.0  0.46404  0.50707  0.86940  1.0000
  H   H584      1.0  0.45613  0.51991  0.98541  1.0000
  H   H585      1.0  0.40258  0.51048  0.56577  1.0000
  C   C344      1.0  0.97622  0.64096  0.94821  1.0000
  C   C345      1.0  0.46322  0.50005  0.02699  1.0000
  Fe  Fe48      1.0  0.19508  0.90008  0.24495  1.0000
  S   S96       1.0  0.16592  0.89728  0.27497  1.0000
  S   S97       1.0  0.19793  0.88927  0.17971  1.0000
  Fe  Fe49      1.0  0.22080  0.91918  0.32247  1.0000
  S   S98       1.0  0.19374  0.91778  0.35916  1.0000
  S   S99       1.0  0.25413  0.93611  0.33789  1.0000
  Fe  Fe50      1.0  0.17771  0.88716  0.33284  1.0000
  S   S100      1.0  0.15717  0.86329  0.37717  1.0000
  Fe  Fe51      1.0  0.18363  0.92770  0.29902  1.0000
  S   S101      1.0  0.16772  0.94874  0.29780  1.0000
  S   S102      1.0  0.20602  0.88769  0.30124  1.0000
  S   S103      1.0  0.21154  0.93139  0.26375  1.0000
  C   C346      1.0  0.23186  0.98630  0.12155  1.0000
  C   C347      1.0  0.17105  0.98558  0.27612  1.0000
  C   C348      1.0  0.13553  0.78462  0.33575  1.0000
  Fe  Fe52      1.0  0.04647  0.77474  0.38975  1.0000
  S   S104      1.0  0.01778  0.77414  0.41936  1.0000
  S   S105      1.0  0.06725  0.79992  0.34842  1.0000
  H   H586      1.0  0.10534  0.85463  0.04267  1.0000
  H   H587      1.0  0.15177  0.78795  0.34249  1.0000
  Fe  Fe53      1.0  0.02656  0.75968  0.47511  1.0000
  H   H588      1.0  0.27778  0.99243  0.22990  1.0000
  H   H589      1.0  0.32751  0.94320  0.45596  1.0000
  H   H590      1.0  0.30457  0.97966  0.04385  1.0000
  C   C349      1.0  0.26167  0.99053  0.22648  1.0000
  C   C350      1.0  0.10215  0.75385  0.40189  1.0000
  C   C351      1.0  0.18158  0.97399  0.28981  1.0000
  H   H591      1.0  0.34151  0.96871  0.41348  1.0000
  H   H592      1.0  0.26367  0.88931  0.04946  1.0000
  H   H593      1.0  0.26644  0.97432  0.45613  1.0000
  H   H594      1.0  0.21073  0.97383  0.30739  1.0000
  H   H595      1.0  0.12378  0.75657  0.30576  1.0000
  H   H596      1.0  0.07586  0.75473  0.27995  1.0000
  C   C352      1.0  0.13236  0.84546  0.36807  1.0000
  C   C353      1.0  0.12162  0.83413  0.40226  1.0000
  C   C354      1.0  0.10175  0.82017  0.39690  1.0000
  C   C355      1.0  0.09237  0.81721  0.35709  1.0000
  C   C356      1.0  0.10318  0.82837  0.32279  1.0000
  C   C357      1.0  0.12301  0.84244  0.32820  1.0000
  H   H597      1.0  0.12865  0.83635  0.43326  1.0000
  H   H598      1.0  0.09361  0.81188  0.42369  1.0000
  H   H599      1.0  0.09611  0.82624  0.29183  1.0000
  H   H600      1.0  0.13104  0.85097  0.30153  1.0000
  C   C358      1.0  0.26547  0.93998  0.38876  1.0000
  C   C359      1.0  0.25588  0.92865  0.42351  1.0000
  C   C360      1.0  0.26601  0.93127  0.46280  1.0000
  C   C361      1.0  0.28567  0.94539  0.46785  1.0000
  C   C362      1.0  0.29501  0.95720  0.43348  1.0000
  C   C363      1.0  0.28504  0.95432  0.39398  1.0000
  H   H601      1.0  0.24084  0.91755  0.41985  1.0000
  H   H602      1.0  0.25863  0.92213  0.48931  1.0000
  H   H603      1.0  0.30998  0.96833  0.43718  1.0000
  H   H604      1.0  0.29250  0.96323  0.36726  1.0000
  H   H605      1.0  0.13091  0.79352  0.35800  1.0000
  H   H606      1.0  0.10957  0.77029  0.46016  1.0000
  H   H607      1.0  0.25295  0.92301  0.17897  1.0000
  S   S106      1.0  0.40010  0.97747  0.48184  1.0000
  H   H608      1.0  0.31247  0.88687  0.35317  1.0000
  H   H609      1.0  0.31834  0.89952  0.46861  1.0000
  C   C364      1.0  0.25102  0.94582  0.06379  1.0000
  C   C365      1.0  0.19889  0.89521  0.09455  1.0000
  C   C366      1.0  0.19572  0.90207  0.13379  1.0000
  C   C367      1.0  0.19108  0.91889  0.13545  1.0000
  C   C368      1.0  0.18930  0.92853  0.09786  1.0000
  H   H610      1.0  0.20264  0.88230  0.09312  1.0000
  H   H611      1.0  0.18858  0.92425  0.16561  1.0000
  H   H612      1.0  0.18531  0.94129  0.09916  1.0000
  H   H613      1.0  0.38358  0.94719  0.39956  1.0000
  H   H614      1.0  0.35617  0.97543  0.36716  1.0000
  C   C369      1.0  0.31399  0.90038  0.37061  1.0000
  H   H615      1.0  0.22905  0.97065  0.11477  1.0000
  H   H616      1.0  0.23551  0.93542  0.07129  1.0000
  H   H617      1.0  0.33081  0.94203  0.36086  1.0000
  H   H618      1.0  0.44455  0.91977  0.50322  1.0000
  H   H619      1.0  0.44217  0.95187  0.47414  1.0000
  H   H620      1.0  0.31170  0.91076  0.34742  1.0000
  N   N25       1.0  0.10245  0.75497  0.35435  1.0000
  C   C370      1.0  0.34469  0.94403  0.37976  1.0000
  H   H621      1.0  0.47146  0.97291  0.51847  1.0000
  C   C371      1.0  0.31593  0.91317  0.47516  1.0000
  C   C372      1.0  0.21977  0.97453  0.19254  1.0000
  H   H622      1.0  0.27398  0.95073  0.13487  1.0000
  N   N26       1.0  0.34030  0.92841  0.41359  1.0000
  H   H623      1.0  0.19503  0.98493  0.19904  1.0000
  C   C373      1.0  0.26859  0.93575  0.12103  1.0000
  H   H624      1.0  0.34614  0.90978  0.36741  1.0000
  C   C374      1.0  0.33500  0.90883  0.39222  1.0000
  C   C375      1.0  0.35830  0.93203  0.44238  1.0000
  H   H625      1.0  0.28056  0.93011  0.12963  1.0000
  H   H626      1.0  0.33607  0.89747  0.41454  1.0000
  H   H627      1.0  0.18772  0.95914  0.20195  1.0000
  C   C376      1.0  0.09124  0.76758  0.33944  1.0000
  Fe  Fe54      1.0  0.37640  0.98210  0.52269  1.0000
  H   H628      1.0  0.25154  0.96411  0.50094  1.0000
  C   C377      1.0  0.35284  0.96549  0.39506  1.0000
  H   H629      1.0  0.10209  0.77081  0.27368  1.0000
  H   H630      1.0  0.12880  0.77943  0.42190  1.0000
  C   C378      1.0  0.24925  0.92342  0.14487  1.0000
  C   C379      1.0  0.19722  0.90489  0.05712  1.0000
  H   H631      1.0  0.30167  0.89605  0.39395  1.0000
  C   C380      1.0  0.28656  0.94868  0.05577  1.0000
  H   H632      1.0  0.24264  0.90798  0.13404  1.0000
  H   H633      1.0  0.26861  0.89930  0.10123  1.0000
  H   H634      1.0  0.14507  0.91130  0.45970  1.0000
  C   C381      1.0  0.20255  0.98268  0.29623  1.0000
  N   N27       1.0  0.26623  0.93671  0.07386  1.0000
  H   H635      1.0  0.19303  0.97055  0.15146  1.0000
  H   H636      1.0  0.36136  0.94535  0.46193  1.0000
  H   H637      1.0  0.22040  0.95990  0.18603  1.0000
  H   H638      1.0  0.25335  0.95869  0.08408  1.0000
  H   H639      1.0  0.21784  0.98813  0.11082  1.0000
  H   H640      1.0  0.24248  0.90813  0.06179  1.0000
  C   C382      1.0  0.08812  0.76833  0.29127  1.0000
  S   S107      1.0  0.05620  0.76247  0.44748  1.0000
  H   H641      1.0  0.10563  0.78422  0.41743  1.0000
  H   H642      1.0  0.07605  0.76250  0.35394  1.0000
  C   C383      1.0  0.43996  0.98845  0.46046  1.0000
  H   H643      1.0  0.36711  0.96952  0.41351  1.0000
  S   S108      1.0  0.29816  0.94722  0.51717  1.0000
  H   H644      1.0  0.35568  0.94277  0.35672  1.0000
  H   H645      1.0  0.23770  0.93003  0.14240  1.0000
  H   H646      1.0  0.14644  0.88058  0.10630  1.0000
  H   H647      1.0  0.30991  0.92800  0.41979  1.0000
  H   H648      1.0  0.37646  0.92075  0.40242  1.0000
  C   C384      1.0  0.32316  0.92882  0.43976  1.0000
  H   H649      1.0  0.25606  0.97464  0.16782  1.0000
  H   H650      1.0  0.28639  0.90992  0.05913  1.0000
  H   H651      1.0  0.46744  0.95796  0.45433  1.0000
  C   C385      1.0  0.37804  0.93408  0.42040  1.0000
  H   H652      1.0  0.38997  0.93617  0.44488  1.0000
  C   C386      1.0  0.45346  0.94588  0.46493  1.0000
  C   C387      1.0  0.13350  0.88488  0.09831  1.0000
  C   C388      1.0  0.29637  0.97027  0.07052  1.0000
  H   H653      1.0  0.43417  0.97906  0.43340  1.0000
  C   C389      1.0  0.25576  0.98881  0.17915  1.0000
  H   H654      1.0  0.32357  0.91924  0.50559  1.0000
  Fe  Fe55      1.0  0.33022  0.96761  0.53369  1.0000
  H   H655      1.0  0.30731  0.97170  0.09679  1.0000
  H   H656      1.0  0.35517  0.91988  0.46580  1.0000
  C   C390      1.0  0.19218  0.92144  0.05857  1.0000
  H   H657      1.0  0.13495  0.79007  0.30312  1.0000
  H   H658      1.0  0.09870  0.78292  0.34994  1.0000
  H   H659      1.0  0.29770  0.94195  0.06380  1.0000
  H   H660      1.0  0.13302  0.75582  0.35789  1.0000
  N   N28       1.0  0.12203  0.90798  0.38294  1.0000
  C   C391      1.0  0.14447  0.91798  0.39121  1.0000
  C   C392      1.0  0.11757  0.91666  0.34241  1.0000
  C   C393      1.0  0.11755  0.88642  0.37664  1.0000
  C   C394      1.0  0.11100  0.91126  0.42036  1.0000
  C   C395      1.0  0.15307  0.91094  0.43037  1.0000
  C   C396      1.0  0.11977  0.93835  0.34453  1.0000
  C   C397      1.0  0.09534  0.87298  0.36831  1.0000
  C   C398      1.0  0.08840  0.90782  0.41393  1.0000
  H   H661      1.0  0.15304  0.91638  0.36349  1.0000
  H   H662      1.0  0.14892  0.93406  0.39539  1.0000
  H   H663      1.0  0.10223  0.90833  0.32987  1.0000
  H   H664      1.0  0.12761  0.91558  0.31686  1.0000
  H   H665      1.0  0.12658  0.88439  0.35008  1.0000
  H   H666      1.0  0.12212  0.87993  0.40487  1.0000
  H   H667      1.0  0.11187  0.90169  0.44718  1.0000
  H   H668      1.0  0.11867  0.92658  0.43212  1.0000
  H   H669      1.0  0.15487  0.97901  0.27130  1.0000
  H   H670      1.0  0.15334  0.89613  0.42580  1.0000
  H   H671      1.0  0.16904  0.92098  0.43529  1.0000
  H   H672      1.0  0.11584  0.94284  0.31309  1.0000
  H   H673      1.0  0.10950  0.94069  0.36759  1.0000
  H   H674      1.0  0.13543  0.94850  0.35158  1.0000
  H   H675      1.0  0.09454  0.85784  0.36302  1.0000
  H   H676      1.0  0.08876  0.87704  0.33963  1.0000
  H   H677      1.0  0.08587  0.87191  0.39612  1.0000
  H   H678      1.0  0.07914  0.89664  0.43690  1.0000
  H   H679      1.0  0.08207  0.90277  0.38224  1.0000
  H   H680      1.0  0.08592  0.92152  0.42064  1.0000
  H   H681      1.0  0.08328  0.78066  0.28347  1.0000
  H   H682      1.0  0.44723  0.93638  0.43704  1.0000
  H   H683      1.0  0.11906  0.87225  0.10292  1.0000
  C   C399      1.0  0.25867  0.91649  0.05456  1.0000
  Fe  Fe56      1.0  0.00278  0.74352  0.39335  1.0000
  H   H684      1.0  0.12539  0.90212  0.05214  1.0000
  C   C400      1.0  0.25954  0.97812  0.48386  1.0000
  H   H685      1.0  0.29939  0.90872  0.47907  1.0000
  C   C401      1.0  0.19779  0.97248  0.18503  1.0000
  H   H686      1.0  0.13417  0.89636  0.12141  1.0000
  C   C402      1.0  0.45810  0.93362  0.50028  1.0000
  C   C403      1.0  0.11221  0.77327  0.42590  1.0000
  H   H687      1.0  0.25282  0.97698  0.24425  1.0000
  C   C404      1.0  0.42641  0.99087  0.48928  1.0000
  C   C405      1.0  0.27021  0.90328  0.06731  1.0000
  H   H688      1.0  0.22241  0.97681  0.22702  1.0000
  H   H689      1.0  0.28406  0.98450  0.52902  1.0000
  S   S109      1.0  0.03058  0.74504  0.35905  1.0000
  H   H690      1.0  0.28551  0.97660  0.08084  1.0000
  C   C406      1.0  0.12380  0.76208  0.33836  1.0000
  H   H691      1.0  0.14000  0.85891  0.05367  1.0000
  H   H692      1.0  0.08632  0.74707  0.41293  1.0000
  N   N29       1.0  0.23581  0.99038  0.16805  1.0000
  C   C407      1.0  0.13533  0.89359  0.05334  1.0000
  H   H693      1.0  0.24789  0.98382  0.47365  1.0000
  H   H694      1.0  0.10986  0.74422  0.41390  1.0000
  H   H695      1.0  0.47002  0.92911  0.48728  1.0000
  H   H696      1.0  0.42158  0.94412  0.53164  1.0000
  C   C408      1.0  0.27512  0.99248  0.51408  1.0000
  S   S110      1.0  0.35216  0.99111  0.49376  1.0000
  H   H697      1.0  0.15096  0.90472  0.05068  1.0000
  H   H698      1.0  0.10490  0.75249  0.71233  1.0000
  C   C409      1.0  0.09611  0.75109  0.74137  1.0000
  S   S111      1.0  0.08190  0.77628  0.87225  1.0000
  Fe  Fe57      1.0  0.19078  0.91908  0.94955  1.0000
  S   S112      1.0  0.18360  0.88675  0.94432  1.0000
  S   S113      1.0  0.18877  0.93311  0.01180  1.0000
  Fe  Fe58      1.0  0.20217  0.92699  0.85610  1.0000
  S   S114      1.0  0.19515  0.89485  0.84461  1.0000
  S   S115      1.0  0.21742  0.94620  0.79995  1.0000
  Fe  Fe59      1.0  0.16744  0.88835  0.88375  1.0000
  S   S116      1.0  0.13489  0.86866  0.86522  1.0000
  Fe  Fe60      1.0  0.21176  0.89626  0.90590  1.0000
  S   S117      1.0  0.23477  0.88255  0.91557  1.0000
  S   S118      1.0  0.17314  0.92062  0.89088  1.0000
  S   S119      1.0  0.22008  0.92844  0.91553  1.0000
  S   S120      1.0  0.33327  0.98705  0.58955  1.0000
  H   H699      1.0  0.97926  0.75391  0.94972  1.0000
  H   H700      1.0  0.08321  0.79895  0.77466  1.0000
  C   C410      1.0  0.12591  0.90557  0.96848  1.0000
  H   H701      1.0  0.27563  0.98128  0.86656  1.0000
  H   H702      1.0  0.08932  0.86417  0.96144  1.0000
  H   H703      1.0  0.10570  0.75139  0.76946  1.0000
  S   S121      1.0  0.36418  0.96966  0.67707  1.0000
  H   H704      1.0  0.23690  0.97249  0.73277  1.0000
  Fe  Fe61      1.0  0.33581  0.96826  0.97241  1.0000
  S   S122      1.0  0.32105  0.93595  0.98750  1.0000
  H   H705      1.0  0.40496  0.97564  0.98391  1.0000
  H   H706      1.0  0.10934  0.89863  0.97197  1.0000
  H   H707      1.0  0.09940  0.87519  0.02804  1.0000
  C   C411      1.0  0.25026  0.95227  0.01756  1.0000
  H   H708      1.0  0.12401  0.78612  0.69489  1.0000
  H   H709      1.0  0.13412  0.88188  0.94904  1.0000
  Fe  Fe62      1.0  0.35868  0.97826  0.61072  1.0000
  H   H710      1.0  0.06551  0.80946  0.72052  1.0000
  C   C412      1.0  0.23394  0.98116  0.75716  1.0000
  H   H711      1.0  0.98448  0.76031  0.89582  1.0000
  C   C413      1.0  0.02878  0.75300  0.66228  1.0000
  C   C414      1.0  0.10822  0.86635  0.01826  1.0000
  C   C415      1.0  0.36281  0.97577  0.76167  1.0000
  C   C416      1.0  0.35834  0.98437  0.79749  1.0000
  H   H712      1.0  0.01989  0.77444  0.62998  1.0000
  H   H713      1.0  0.24789  0.94011  0.99523  1.0000
  H   H714      1.0  0.47095  0.94000  0.94495  1.0000
  S   S123      1.0  0.47075  0.97245  0.01991  1.0000
  H   H715      1.0  0.30663  0.93443  0.85838  1.0000
  C   C417      1.0  0.25893  0.89786  0.93391  1.0000
  C   C418      1.0  0.26585  0.91832  0.93016  1.0000
  C   C419      1.0  0.28520  0.93023  0.94510  1.0000
  C   C420      1.0  0.29755  0.92167  0.96468  1.0000
  C   C421      1.0  0.29065  0.90120  0.96821  1.0000
  C   C422      1.0  0.27151  0.88935  0.95253  1.0000
  H   H716      1.0  0.25641  0.92494  0.91527  1.0000
  H   H717      1.0  0.29036  0.94599  0.94233  1.0000
  H   H718      1.0  0.30012  0.89448  0.98330  1.0000
  H   H719      1.0  0.26634  0.87353  0.95541  1.0000
  C   C423      1.0  0.22433  0.97190  0.79430  1.0000
  H   H720      1.0  0.15205  0.84458  0.99617  1.0000
  C   C424      1.0  0.44640  0.94090  0.56910  1.0000
  H   H721      1.0  0.45207  0.90565  0.58684  1.0000
  H   H722      1.0  0.21315  0.97629  0.85425  1.0000
  C   C425      1.0  0.02535  0.76272  0.62636  1.0000
  C   C426      1.0  0.09749  0.77990  0.65613  1.0000
  C   C427      1.0  0.09618  0.80210  0.87105  1.0000
  C   C428      1.0  0.08817  0.81550  0.85534  1.0000
  C   C429      1.0  0.10027  0.83575  0.85389  1.0000
  C   C430      1.0  0.12052  0.84292  0.86803  1.0000
  C   C431      1.0  0.12853  0.82952  0.88380  1.0000
  C   C432      1.0  0.11640  0.80927  0.88541  1.0000
  H   H723      1.0  0.07264  0.81029  0.84443  1.0000
  H   H724      1.0  0.09389  0.84596  0.84171  1.0000
  H   H725      1.0  0.14408  0.83474  0.89458  1.0000
  H   H726      1.0  0.12279  0.79906  0.89757  1.0000
  H   H727      1.0  0.12593  0.82367  0.78667  1.0000
  H   H728      1.0  0.24270  0.89569  0.81393  1.0000
  H   H729      1.0  0.08104  0.77462  0.66069  1.0000
  C   C433      1.0  0.28091  0.97604  0.83815  1.0000
  S   S124      1.0  0.35387  0.95670  0.55794  1.0000
  H   H730      1.0  0.98524  0.76513  0.60869  1.0000
  C   C434      1.0  0.43404  0.97454  0.00016  1.0000
  H   H731      1.0  0.46951  0.92074  0.86046  1.0000
  H   H732      1.0  0.06172  0.78491  0.70731  1.0000
  Fe  Fe63      1.0  0.05061  0.75817  0.84471  1.0000
  N   N30       1.0  0.10120  0.78775  0.73674  1.0000
  H   H733      1.0  0.14295  0.85688  0.95739  1.0000
  H   H734      1.0  0.28613  0.94853  0.02074  1.0000
  S   S125      1.0  0.36252  0.98013  0.92945  1.0000
  H   H735      1.0  0.12892  0.91099  0.93545  1.0000
  C   C435      1.0  0.02866  0.75719  0.58584  1.0000
  H   H736      1.0  0.46506  0.93833  0.82764  1.0000
  C   C436      1.0  0.46631  0.91040  0.56904  1.0000
  H   H737      1.0  0.19987  0.89950  0.02721  1.0000
  C   C437      1.0  0.11753  0.79241  0.77047  1.0000
  C   C438      1.0  0.08689  0.76685  0.74434  1.0000
  H   H738      1.0  0.37046  0.96567  0.76541  1.0000
  H   H739      1.0  0.07363  0.76237  0.72279  1.0000
  H   H740      1.0  0.42576  0.95542  0.58286  1.0000
  Fe  Fe64      1.0  0.00891  0.75399  0.81190  1.0000
  H   H741      1.0  0.46380  0.97015  0.87585  1.0000
  H   H742      1.0  0.26408  0.96503  0.00912  1.0000
  C   C439      1.0  0.30162  0.95054  0.80222  1.0000
  H   H743      1.0  0.13921  0.81971  0.74155  1.0000
  H   H744      1.0  0.25589  0.94869  0.83982  1.0000
  H   H745      1.0  0.15299  0.89999  0.97790  1.0000
  C   C440      1.0  0.27133  0.94898  0.76269  1.0000
  S   S126      1.0  0.02026  0.74920  0.87578  1.0000
  C   C441      1.0  0.24707  0.91179  0.80983  1.0000
  C   C442      1.0  0.27405  0.93812  0.72337  1.0000
  H   H746      1.0  0.07980  0.80543  0.67887  1.0000
  H   H747      1.0  0.25508  0.94667  0.76456  1.0000
  H   H748      1.0  0.27921  0.96490  0.75561  1.0000
  H   H749      1.0  0.26547  0.92205  0.72534  1.0000
  H   H750      1.0  0.27702  0.94902  0.87014  1.0000
  H   H751      1.0  0.24036  0.91411  0.77950  1.0000
  H   H752      1.0  0.02568  0.75709  0.69322  1.0000
  C   C443      1.0  0.13648  0.89112  0.97733  1.0000
  H   H753      1.0  0.43587  0.92526  0.56994  1.0000
  H   H754      1.0  0.29017  0.94120  0.71735  1.0000
  H   H755      1.0  0.36253  0.98087  0.82859  1.0000
  H   H756      1.0  0.25912  0.91752  0.01958  1.0000
  H   H757      1.0  0.10139  0.76733  0.64644  1.0000
  H   H758      1.0  0.27513  0.98156  0.81024  1.0000
  H   H759      1.0  0.32865  0.95296  0.83811  1.0000
  C   C444      1.0  0.07338  0.79988  0.71021  1.0000
  H   H760      1.0  0.27491  0.91812  0.84288  1.0000
  H   H761      1.0  0.30614  0.94178  0.77904  1.0000
  H   H762      1.0  0.23729  0.95695  0.01319  1.0000
  S   S127      1.0  0.03959  0.76581  0.78287  1.0000
  H   H763      1.0  0.30850  0.96596  0.79060  1.0000
  H   H764      1.0  0.26807  0.94345  0.69530  1.0000
  H   H765      1.0  0.31170  0.96013  0.86739  1.0000
  H   H766      1.0  0.45901  0.96251  0.93077  1.0000
  H   H767      1.0  0.24014  0.91662  0.83617  1.0000
  C   C445      1.0  0.31243  0.94932  0.84416  1.0000
  H   H768      1.0  0.45874  0.93719  0.88166  1.0000
  S   S128      1.0  0.98618  0.76789  0.80190  1.0000
  H   H769      1.0  0.27642  0.91412  0.78858  1.0000
  C   C446      1.0  0.42004  0.98376  0.99599  1.0000
  H   H770      1.0  0.11741  0.80678  0.68597  1.0000
  C   C447      1.0  0.11094  0.79083  0.69401  1.0000
  H   H771      1.0  0.10079  0.78995  0.62840  1.0000
  C   C448      1.0  0.35763  0.98030  0.72110  1.0000
  H   H772      1.0  0.13213  0.91866  0.98911  1.0000
  C   C449      1.0  0.27030  0.92179  0.81131  1.0000
  H   H773      1.0  0.12675  0.78334  0.76646  1.0000
  H   H774      1.0  0.10051  0.81694  0.74161  1.0000
  C   C450      1.0  0.43336  0.95249  0.55499  1.0000
  H   H775      1.0  0.11080  0.78853  0.80231  1.0000
  C   C451      1.0  0.09008  0.80128  0.74281  1.0000
  C   C452      1.0  0.45370  0.98481  0.01597  1.0000
  N   N31       1.0  0.27894  0.94370  0.80384  1.0000
  H   H776      1.0  0.42954  0.95931  0.99124  1.0000
  C   C453      1.0  0.13274  0.81391  0.77266  1.0000
  H   H777      1.0  0.08033  0.76539  0.77642  1.0000
  H   H778      1.0  0.14547  0.81468  0.79411  1.0000
  C   C454      1.0  0.27258  0.95345  0.83925  1.0000
  H   H779      1.0  0.45062  0.94429  0.60291  1.0000
  H   H780      1.0  0.10860  0.85455  0.95279  1.0000
  H   H781      1.0  0.29761  0.98260  0.83895  1.0000
  C   C455      1.0  0.14320  0.86702  0.02317  1.0000
  H   H782      1.0  0.44214  0.96721  0.54216  1.0000
  S   S129      1.0  0.34979  0.98957  0.02511  1.0000
  C   C456      1.0  0.22053  0.98324  0.82555  1.0000
  S   S130      1.0  0.31947  0.98594  0.94353  1.0000
  C   C457      1.0  0.47010  0.93604  0.85993  1.0000
  H   H783      1.0  0.12561  0.83887  0.99241  1.0000
  H   H784      1.0  0.98639  0.74318  0.66740  1.0000
  C   C458      1.0  0.09827  0.85631  0.97636  1.0000
  H   H785      1.0  0.47314  0.97625  0.59822  1.0000
  H   H786      1.0  0.46674  0.98759  0.91644  1.0000
  H   H787      1.0  0.08725  0.84128  0.98337  1.0000
  N   N32       1.0  0.13043  0.87915  0.01732  1.0000
  H   H788      1.0  0.15949  0.87676  0.02456  1.0000
  C   C459      1.0  0.46890  0.97379  0.90901  1.0000
  C   C460      1.0  0.14056  0.85107  0.99001  1.0000
  N   N33       1.0  0.46454  0.94325  0.54286  1.0000
  S   S131      1.0  0.02197  0.76826  0.54157  1.0000
  H   H789      1.0  0.46357  0.90323  0.53770  1.0000
  Fe  Fe65      1.0  0.68332  0.05775  0.09824  1.0000
  S   S132      1.0  0.68928  0.08983  0.10411  1.0000
  Fe  Fe66      1.0  0.68345  0.05138  0.19456  1.0000
  S   S133      1.0  0.68986  0.08332  0.20648  1.0000
  S   S134      1.0  0.68019  0.03444  0.25651  1.0000
  Fe  Fe67      1.0  0.66647  0.07974  0.15589  1.0000
  S   S135      1.0  0.64271  0.09232  0.16557  1.0000
  Fe  Fe68      1.0  0.71226  0.09051  0.15432  1.0000
  S   S136      1.0  0.74553  0.11144  0.15689  1.0000
  S   S137      1.0  0.65873  0.04759  0.14675  1.0000
  S   S138      1.0  0.70760  0.05865  0.14545  1.0000
  Fe  Fe69      1.0  0.82317  0.22410  0.20083  1.0000
  H   H790      1.0  0.79060  0.22288  0.39221  1.0000
  S   S139      1.0  0.78992  0.20355  0.19289  1.0000
  H   H791      1.0  0.51413  0.00886  0.19554  1.0000
  H   H792      1.0  0.60202  0.00796  0.25827  1.0000
  S   S140      1.0  0.84526  0.22004  0.24795  1.0000
  C   C461      1.0  0.54766  0.99942  0.21963  1.0000
  Fe  Fe70      1.0  0.54309  0.01240  0.40249  1.0000
  H   H793      1.0  0.64024  0.02933  0.30359  1.0000
  S   S141      1.0  0.55146  0.02325  0.33545  1.0000
  Fe  Fe71      1.0  0.56259  0.01467  0.49028  1.0000
  S   S142      1.0  0.55806  0.99756  0.09007  1.0000
  S   S143      1.0  0.51293  0.99848  0.10893  1.0000
  H   H794      1.0  0.82532  0.20395  0.33886  1.0000
  Fe  Fe72      1.0  0.51906  0.01355  0.48041  1.0000
  C   C462      1.0  0.52517  0.04425  0.23322  1.0000
  S   S144      1.0  0.55477  0.04979  0.08851  1.0000
  S   S145      1.0  0.54934  0.03406  0.45580  1.0000
  C   C463      1.0  0.76659  0.11902  0.04394  1.0000
  H   H795      1.0  0.62661  0.07130  0.32624  1.0000
  H   H796      1.0  0.60804  0.01426  0.04617  1.0000
  C   C464      1.0  0.86019  0.23626  0.46456  1.0000
  H   H797      1.0  0.81583  0.22830  0.30678  1.0000
  C   C465      1.0  0.54549  0.00602  0.29423  1.0000
  C   C466      1.0  0.49747  0.03598  0.18146  1.0000
  C   C467      1.0  0.92689  0.22458  0.21746  1.0000
  H   H798      1.0  0.61241  0.07989  0.26752  1.0000
  H   H799      1.0  0.55586  0.05734  0.20963  1.0000
  H   H800      1.0  0.59497  0.06783  0.22651  1.0000
  C   C468      1.0  0.80108  0.21537  0.38527  1.0000
  H   H801      1.0  0.80787  0.18304  0.36486  1.0000
  H   H802      1.0  0.62148  0.05031  0.06284  1.0000
  H   H803      1.0  0.62226  0.00026  0.27093  1.0000
  H   H804      1.0  0.58874  0.05989  0.27963  1.0000
  H   H805      1.0  0.70291  0.13031  0.53255  1.0000
  H   H806      1.0  0.79530  0.14357  0.05073  1.0000
  C   C469      1.0  0.61808  0.07959  0.14602  1.0000
  C   C470      1.0  0.60573  0.09011  0.13799  1.0000
  C   C471      1.0  0.58627  0.08068  0.12101  1.0000
  C   C472      1.0  0.57882  0.06056  0.11250  1.0000
  C   C473      1.0  0.59085  0.04980  0.12206  1.0000
  C   C474      1.0  0.61052  0.05933  0.13859  1.0000
  H   H807      1.0  0.61140  0.10574  0.14403  1.0000
  H   H808      1.0  0.64166  0.05785  0.34043  1.0000
  H   H809      1.0  0.58524  0.03426  0.11610  1.0000
  H   H810      1.0  0.61978  0.05100  0.14547  1.0000
  C   C475      1.0  0.75747  0.13699  0.16804  1.0000
  C   C476      1.0  0.74653  0.14890  0.17457  1.0000
  C   C477      1.0  0.75675  0.16919  0.18213  1.0000
  C   C478      1.0  0.77799  0.17785  0.18339  1.0000
  C   C479      1.0  0.78893  0.16591  0.17711  1.0000
  C   C480      1.0  0.77871  0.14564  0.16931  1.0000
  H   H811      1.0  0.73022  0.14252  0.17358  1.0000
  H   H812      1.0  0.74812  0.17827  0.18691  1.0000
  H   H813      1.0  0.80524  0.17231  0.17800  1.0000
  H   H814      1.0  0.78734  0.13658  0.16433  1.0000
  C   C481      1.0  0.66712  0.00905  0.26705  1.0000
  H   H815      1.0  0.76462  0.19631  0.36556  1.0000
  S   S146      1.0  0.59381  0.02254  0.52103  1.0000
  N   N34       1.0  0.79542  0.20442  0.34399  1.0000
  H   H816      1.0  0.54142  0.03477  0.18422  1.0000
  C   C482      1.0  0.79935  0.21959  0.30938  1.0000
  C   C483      1.0  0.80926  0.19348  0.33839  1.0000
  C   C484      1.0  0.77360  0.19042  0.34546  1.0000
  H   H817      1.0  0.62331  0.05671  0.22647  1.0000
  H   H818      1.0  0.75390  0.07793  0.05636  1.0000
  C   C485      1.0  0.80589  0.18085  0.29844  1.0000
  C   C486      1.0  0.92712  0.23386  0.33791  1.0000
  H   H819      1.0  0.59500  0.01577  0.37603  1.0000
  H   H820      1.0  0.60001  0.03741  0.23551  1.0000
  H   H821      1.0  0.79476  0.21272  0.27811  1.0000
  H   H822      1.0  0.80201  0.21186  0.45344  1.0000
  H   H823      1.0  0.56314  0.02748  0.24909  1.0000
  H   H824      1.0  0.66124  0.08927  0.30639  1.0000
  H   H825      1.0  0.51100  0.03621  0.31399  1.0000
  C   C487      1.0  0.50430  0.00974  0.22135  1.0000
  H   H826      1.0  0.77429  0.10845  0.04343  1.0000
  C   C488      1.0  0.60139  0.06538  0.25721  1.0000
  H   H827      1.0  0.49104  0.04704  0.25941  1.0000
  C   C489      1.0  0.60879  0.02337  0.35729  1.0000
  H   H828      1.0  0.79202  0.16736  0.30083  1.0000
  H   H829      1.0  0.92017  0.20879  0.21379  1.0000
  H   H830      1.0  0.77334  0.22747  0.32522  1.0000
  H   H831      1.0  0.76940  0.17969  0.27897  1.0000
  H   H832      1.0  0.55359  0.00452  0.18866  1.0000
  H   H833      1.0  0.52520  0.05882  0.24263  1.0000
  H   H834      1.0  0.81863  0.17587  0.29546  1.0000
  C   C490      1.0  0.54056  0.04832  0.19723  1.0000
  H   H835      1.0  0.81484  0.19926  0.42608  1.0000
  H   H836      1.0  0.59027  0.02277  0.30263  1.0000
  C   C491      1.0  0.86269  0.22755  0.42694  1.0000
  H   H837      1.0  0.76399  0.12064  0.07789  1.0000
  H   H838      1.0  0.61439  0.01202  0.34728  1.0000
  H   H839      1.0  0.59683  0.04404  0.33329  1.0000
  N   N35       1.0  0.62016  0.04468  0.28996  1.0000
  C   C492      1.0  0.63465  0.06242  0.31282  1.0000
  C   C493      1.0  0.60322  0.03383  0.31952  1.0000
  C   C494      1.0  0.61152  0.05052  0.25079  1.0000
  C   C495      1.0  0.63137  0.03207  0.27676  1.0000
  C   C496      1.0  0.65239  0.07635  0.28681  1.0000
  H   H840      1.0  0.86673  0.21479  0.42851  1.0000
  H   H841      1.0  0.48486  0.02791  0.32553  1.0000
  S   S147      1.0  0.86445  0.22652  0.51339  1.0000
  H   H842      1.0  0.63223  0.02307  0.07150  1.0000
  H   H843      1.0  0.95392  0.22409  0.24714  1.0000
  H   H844      1.0  0.66910  0.12503  0.51529  1.0000
  C   C497      1.0  0.49061  0.03175  0.25817  1.0000
  H   H845      1.0  0.72611  0.12355  0.08325  1.0000
  C   C498      1.0  0.76188  0.18519  0.30293  1.0000
  H   H846      1.0  0.53733  0.05692  0.17114  1.0000
  Fe  Fe73      1.0  0.54143  0.01729  0.07665  1.0000
  H   H847      1.0  0.92962  0.22398  0.06581  1.0000
  H   H848      1.0  0.57706  0.08910  0.11392  1.0000
  H   H849      1.0  0.86206  0.22842  0.35866  1.0000
  H   H850      1.0  0.67176  0.01292  0.33426  1.0000
  S   S148      1.0  0.89244  0.22447  0.18047  1.0000
  C   C499      1.0  0.66523  0.00247  0.30918  1.0000
  H   H851      1.0  0.74687  0.17338  0.30829  1.0000
  H   H852      1.0  0.77237  0.17633  0.36084  1.0000
  H   H853      1.0  0.80545  0.18891  0.26904  1.0000
  H   H854      1.0  0.64303  0.04005  0.25329  1.0000
  H   H855      1.0  0.66289  0.06919  0.27830  1.0000
  C   C500      1.0  0.73910  0.07492  0.04062  1.0000
  H   H856      1.0  0.95981  0.23050  0.10305  1.0000
  H   H857      1.0  0.62208  0.01258  0.22194  1.0000
  H   H858      1.0  0.89566  0.23749  0.07909  1.0000
  H   H859      1.0  0.92460  0.24239  0.11858  1.0000
  H   H860      1.0  0.62683  0.08201  0.05605  1.0000
  H   H861      1.0  0.90070  0.24070  0.32716  1.0000
  C   C501      1.0  0.86010  0.23525  0.38737  1.0000
  C   C502      1.0  0.61850  0.01219  0.25598  1.0000
  H   H862      1.0  0.64507  0.12162  0.53702  1.0000
  H   H863      1.0  0.50322  0.05231  0.17866  1.0000
  H   H864      1.0  0.53175  0.03905  0.26066  1.0000
  H   H865      1.0  0.73143  0.09579  0.07505  1.0000
  H   H866      1.0  0.94370  0.24026  0.33363  1.0000
  C   C503      1.0  0.94603  0.23325  0.23612  1.0000
  H   H867      1.0  0.64741  0.08211  0.25814  1.0000
  H   H868      1.0  0.92353  0.22730  0.36983  1.0000
  H   H869      1.0  0.75903  0.19785  0.28922  1.0000
  C   C504      1.0  0.91624  0.23613  0.20445  1.0000
  C   C505      1.0  0.55319  0.01237  0.25396  1.0000
  H   H870      1.0  0.81627  0.22730  0.38339  1.0000
  H   H871      1.0  0.61998  0.03387  0.37883  1.0000
  C   C506      1.0  0.65862  0.99541  0.23492  1.0000
  S   S149      1.0  0.49510  0.02231  0.51076  1.0000
  H   H872      1.0  0.78738  0.18945  0.42684  1.0000
  N   N36       1.0  0.50391  0.03003  0.22336  1.0000
  H   H873      1.0  0.72776  0.06268  0.05828  1.0000
  C   C507      1.0  0.78912  0.23448  0.31448  1.0000
  C   C508      1.0  0.49579  0.02632  0.30289  1.0000
  H   H874      1.0  0.51164  0.00639  0.24985  1.0000
  Fe  Fe74      1.0  0.86844  0.23538  0.19884  1.0000
  H   H875      1.0  0.92104  0.22158  0.31507  1.0000
  S   S150      1.0  0.53302  0.99610  0.51956  1.0000
  C   C509      1.0  0.80119  0.20299  0.42482  1.0000
  H   H876      1.0  0.65996  0.00028  0.20240  1.0000
  H   H877      1.0  0.74963  0.14392  0.07473  1.0000
  H   H878      1.0  0.49451  0.01083  0.30500  1.0000
  S   S151      1.0  0.55804  0.99422  0.43506  1.0000
  S   S152      1.0  0.84611  0.23725  0.14984  1.0000
  H   H879      1.0  0.50430  0.03097  0.15490  1.0000
  H   H880      1.0  0.72653  0.14477  0.05513  1.0000
  H   H881      1.0  0.65165  0.10081  0.53141  1.0000
  C   C510      1.0  0.73484  0.13488  0.06031  1.0000
  C   C511      1.0  0.62408  0.02395  0.04189  1.0000
  C   C512      1.0  0.93587  0.23614  0.04245  1.0000
  S   S153      1.0  0.51199  0.99375  0.42433  1.0000
  H   H882      1.0  0.78894  0.24174  0.28361  1.0000
  C   C513      1.0  0.73293  0.09286  0.04129  1.0000
  H   H883      1.0  0.62336  0.09834  0.01788  1.0000
  H   H884      1.0  0.66730  0.13488  0.59373  1.0000
  H   H885      1.0  0.63140  0.00183  0.88687  1.0000
  H   H886      1.0  0.84265  0.21940  0.78651  1.0000
  H   H887      1.0  0.76039  0.12063  0.95846  1.0000
  H   H888      1.0  0.92680  0.23471  0.77811  1.0000
  C   C514      1.0  0.67688  0.00414  0.79018  1.0000
  Fe  Fe75      1.0  0.82749  0.22314  0.64979  1.0000
  S   S154      1.0  0.79666  0.20485  0.67831  1.0000
  H   H889      1.0  0.72243  0.08235  0.95884  1.0000
  S   S155      1.0  0.85151  0.21246  0.62998  1.0000
  Fe  Fe76      1.0  0.68510  0.08012  0.79482  1.0000
  S   S156      1.0  0.71033  0.07251  0.76854  1.0000
  S   S157      1.0  0.68276  0.08919  0.86251  1.0000
  Fe  Fe77      1.0  0.66483  0.07815  0.70778  1.0000
  S   S158      1.0  0.68856  0.07074  0.67623  1.0000
  S   S159      1.0  0.63854  0.08104  0.67071  1.0000
  Fe  Fe78      1.0  0.68533  0.05015  0.73064  1.0000
  S   S160      1.0  0.68046  0.01949  0.70956  1.0000
  Fe  Fe79      1.0  0.71141  0.09408  0.71625  1.0000
  S   S161      1.0  0.74026  0.11329  0.68154  1.0000
  S   S162      1.0  0.66012  0.05624  0.76035  1.0000
  S   S163      1.0  0.68766  0.10302  0.74465  1.0000
  C   C515      1.0  0.75113  0.10684  0.97511  1.0000
  C   C516      1.0  0.67355  0.00035  0.74701  1.0000
  H   H890      1.0  0.53260  0.99784  0.89783  1.0000
  H   H891      1.0  0.74499  0.13829  0.99597  1.0000
  H   H892      1.0  0.62541  0.04054  0.88953  1.0000
  C   C517      1.0  0.62616  0.06477  0.62904  1.0000
  C   C518      1.0  0.63531  0.05354  0.60898  1.0000
  C   C519      1.0  0.62542  0.04128  0.57507  1.0000
  H   H893      1.0  0.77628  0.15068  0.02749  1.0000
  C   C520      1.0  0.59681  0.05076  0.58165  1.0000
  C   C521      1.0  0.60698  0.06350  0.61485  1.0000
  H   H894      1.0  0.65003  0.05431  0.61950  1.0000
  H   H895      1.0  0.71740  0.08809  0.02778  1.0000
  H   H896      1.0  0.58189  0.04962  0.57161  1.0000
  H   H897      1.0  0.59981  0.07219  0.63002  1.0000
  C   C522      1.0  0.78053  0.17950  0.67675  1.0000
  C   C523      1.0  0.76415  0.17251  0.70451  1.0000
  C   C524      1.0  0.75146  0.15241  0.70603  1.0000
  C   C525      1.0  0.75501  0.13898  0.67971  1.0000
  C   C526      1.0  0.77115  0.14601  0.65134  1.0000
  C   C527      1.0  0.78381  0.16613  0.64974  1.0000
  H   H898      1.0  0.76138  0.18272  0.72540  1.0000
  H   H899      1.0  0.73912  0.14729  0.72796  1.0000
  H   H900      1.0  0.77401  0.13577  0.63069  1.0000
  H   H901      1.0  0.79620  0.17123  0.62794  1.0000
  H   H902      1.0  0.67837  0.08091  0.01562  1.0000
  H   H903      1.0  0.57692  0.03297  0.94151  1.0000
  C   C528      1.0  0.59415  0.04007  0.00114  1.0000
  H   H904      1.0  0.65542  0.10945  0.60531  1.0000
  S   S164      1.0  0.68009  0.04267  0.03446  1.0000
  H   H905      1.0  0.58656  0.05893  0.95365  1.0000
  C   C529      1.0  0.60967  0.00830  0.67332  1.0000
  H   H906      1.0  0.85163  0.21176  0.74091  1.0000
  H   H907      1.0  0.73070  0.13100  0.58804  1.0000
  C   C530      1.0  0.68083  0.05564  0.98668  1.0000
  C   C531      1.0  0.68221  0.04702  0.94811  1.0000
  C   C532      1.0  0.68262  0.05694  0.90957  1.0000
  C   C533      1.0  0.68162  0.07557  0.90941  1.0000
  C   C534      1.0  0.67999  0.08402  0.94796  1.0000
  C   C535      1.0  0.67964  0.07416  0.98635  1.0000
  H   H908      1.0  0.68326  0.03276  0.94806  1.0000
  H   H909      1.0  0.68392  0.05029  0.88006  1.0000
  H   H910      1.0  0.67917  0.09841  0.94809  1.0000
  N   N37       1.0  0.61665  0.04961  0.99502  1.0000
  C   C536      1.0  0.61857  0.08256  0.02645  1.0000
  H   H911      1.0  0.62394  0.02110  0.66802  1.0000
  H   H912      1.0  0.73474  0.15297  0.55895  1.0000
  H   H913      1.0  0.82844  0.14546  0.82957  1.0000
  H   H914      1.0  0.69758  0.15219  0.64001  1.0000
  Fe  Fe80      1.0  0.87327  0.23661  0.67019  1.0000
  H   H915      1.0  0.67342  0.99592  0.94941  1.0000
  H   H916      1.0  0.70683  0.11998  0.64472  1.0000
  H   H917      1.0  0.60718  0.04999  0.90601  1.0000
  H   H918      1.0  0.63274  0.03284  0.55945  1.0000
  H   H919      1.0  0.85718  0.17480  0.76903  1.0000
  C   C537      1.0  0.62213  0.04965  0.91381  1.0000
  C   C538      1.0  0.73693  0.12591  0.01772  1.0000
  C   C539      1.0  0.69181  0.12034  0.63744  1.0000
  H   H920      1.0  0.84128  0.15032  0.76169  1.0000
  H   H921      1.0  0.79924  0.15209  0.82079  1.0000
  H   H922      1.0  0.65684  0.00702  0.90232  1.0000
  S   S165      1.0  0.53017  0.00488  0.01257  1.0000
  C   C540      1.0  0.62306  0.04080  0.95777  1.0000
  H   H923      1.0  0.76035  0.09760  0.97513  1.0000
  H   H924      1.0  0.73921  0.06945  0.00827  1.0000
  H   H925      1.0  0.67366  0.08715  0.59413  1.0000
  C   C541      1.0  0.78222  0.13880  0.02836  1.0000
  H   H926      1.0  0.68372  0.01914  0.80109  1.0000
  H   H927      1.0  0.81568  0.14634  0.67584  1.0000
  H   H928      1.0  0.72136  0.11911  0.00428  1.0000
  H   H929      1.0  0.61800  0.07603  0.96091  1.0000
  H   H930      1.0  0.58926  0.02382  0.00257  1.0000
  H   H931      1.0  0.63905  0.04227  0.96176  1.0000
  N   N38       1.0  0.68723  0.11886  0.59075  1.0000
  H   H932      1.0  0.83668  0.16256  0.64739  1.0000
  H   H933      1.0  0.81906  0.18677  0.80244  1.0000
  H   H934      1.0  0.83378  0.17120  0.83893  1.0000
  H   H935      1.0  0.64056  0.07808  0.98680  1.0000
  C   C542      1.0  0.62689  0.04557  0.03406  1.0000
  H   H936      1.0  0.91580  0.21601  0.99667  1.0000
  S   S166      1.0  0.89504  0.23194  0.71830  1.0000
  Fe  Fe81      1.0  0.85812  0.23551  0.57856  1.0000
  H   H937      1.0  0.69935  0.14103  0.68970  1.0000
  H   H938      1.0  0.85385  0.16312  0.83739  1.0000
  H   H939      1.0  0.64168  0.01148  0.60918  1.0000
  H   H940      1.0  0.61851  0.99480  0.55464  1.0000
  H   H941      1.0  0.63397  0.06464  0.91069  1.0000
  H   H942      1.0  0.67504  0.13635  0.66652  1.0000
  N   N39       1.0  0.82613  0.17048  0.75210  1.0000
  C   C543      1.0  0.83267  0.17491  0.70682  1.0000
  C   C544      1.0  0.82513  0.18899  0.77012  1.0000
  C   C545      1.0  0.80550  0.15406  0.75215  1.0000
  H   H943      1.0  0.71239  0.09730  0.60916  1.0000
  C   C546      1.0  0.83138  0.15716  0.67961  1.0000
  H   H944      1.0  0.68046  0.09646  0.54237  1.0000
  C   C547      1.0  0.69090  0.13865  0.65920  1.0000
  H   H945      1.0  0.82352  0.18217  0.69013  1.0000
  H   H946      1.0  0.84862  0.18545  0.70506  1.0000
  H   H947      1.0  0.72672  0.15115  0.61210  1.0000
  H   H948      1.0  0.81429  0.19350  0.75133  1.0000
  H   H949      1.0  0.79642  0.15543  0.72447  1.0000
  H   H950      1.0  0.80675  0.13951  0.74870  1.0000
  H   H951      1.0  0.72364  0.10629  0.94132  1.0000
  C   C548      1.0  0.62386  0.07163  0.99020  1.0000
  H   H952      1.0  0.58966  0.04367  0.03240  1.0000
  H   H953      1.0  0.84127  0.14978  0.69193  1.0000
  H   H954      1.0  0.63820  0.00599  0.94140  1.0000
  C   C549      1.0  0.58045  0.04397  0.96717  1.0000
  C   C550      1.0  0.72481  0.14271  0.58250  1.0000
  C   C551      1.0  0.84145  0.16432  0.77485  1.0000
  H   H955      1.0  0.78636  0.16481  0.78982  1.0000
  C   C552      1.0  0.79187  0.15257  0.79017  1.0000
  H   H956      1.0  0.56609  0.04283  0.98195  1.0000
  H   H957      1.0  0.60150  0.00542  0.60826  1.0000
  C   C553      1.0  0.70480  0.09442  0.57790  1.0000
  H   H958      1.0  0.85666  0.20395  0.79279  1.0000
  C   C554      1.0  0.73242  0.09686  0.94653  1.0000
  H   H959      1.0  0.61399  0.02472  0.95576  1.0000
  H   H960      1.0  0.68098  0.10731  0.65407  1.0000
  C   C555      1.0  0.64101  0.99929  0.91234  1.0000
  H   H961      1.0  0.94941  0.23435  0.02919  1.0000
  C   C556      1.0  0.84531  0.20684  0.77251  1.0000
  H   H962      1.0  0.64345  0.05426  0.03349  1.0000
  H   H963      1.0  0.77823  0.13880  0.78743  1.0000
  C   C557      1.0  0.83889  0.16074  0.82275  1.0000
  H   H964      1.0  0.63077  0.01826  0.01651  1.0000
  H   H965      1.0  0.73739  0.09423  0.91499  1.0000
  C   C558      1.0  0.60279  0.99536  0.63360  1.0000
  H   H966      1.0  0.61133  0.00007  0.70151  1.0000
  H   H967      1.0  0.59813  0.01446  0.68056  1.0000
  N   N40       1.0  0.74692  0.11117  0.01949  1.0000
  C   C559      1.0  0.92055  0.23172  0.00542  1.0000
  H   H968      1.0  0.78812  0.13740  0.99700  1.0000
  H   H969      1.0  0.60212  0.07702  0.03214  1.0000
  H   H970      1.0  0.90676  0.23423  0.01322  1.0000
  H   H971      1.0  0.71549  0.10261  0.55306  1.0000
  H   H972      1.0  0.92757  0.24045  0.97701  1.0000
  C   C560      1.0  0.68546  0.09885  0.57591  1.0000
  C   C561      1.0  0.60600  0.03954  0.56165  1.0000
  C   C562      1.0  0.70274  0.13504  0.56573  1.0000
  H   H973      1.0  0.70077  0.07855  0.57151  1.0000
  H   H974      1.0  0.64181  0.00129  0.65940  1.0000
  C   C563      1.0  0.66680  0.12016  0.58447  1.0000
  H   H975      1.0  0.64834  0.99383  0.99945  1.0000
  H   H976      1.0  0.69869  0.14822  0.56330  1.0000
  H   H977      1.0  0.66851  0.99817  0.62098  1.0000
  C   C564      1.0  0.63793  0.99719  0.62596  1.0000
  C   C565      1.0  0.65794  0.11670  0.53918  1.0000
  H   H978      1.0  0.88385  0.48307  0.37485  1.0000
  S   S167      1.0  0.87616  0.26555  0.22484  1.0000
  H   H979      1.0  0.96144  0.37713  0.13565  1.0000
  Fe  Fe82      1.0  0.85240  0.26671  0.17914  1.0000
  S   S168      1.0  0.85627  0.29554  0.14636  1.0000
  H   H980      1.0  0.95451  0.43429  0.06156  1.0000
  S   S169      1.0  0.93677  0.40366  0.48373  1.0000
  H   H981      1.0  0.91741  0.35374  0.51610  1.0000
  H   H982      1.0  0.89839  0.27262  0.42692  1.0000
  H   H983      1.0  0.96986  0.33401  0.17195  1.0000
  S   S170      1.0  0.85147  0.26210  0.33655  1.0000
  H   H984      1.0  0.94403  0.41521  0.35891  1.0000
  H   H985      1.0  0.89949  0.29702  0.48716  1.0000
  C   C566      1.0  0.95235  0.33911  0.10492  1.0000
  H   H986      1.0  0.96632  0.32664  0.50048  1.0000
  H   H987      1.0  0.92947  0.25357  0.41580  1.0000
  H   H988      1.0  0.94351  0.30528  0.38019  1.0000
  H   H989      1.0  0.95088  0.36245  0.36591  1.0000
  C   C567      1.0  0.95498  0.25362  0.24089  1.0000
  C   C568      1.0  0.94472  0.26542  0.22639  1.0000
  C   C569      1.0  0.92518  0.25662  0.20855  1.0000
  H   H990      1.0  0.91713  0.26562  0.19767  1.0000
  H   H991      1.0  0.92324  0.33618  0.19121  1.0000
  H   H992      1.0  0.92792  0.32138  0.47269  1.0000
  C   C570      1.0  0.87352  0.30660  0.10563  1.0000
  C   C571      1.0  0.88556  0.29746  0.08853  1.0000
  H   H993      1.0  0.89917  0.33180  0.49206  1.0000
  H   H994      1.0  0.95696  0.34119  0.21162  1.0000
  H   H995      1.0  0.93463  0.29751  0.51406  1.0000
  C   C572      1.0  0.87531  0.32518  0.09032  1.0000
  H   H996      1.0  0.88412  0.28311  0.09993  1.0000
  H   H997      1.0  0.87919  0.28981  0.52230  1.0000
  H   H998      1.0  0.86599  0.33231  0.10332  1.0000
  H   H999      1.0  0.84849  0.27326  0.42134  1.0000
  N   N41       1.0  0.94805  0.34563  0.14731  1.0000
  H   H1000     1.0  0.85689  0.33108  0.52765  1.0000
  H   H1001     1.0  0.89909  0.25931  0.10812  1.0000
  H   H1002     1.0  0.89437  0.26853  0.34241  1.0000
  H   H1003     1.0  0.94373  0.37002  0.17696  1.0000
  H   H1004     1.0  0.92290  0.46620  0.51107  1.0000
  C   C573      1.0  0.96339  0.31925  0.53176  1.0000
  C   C574      1.0  0.95382  0.29732  0.37935  1.0000
  C   C575      1.0  0.93078  0.36780  0.11448  1.0000
  Fe  Fe83      1.0  0.94701  0.43418  0.51113  1.0000
  H   H1005     1.0  0.91570  0.33018  0.13783  1.0000
  H   H1006     1.0  0.89026  0.34893  0.04686  1.0000
  C   C576      1.0  0.96352  0.37136  0.42811  1.0000
  C   C577      1.0  0.91648  0.28900  0.30156  1.0000
  H   H1007     1.0  0.95450  0.40485  0.39943  1.0000
  H   H1008     1.0  0.95020  0.28079  0.32139  1.0000
  H   H1009     1.0  0.93909  0.33574  0.08335  1.0000
  C   C578      1.0  0.92615  0.30983  0.16854  1.0000
  C   C579      1.0  0.89927  0.30688  0.05641  1.0000
  H   H1010     1.0  0.97063  0.30830  0.53196  1.0000
  C   C580      1.0  0.92774  0.33118  0.16136  1.0000
  H   H1011     1.0  0.92155  0.25389  0.29543  1.0000
  C   C581      1.0  0.94532  0.27780  0.35483  1.0000
  H   H1012     1.0  0.92404  0.48815  0.29090  1.0000
  C   C582      1.0  0.85492  0.25269  0.46232  1.0000
  N   N42       1.0  0.92294  0.26618  0.35779  1.0000
  C   C583      1.0  0.90564  0.25318  0.08315  1.0000
  C   C584      1.0  0.91516  0.34217  0.49233  1.0000
  H   H1013     1.0  0.95416  0.24415  0.14495  1.0000
  H   H1014     1.0  0.49404  0.46725  0.47179  1.0000
  C   C585      1.0  0.96214  0.26050  0.08465  1.0000
  C   C586      1.0  0.92700  0.25519  0.09743  1.0000
  H   H1015     1.0  0.94530  0.34308  0.49497  1.0000
  H   H1016     1.0  0.91123  0.46269  0.05106  1.0000
  H   H1017     1.0  0.90613  0.29678  0.29482  1.0000
  H   H1018     1.0  0.95150  0.37579  0.43773  1.0000
  C   C587      1.0  0.50799  0.46488  0.47994  1.0000
  C   C588      1.0  0.96314  0.36366  0.38758  1.0000
  C   C589      1.0  0.93119  0.47962  0.49417  1.0000
  C   C590      1.0  0.91070  0.27808  0.34415  1.0000
  H   H1019     1.0  0.93834  0.29332  0.07120  1.0000
  C   C591      1.0  0.94683  0.36566  0.14509  1.0000
  H   H1020     1.0  0.92515  0.28569  0.43736  1.0000
  H   H1021     1.0  0.95154  0.28117  0.23005  1.0000
  H   H1022     1.0  0.93738  0.30870  0.19189  1.0000
  H   H1023     1.0  0.96710  0.27462  0.10203  1.0000
  S   S171      1.0  0.95626  0.46104  0.46733  1.0000
  H   H1024     1.0  0.53585  0.48624  0.45570  1.0000
  H   H1025     1.0  0.91160  0.28955  0.36727  1.0000
  C   C592      1.0  0.96044  0.45037  0.05553  1.0000
  H   H1026     1.0  0.93229  0.36324  0.08196  1.0000
  H   H1027     1.0  0.91095  0.30107  0.18105  1.0000
  H   H1028     1.0  0.91478  0.27893  0.27489  1.0000
  C   C593      1.0  0.85251  0.26050  0.42279  1.0000
  H   H1029     1.0  0.90845  0.29970  0.04316  1.0000
  H   H1030     1.0  0.95830  0.29492  0.41201  1.0000
  S   S172      1.0  0.82758  0.25401  0.22604  1.0000
  H   H1031     1.0  0.93204  0.30031  0.30235  1.0000
  H   H1032     1.0  0.92741  0.30281  0.13858  1.0000
  H   H1033     1.0  0.79787  0.24624  0.33692  1.0000
  H   H1034     1.0  0.91522  0.35966  0.12573  1.0000
  H   H1035     1.0  0.85276  0.25939  0.49103  1.0000
  C   C594      1.0  0.88902  0.33461  0.05827  1.0000
  N   N43       1.0  0.94178  0.25589  0.06365  1.0000
  C   C595      1.0  0.85509  0.25184  0.38521  1.0000
  H   H1036     1.0  0.93317  0.26796  0.11913  1.0000
  C   C596      1.0  0.95811  0.41355  0.36996  1.0000
  C   C597      1.0  0.90109  0.32551  0.04128  1.0000
  H   H1037     1.0  0.90526  0.26161  0.05435  1.0000
  Fe  Fe84      1.0  0.85100  0.25064  0.26994  1.0000
  C   C598      1.0  0.94822  0.48109  0.47128  1.0000
  H   H1038     1.0  0.97199  0.34678  0.05091  1.0000
  H   H1039     1.0  0.96911  0.36752  0.07361  1.0000
  H   H1040     1.0  0.90360  0.24421  0.40102  1.0000
  H   H1041     1.0  0.91181  0.48263  0.34154  1.0000
  H   H1042     1.0  0.51040  0.45603  0.45395  1.0000
  H   H1043     1.0  0.50545  0.45538  0.50846  1.0000
  H   H1044     1.0  0.93274  0.38351  0.11267  1.0000
  C   C599      1.0  0.52724  0.48372  0.48555  1.0000
  C   C600      1.0  0.92994  0.33166  0.49937  1.0000
  H   H1045     1.0  0.95490  0.32517  0.10800  1.0000
  C   C601      1.0  0.89556  0.29275  0.52031  1.0000
  H   H1046     1.0  0.91797  0.34957  0.46104  1.0000
  H   H1047     1.0  0.96230  0.40523  0.34540  1.0000
  H   H1048     1.0  0.91106  0.26376  0.46582  1.0000
  H   H1049     1.0  0.89806  0.47347  0.29421  1.0000
  C   C602      1.0  0.91741  0.25795  0.40182  1.0000
  C   C603      1.0  0.91017  0.48649  0.30831  1.0000
  H   H1050     1.0  0.96736  0.30759  0.36302  1.0000
  C   C604      1.0  0.97462  0.43408  0.37716  1.0000
  C   C605      1.0  0.97071  0.35346  0.08144  1.0000
  H   H1051     1.0  0.95399  0.26901  0.36678  1.0000
  C   C606      1.0  0.91737  0.24894  0.32816  1.0000
  C   C607      1.0  0.91292  0.27106  0.43442  1.0000
  H   H1052     1.0  0.96784  0.44206  0.39768  1.0000
  H   H1053     1.0  0.97245  0.48929  0.04568  1.0000
  H   H1054     1.0  0.94788  0.45560  0.05844  1.0000
  H   H1055     1.0  0.53668  0.47995  0.50981  1.0000
  C   C608      1.0  0.96376  0.34538  0.17981  1.0000
  S   S173      1.0  0.88587  0.37070  0.53510  1.0000
  H   H1056     1.0  0.96495  0.29859  0.06338  1.0000
  Fe  Fe85      1.0  0.96046  0.39938  0.52503  1.0000
  C   C609      1.0  0.94970  0.29269  0.04866  1.0000
  H   H1057     1.0  0.50314  0.48922  0.41617  1.0000
  H   H1058     1.0  0.49270  0.48862  0.51657  1.0000
  H   H1059     1.0  0.97379  0.26226  0.06042  1.0000
  H   H1060     1.0  0.97162  0.45699  0.08098  1.0000
  C   C610      1.0  0.96361  0.24523  0.11704  1.0000
  H   H1061     1.0  0.89788  0.27891  0.52730  1.0000
  Fe  Fe86      1.0  0.92396  0.36744  0.97535  1.0000
  H   H1062     1.0  0.93563  0.30255  0.73705  1.0000
  H   H1063     1.0  0.92517  0.31997  0.63316  1.0000
  Fe  Fe87      1.0  0.92334  0.38647  0.88914  1.0000
  S   S174      1.0  0.94012  0.41721  0.91260  1.0000
  S   S175      1.0  0.91410  0.37538  0.82255  1.0000
  C   C611      1.0  0.85031  0.38687  0.70199  1.0000
  S   S176      1.0  0.96664  0.30566  0.79774  1.0000
  Fe  Fe88      1.0  0.92020  0.40775  0.96907  1.0000
  C   C612      1.0  0.93367  0.28776  0.74633  1.0000
  S   S177      1.0  0.94468  0.37458  0.91993  1.0000
  S   S178      1.0  0.90144  0.37763  0.94290  1.0000
  S   S179      1.0  0.86379  0.29792  0.65888  1.0000
  Fe  Fe89      1.0  0.94953  0.41901  0.60057  1.0000
  S   S180      1.0  0.92497  0.42481  0.56453  1.0000
  C   C613      1.0  0.87488  0.37040  0.70551  1.0000
  H   H1064     1.0  0.85113  0.34788  0.74304  1.0000
  H   H1065     1.0  0.93876  0.29959  0.56903  1.0000
  C   C614      1.0  0.92862  0.24952  0.76930  1.0000
  S   S181      1.0  0.94033  0.38780  0.58034  1.0000
  C   C615      1.0  0.87108  0.31712  0.62178  1.0000
  C   C616      1.0  0.86057  0.31564  0.58355  1.0000
  C   C617      1.0  0.87562  0.39279  0.64751  1.0000
  H   H1066     1.0  0.94581  0.34271  0.64076  1.0000
  C   C618      1.0  0.89178  0.35113  0.60533  1.0000
  C   C619      1.0  0.88671  0.33487  0.63252  1.0000
  H   H1067     1.0  0.88529  0.42008  0.68508  1.0000
  C   C620      1.0  0.94467  0.26557  0.78700  1.0000
  H   H1068     1.0  0.90333  0.36489  0.61478  1.0000
  H   H1069     1.0  0.89468  0.33614  0.66236  1.0000
  H   H1070     1.0  0.94995  0.30277  0.02209  1.0000
  H   H1071     1.0  0.91177  0.30718  0.92434  1.0000
  H   H1072     1.0  0.97437  0.36205  0.86572  1.0000
  Fe  Fe90      1.0  0.95943  0.40431  0.94841  1.0000
  H   H1073     1.0  0.82498  0.35876  0.71803  1.0000
  S   S182      1.0  0.88208  0.25852  0.61724  1.0000
  C   C621      1.0  0.92409  0.46039  0.94930  1.0000
  S   S183      1.0  0.97221  0.43040  0.54909  1.0000
  H   H1074     1.0  0.89380  0.26264  0.85836  1.0000
  H   H1075     1.0  0.92422  0.44995  0.92574  1.0000
  C   C622      1.0  0.92615  0.39047  0.77974  1.0000
  C   C623      1.0  0.92399  0.38230  0.73929  1.0000
  C   C624      1.0  0.93336  0.39403  0.70449  1.0000
  C   C625      1.0  0.94506  0.41399  0.71010  1.0000
  C   C626      1.0  0.94731  0.42209  0.75060  1.0000
  C   C627      1.0  0.93786  0.41039  0.78532  1.0000
  H   H1076     1.0  0.91513  0.36685  0.73485  1.0000
  H   H1077     1.0  0.93169  0.38761  0.67348  1.0000
  C   C628      1.0  0.91761  0.27175  0.72877  1.0000
  H   H1078     1.0  0.93953  0.41685  0.81630  1.0000
  H   H1079     1.0  0.86645  0.31682  0.89866  1.0000
  Fe  Fe91      1.0  0.85653  0.26653  0.63882  1.0000
  C   C629      1.0  0.96944  0.45459  0.01088  1.0000
  H   H1080     1.0  0.84336  0.37497  0.59151  1.0000
  H   H1081     1.0  0.85727  0.35420  0.63207  1.0000
  H   H1082     1.0  0.84828  0.30204  0.57541  1.0000
  H   H1083     1.0  0.93785  0.32342  0.82004  1.0000
  C   C630      1.0  0.94016  0.31002  0.89933  1.0000
  C   C631      1.0  0.92368  0.48783  0.00971  1.0000
  H   H1084     1.0  0.93634  0.29465  0.88915  1.0000
  H   H1085     1.0  0.82398  0.35197  0.60311  1.0000
  H   H1086     1.0  0.95067  0.32248  0.62054  1.0000
  S   S184      1.0  0.94076  0.39655  0.00639  1.0000
  H   H1087     1.0  0.95635  0.43752  0.75508  1.0000
  H   H1088     1.0  0.50595  0.48507  0.92109  1.0000
  H   H1089     1.0  0.88796  0.36985  0.68785  1.0000
  H   H1090     1.0  0.90727  0.27428  0.70635  1.0000
  C   C632      1.0  0.83361  0.37347  0.73106  1.0000
  S   S185      1.0  0.91922  0.33721  0.00248  1.0000
  C   C633      1.0  0.90723  0.30893  0.55223  1.0000
  H   H1091     1.0  0.94627  0.31123  0.93209  1.0000
  H   H1092     1.0  0.88149  0.38091  0.73184  1.0000
  C   C634      1.0  0.83452  0.36578  0.61776  1.0000
  H   H1093     1.0  0.82218  0.38011  0.73529  1.0000
  C   C635      1.0  0.93969  0.32979  0.61956  1.0000
  H   H1094     1.0  0.95249  0.32006  0.87979  1.0000
  H   H1095     1.0  0.50493  0.47874  0.84379  1.0000
  H   H1096     1.0  0.97104  0.33010  0.55667  1.0000
  C   C636      1.0  0.94421  0.27179  0.03123  1.0000
  H   H1097     1.0  0.95503  0.26307  0.80940  1.0000
  C   C637      1.0  0.91504  0.25251  0.74001  1.0000
  H   H1098     1.0  0.96422  0.39364  0.82898  1.0000
  H   H1099     1.0  0.90169  0.40658  0.69131  1.0000
  C   C638      1.0  0.88100  0.34988  0.56754  1.0000
  H   H1100     1.0  0.89508  0.29191  0.80986  1.0000
  H   H1101     1.0  0.91736  0.29016  0.82860  1.0000
  C   C639      1.0  0.94729  0.28479  0.77549  1.0000
  H   H1102     1.0  0.87581  0.34764  0.74884  1.0000
  C   C640      1.0  0.92164  0.31585  0.89885  1.0000
  N   N44       1.0  0.91053  0.31369  0.85713  1.0000
  C   C641      1.0  0.92490  0.32775  0.82639  1.0000
  S   S186      1.0  0.95782  0.42904  0.66786  1.0000
  C   C642      1.0  0.89263  0.31965  0.86142  1.0000
  C   C643      1.0  0.84817  0.36067  0.65001  1.0000
  C   C644      1.0  0.91592  0.32961  0.78260  1.0000
  C   C645      1.0  0.93077  0.48051  0.93909  1.0000
  C   C646      1.0  0.88029  0.31348  0.90219  1.0000
  C   C647      1.0  0.86540  0.33209  0.55668  1.0000
  H   H1103     1.0  0.88884  0.32215  0.92960  1.0000
  H   H1104     1.0  0.92789  0.34054  0.76352  1.0000
  H   H1105     1.0  0.92677  0.33131  0.90991  1.0000
  H   H1106     1.0  0.93151  0.34282  0.83994  1.0000
  H   H1107     1.0  0.89758  0.33596  0.86018  1.0000
  H   H1108     1.0  0.88187  0.31404  0.83442  1.0000
  H   H1109     1.0  0.89546  0.27804  0.90132  1.0000
  C   C648      1.0  0.89127  0.27605  0.86753  1.0000
  H   H1110     1.0  0.91068  0.31564  0.76482  1.0000
  H   H1111     1.0  0.90348  0.33502  0.78465  1.0000
  N   N45       1.0  0.86182  0.37740  0.67688  1.0000
  H   H1112     1.0  0.90203  0.42010  0.64438  1.0000
  H   H1113     1.0  0.87496  0.27319  0.86333  1.0000
  H   H1114     1.0  0.95600  0.27238  0.00816  1.0000
  C   C649      1.0  0.89194  0.41073  0.66891  1.0000
  C   C650      1.0  0.90416  0.29327  0.83934  1.0000
  H   H1115     1.0  0.93623  0.48542  0.90773  1.0000
  H   H1116     1.0  0.82522  0.37294  0.63263  1.0000
  H   H1117     1.0  0.87540  0.29765  0.90936  1.0000
  H   H1118     1.0  0.86079  0.39830  0.72319  1.0000
  H   H1119     1.0  0.96444  0.46192  0.92404  1.0000
  H   H1120     1.0  0.86695  0.39897  0.62631  1.0000
  H   H1121     1.0  0.88353  0.38618  0.62624  1.0000
  H   H1122     1.0  0.90661  0.30114  0.58275  1.0000
  H   H1123     1.0  0.83811  0.34825  0.66914  1.0000
  H   H1124     1.0  0.51510  0.47688  0.56859  1.0000
  S   S187      1.0  0.90961  0.42874  0.00442  1.0000
  H   H1125     1.0  0.96246  0.36479  0.79381  1.0000
  H   H1126     1.0  0.86166  0.33803  0.70187  1.0000
  H   H1127     1.0  0.95640  0.45252  0.98936  1.0000
  C   C651      1.0  0.86499  0.34983  0.72572  1.0000
  H   H1128     1.0  0.93034  0.26874  0.01186  1.0000
  H   H1129     1.0  0.84375  0.39536  0.68136  1.0000
  H   H1130     1.0  0.83993  0.37199  0.76259  1.0000
  H   H1131     1.0  0.96737  0.39432  0.75260  1.0000
  C   C652      1.0  0.91718  0.45385  0.98980  1.0000
  H   H1132     1.0  0.49597  0.48428  0.58933  1.0000
  Fe  Fe92      1.0  0.91722  0.39403  0.54084  1.0000
  H   H1133     1.0  0.92690  0.34524  0.57838  1.0000
  H   H1134     1.0  0.89825  0.31801  0.55814  1.0000
  C   C653      1.0  0.93700  0.33707  0.57485  1.0000
  H   H1135     1.0  0.97361  0.48850  0.92580  1.0000
  C   C654      1.0  0.91669  0.46763  0.01973  1.0000
  H   H1136     1.0  0.96311  0.48677  0.99363  1.0000
  H   H1137     1.0  0.47928  0.46874  0.88624  1.0000
  H   H1138     1.0  0.97419  0.44249  0.00166  1.0000
  C   C655      1.0  0.51047  0.48952  0.57218  1.0000
  S   S188      1.0  0.83290  0.24515  0.59630  1.0000
  S   S189      1.0  0.84889  0.24564  0.69364  1.0000
  H   H1139     1.0  0.95180  0.34840  0.56546  1.0000
  H   H1140     1.0  0.49784  0.49206  0.96962  1.0000
  N   N46       1.0  0.92869  0.32150  0.54146  1.0000
  C   C656      1.0  0.94060  0.30852  0.53966  1.0000
  H   H1141     1.0  0.88288  0.54166  0.32443  1.0000
  C   C657      1.0  0.75748  0.70184  0.26670  1.0000
  C   C658      1.0  0.72452  0.72051  0.16244  1.0000
  Fe  Fe93      1.0  0.57525  0.70443  0.36075  1.0000
  S   S190      1.0  0.59672  0.72092  0.41184  1.0000
  S   S191      1.0  0.55010  0.67480  0.37200  1.0000
  Fe  Fe94      1.0  0.59613  0.73623  0.29465  1.0000
  C   C659      1.0  0.95795  0.64903  0.07884  1.0000
  Fe  Fe95      1.0  0.62025  0.72551  0.36283  1.0000
  S   S192      1.0  0.64581  0.71663  0.38266  1.0000
  S   S193      1.0  0.59891  0.70774  0.31268  1.0000
  S   S194      1.0  0.57015  0.73123  0.33788  1.0000
  H   H1142     1.0  0.90579  0.49524  0.40868  1.0000
  H   H1143     1.0  0.95852  0.63464  0.07090  1.0000
  Fe  Fe96      1.0  0.87092  0.64563  0.14944  1.0000
  S   S195      1.0  0.89719  0.66702  0.11530  1.0000
  S   S196      1.0  0.86905  0.61500  0.16208  1.0000
  Fe  Fe97      1.0  0.85437  0.67593  0.17321  1.0000
  S   S197      1.0  0.88013  0.70054  0.14240  1.0000
  S   S198      1.0  0.82944  0.67904  0.21272  1.0000
  Fe  Fe98      1.0  0.87521  0.67923  0.08877  1.0000
  Fe  Fe99      1.0  0.90059  0.68664  0.17105  1.0000
  S   S199      1.0  0.93365  0.69940  0.19158  1.0000
  S   S200      1.0  0.84814  0.65565  0.11771  1.0000
  S   S201      1.0  0.87557  0.66420  0.20674  1.0000
  Fe  Fe100     1.0  0.68710  0.66015  0.24393  1.0000
  S   S202      1.0  0.66391  0.63640  0.28085  1.0000
  S   S203      1.0  0.68522  0.68946  0.23168  1.0000
  Fe  Fe101     1.0  0.70963  0.63470  0.21866  1.0000
  S   S204      1.0  0.68774  0.60833  0.25250  1.0000
  S   S205      1.0  0.73516  0.63392  0.17767  1.0000
  Fe  Fe102     1.0  0.66306  0.61719  0.22558  1.0000
  S   S206      1.0  0.63186  0.59541  0.20604  1.0000
  Fe  Fe103     1.0  0.69011  0.62953  0.30492  1.0000
  S   S207      1.0  0.69223  0.61976  0.37220  1.0000
  S   S208      1.0  0.68461  0.64161  0.18702  1.0000
  S   S209      1.0  0.71366  0.65527  0.27291  1.0000
  H   H1144     1.0  0.58415  0.64182  0.20224  1.0000
  Fe  Fe104     1.0  0.93219  0.60251  0.46197  1.0000
  C   C660      1.0  0.91249  0.53956  0.31597  1.0000
  H   H1145     1.0  0.55161  0.65710  0.11411  1.0000
  Fe  Fe105     1.0  0.93848  0.59012  0.37248  1.0000
  H   H1146     1.0  0.79984  0.57596  0.18118  1.0000
  S   S210      1.0  0.92675  0.59266  0.30654  1.0000
  Fe  Fe106     1.0  0.93797  0.56347  0.44774  1.0000
  C   C661      1.0  0.93110  0.71095  0.27353  1.0000
  H   H1147     1.0  0.77180  0.70080  0.11409  1.0000
  S   S211      1.0  0.91556  0.57594  0.42237  1.0000
  S   S212      1.0  0.95342  0.61756  0.41004  1.0000
  C   C662      1.0  0.93506  0.51300  0.47258  1.0000
  H   H1148     1.0  0.82242  0.59108  0.20669  1.0000
  C   C663      1.0  0.69324  0.63535  0.41462  1.0000
  C   C664      1.0  0.69531  0.65484  0.40795  1.0000
  C   C665      1.0  0.69588  0.66683  0.44253  1.0000
  C   C666      1.0  0.69412  0.65936  0.48384  1.0000
  C   C667      1.0  0.69203  0.63989  0.49054  1.0000
  C   C668      1.0  0.69174  0.62797  0.45600  1.0000
  H   H1149     1.0  0.69648  0.66064  0.37618  1.0000
  H   H1150     1.0  0.69744  0.68190  0.43719  1.0000
  H   H1151     1.0  0.54114  0.52885  0.53227  1.0000
  H   H1152     1.0  0.69007  0.61288  0.46127  1.0000
  C   C669      1.0  0.61861  0.59607  0.15858  1.0000
  C   C670      1.0  0.59838  0.58310  0.15366  1.0000
  C   C671      1.0  0.58738  0.58304  0.11625  1.0000
  C   C672      1.0  0.59658  0.59594  0.08328  1.0000
  C   C673      1.0  0.61678  0.60899  0.08838  1.0000
  C   C674      1.0  0.62772  0.60913  0.12583  1.0000
  H   H1153     1.0  0.59122  0.57290  0.17880  1.0000
  H   H1154     1.0  0.57189  0.57289  0.11278  1.0000
  H   H1155     1.0  0.64329  0.61909  0.12909  1.0000
  H   H1156     1.0  0.60490  0.62419  0.20599  1.0000
  C   C675      1.0  0.94341  0.70874  0.24194  1.0000
  H   H1157     1.0  0.56502  0.51200  0.47442  1.0000
  C   C676      1.0  0.50134  0.50146  0.43346  1.0000
  H   H1158     1.0  0.60388  0.60322  0.26386  1.0000
  H   H1159     1.0  0.53957  0.70331  0.10025  1.0000
  C   C677      1.0  0.80327  0.66676  0.20206  1.0000
  C   C678      1.0  0.78937  0.66604  0.23344  1.0000
  C   C679      1.0  0.76847  0.65608  0.22647  1.0000
  C   C680      1.0  0.76125  0.64695  0.18780  1.0000
  C   C681      1.0  0.77513  0.64774  0.15639  1.0000
  C   C682      1.0  0.79603  0.65760  0.16342  1.0000
  H   H1160     1.0  0.79484  0.67300  0.26351  1.0000
  H   H1161     1.0  0.75797  0.65520  0.25122  1.0000
  H   H1162     1.0  0.76968  0.64069  0.12639  1.0000
  H   H1163     1.0  0.80653  0.65816  0.13889  1.0000
  C   C683      1.0  0.65658  0.70906  0.34046  1.0000
  C   C684      1.0  0.65598  0.71632  0.29969  1.0000
  C   C685      1.0  0.66513  0.71051  0.26645  1.0000
  C   C686      1.0  0.67431  0.69698  0.27370  1.0000
  C   C687      1.0  0.67451  0.68939  0.31428  1.0000
  C   C688      1.0  0.66592  0.69566  0.34774  1.0000
  C   C689      1.0  0.95235  0.51464  0.45038  1.0000
  H   H1164     1.0  0.66493  0.71638  0.23508  1.0000
  H   H1165     1.0  0.68170  0.67904  0.32010  1.0000
  H   H1166     1.0  0.66651  0.69014  0.37931  1.0000
  H   H1167     1.0  0.56177  0.53531  0.46942  1.0000
  S   S213      1.0  0.48185  0.53293  0.49865  1.0000
  H   H1168     1.0  0.89391  0.65627  0.34398  1.0000
  H   H1169     1.0  0.73211  0.70691  0.24011  1.0000
  C   C690      1.0  0.73669  0.68571  0.17917  1.0000
  C   C691      1.0  0.55307  0.66026  0.41448  1.0000
  C   C692      1.0  0.57061  0.66663  0.43947  1.0000
  C   C693      1.0  0.57224  0.65554  0.47466  1.0000
  C   C694      1.0  0.55657  0.63771  0.48478  1.0000
  C   C695      1.0  0.53917  0.63102  0.45928  1.0000
  C   C696      1.0  0.53740  0.64234  0.42434  1.0000
  H   H1170     1.0  0.58291  0.68018  0.43196  1.0000
  H   H1171     1.0  0.76852  0.64784  0.52522  1.0000
  C   C697      1.0  0.59931  0.73834  0.18475  1.0000
  H   H1172     1.0  0.92565  0.62633  0.34962  1.0000
  C   C698      1.0  0.89367  0.58647  0.08656  1.0000
  C   C699      1.0  0.88637  0.59271  0.12209  1.0000
  C   C700      1.0  0.87766  0.60676  0.11776  1.0000
  C   C701      1.0  0.87611  0.61448  0.07797  1.0000
  N   N47       1.0  0.52428  0.50215  0.49823  1.0000
  H   H1173     1.0  0.97035  0.65131  0.18414  1.0000
  H   H1174     1.0  0.88764  0.58676  0.15290  1.0000
  H   H1175     1.0  0.73553  0.66422  0.49549  1.0000
  H   H1176     1.0  0.48737  0.49606  0.45202  1.0000
  C   C702      1.0  0.93537  0.57863  0.18683  1.0000
  C   C703      1.0  0.92756  0.58431  0.22258  1.0000
  C   C704      1.0  0.93709  0.58577  0.26223  1.0000
  H   H1177     1.0  0.96742  0.70097  0.13255  1.0000
  H   H1178     1.0  0.92791  0.57747  0.15642  1.0000
  H   H1179     1.0  0.91397  0.58737  0.21955  1.0000
  H   H1180     1.0  0.93395  0.61912  0.12416  1.0000
  S   S214      1.0  0.96957  0.73104  0.37349  1.0000
  C   C705      1.0  0.96220  0.57575  0.23036  1.0000
  H   H1181     1.0  0.59803  0.74271  0.07739  1.0000
  H   H1182     1.0  0.82773  0.61710  0.15148  1.0000
  H   H1183     1.0  0.57583  0.53103  0.51242  1.0000
  H   H1184     1.0  0.88411  0.52786  0.27798  1.0000
  H   H1185     1.0  0.92621  0.64435  0.19420  1.0000
  H   H1186     1.0  0.53289  0.51688  0.43775  1.0000
  N   N48       1.0  0.54804  0.70956  0.50182  1.0000
  H   H1187     1.0  0.92150  0.63565  0.11877  1.0000
  H   H1188     1.0  0.51144  0.67425  0.09253  1.0000
  H   H1189     1.0  0.94968  0.67341  0.36522  1.0000
  C   C706      1.0  0.92040  0.63730  0.36367  1.0000
  S   S215      1.0  0.95982  0.57598  0.39481  1.0000
  C   C707      1.0  0.63225  0.63774  0.39665  1.0000
  H   H1190     1.0  0.90174  0.64638  0.53508  1.0000
  C   C708      1.0  0.89905  0.62592  0.38117  1.0000
  H   H1191     1.0  0.53093  0.70731  0.39652  1.0000
  H   H1192     1.0  0.62893  0.63305  0.23100  1.0000
  H   H1193     1.0  0.51094  0.63335  0.07687  1.0000
  H   H1194     1.0  0.72118  0.72449  0.19427  1.0000
  C   C709      1.0  0.61314  0.63202  0.23464  1.0000
  H   H1195     1.0  0.58566  0.66095  0.49443  1.0000
  C   C710      1.0  0.62154  0.66190  0.27880  1.0000
  H   H1196     1.0  0.74880  0.71939  0.12583  1.0000
  C   C711      1.0  0.89570  0.63186  0.27939  1.0000
  H   H1197     1.0  0.49927  0.51163  0.40930  1.0000
  H   H1198     1.0  0.93954  0.66531  0.05398  1.0000
  H   H1199     1.0  0.89384  0.62868  0.24506  1.0000
  H   H1200     1.0  0.97193  0.50001  0.43160  1.0000
  H   H1201     1.0  0.96202  0.58276  0.29627  1.0000
  C   C712      1.0  0.95278  0.57437  0.19064  1.0000
  H   H1202     1.0  0.71312  0.70597  0.15339  1.0000
  H   H1203     1.0  0.62850  0.67815  0.27528  1.0000
  H   H1204     1.0  0.90021  0.52750  0.39338  1.0000
  C   C713      1.0  0.95255  0.66922  0.13616  1.0000
  H   H1205     1.0  0.65490  0.63663  0.44084  1.0000
  C   C714      1.0  0.63999  0.66125  0.47577  1.0000
  C   C715      1.0  0.62581  0.66463  0.20306  1.0000
  N   N49       1.0  0.63106  0.63905  0.47804  1.0000
  C   C716      1.0  0.94934  0.53066  0.32354  1.0000
  C   C717      1.0  0.63818  0.63157  0.43988  1.0000
  C   C718      1.0  0.54309  0.67509  0.53104  1.0000
  C   C719      1.0  0.60842  0.63257  0.47876  1.0000
  H   H1206     1.0  0.96275  0.52912  0.33882  1.0000
  H   H1207     1.0  0.71974  0.66622  0.12903  1.0000
  H   H1208     1.0  0.58087  0.60787  0.46273  1.0000
  C   C720      1.0  0.74624  0.72113  0.15962  1.0000
  H   H1209     1.0  0.74042  0.69796  0.50626  1.0000
  H   H1210     1.0  0.75304  0.68589  0.26214  1.0000
  H   H1211     1.0  0.63284  0.61535  0.43949  1.0000
  H   H1212     1.0  0.49176  0.64335  0.06868  1.0000
  C   C721      1.0  0.89191  0.49612  0.39465  1.0000
  C   C722      1.0  0.61967  0.65770  0.15730  1.0000
  H   H1213     1.0  0.90353  0.68175  0.39393  1.0000
  H   H1214     1.0  0.60274  0.63974  0.45324  1.0000
  C   C723      1.0  0.60865  0.71372  0.15060  1.0000
  H   H1215     1.0  0.56446  0.70546  0.08877  1.0000
  H   H1216     1.0  0.89718  0.61037  0.38652  1.0000
  H   H1217     1.0  0.54018  0.63994  0.04122  1.0000
  C   C724      1.0  0.60582  0.72087  0.11079  1.0000
  C   C725      1.0  0.55528  0.66535  0.08373  1.0000
  C   C726      1.0  0.91023  0.66541  0.34349  1.0000
  H   H1218     1.0  0.61569  0.63318  0.39292  1.0000
  H   H1219     1.0  0.94652  0.68084  0.31301  1.0000
  H   H1220     1.0  0.95910  0.67530  0.45461  1.0000
  H   H1221     1.0  0.64445  0.68826  0.50901  1.0000
  H   H1222     1.0  0.78301  0.72163  0.20000  1.0000
  H   H1223     1.0  0.63736  0.63037  0.37150  1.0000
  H   H1224     1.0  0.97010  0.65725  0.45477  1.0000
  S   S216      1.0  0.92429  0.54780  0.04913  1.0000
  C   C727      1.0  0.93430  0.63351  0.13556  1.0000
  S   S217      1.0  0.92491  0.53168  0.47144  1.0000
  H   H1225     1.0  0.91116  0.49393  0.51164  1.0000
  C   C728      1.0  0.59581  0.61031  0.47757  1.0000
  C   C729      1.0  0.74839  0.71135  0.23252  1.0000
  H   H1226     1.0  0.62086  0.67056  0.05175  1.0000
  C   C730      1.0  0.55539  0.65061  0.04959  1.0000
  H   H1227     1.0  0.60454  0.65744  0.14844  1.0000
  N   N50       1.0  0.92275  0.65368  0.33256  1.0000
  H   H1228     1.0  0.80401  0.60238  0.12596  1.0000
  C   C731      1.0  0.81654  0.60203  0.14657  1.0000
  H   H1229     1.0  0.91887  0.55169  0.33924  1.0000
  C   C732      1.0  0.60019  0.73708  0.10798  1.0000
  H   H1230     1.0  0.88445  0.63821  0.28723  1.0000
  C   C733      1.0  0.80905  0.59156  0.18891  1.0000
  H   H1231     1.0  0.63438  0.65772  0.28875  1.0000
  C   C734      1.0  0.50808  0.64638  0.06527  1.0000
  H   H1232     1.0  0.72266  0.73146  0.14008  1.0000
  H   H1233     1.0  0.52696  0.61733  0.46689  1.0000
  H   H1234     1.0  0.61634  0.66587  0.34480  1.0000
  C   C735      1.0  0.52933  0.70897  0.52372  1.0000
  H   H1235     1.0  0.65644  0.66669  0.46905  1.0000
  H   H1236     1.0  0.95946  0.65770  0.28298  1.0000
  H   H1237     1.0  0.56427  0.64202  0.06140  1.0000
  C   C736      1.0  0.77820  0.59863  0.19140  1.0000
  H   H1238     1.0  0.83690  0.64281  0.24996  1.0000
  N   N51       1.0  0.79719  0.60019  0.21527  1.0000
  H   H1239     1.0  0.91519  0.70723  0.26717  1.0000
  H   H1240     1.0  0.96982  0.72158  0.52317  1.0000
  H   H1241     1.0  0.63993  0.65376  0.39098  1.0000
  S   S218      1.0  0.60795  0.70828  0.06539  1.0000
  H   H1242     1.0  0.76692  0.70651  0.49152  1.0000
  H   H1243     1.0  0.63058  0.66824  0.13557  1.0000
  H   H1244     1.0  0.95205  0.67074  0.17097  1.0000
  C   C737      1.0  0.55745  0.69654  0.52297  1.0000
  H   H1245     1.0  0.58768  0.67428  0.19264  1.0000
  C   C738      1.0  0.52024  0.51275  0.46027  1.0000
  H   H1246     1.0  0.91155  0.51126  0.27071  1.0000
  H   H1247     1.0  0.60225  0.60185  0.45818  1.0000
  H   H1248     1.0  0.75530  0.72751  0.23800  1.0000
  H   H1249     1.0  0.55929  0.70733  0.16442  1.0000
  H   H1250     1.0  0.55508  0.70042  0.44158  1.0000
  H   H1251     1.0  0.57318  0.73203  0.47081  1.0000
  H   H1252     1.0  0.78168  0.60992  0.16587  1.0000
  C   C739      1.0  0.52054  0.66493  0.09048  1.0000
  C   C740      1.0  0.89579  0.51532  0.36998  1.0000
  C   C741      1.0  0.60425  0.61801  0.27189  1.0000
  H   H1253     1.0  0.57133  0.67566  0.08696  1.0000
  H   H1254     1.0  0.54553  0.72943  0.42323  1.0000
  C   C742      1.0  0.75182  0.69467  0.48797  1.0000
  H   H1255     1.0  0.89237  0.61750  0.29538  1.0000
  C   C743      1.0  0.96014  0.72322  0.32206  1.0000
  H   H1256     1.0  0.59316  0.60407  0.51002  1.0000
  H   H1257     1.0  0.82899  0.62004  0.27732  1.0000
  H   H1258     1.0  0.60374  0.63778  0.50799  1.0000
  N   N52       1.0  0.75097  0.70656  0.18723  1.0000
  C   C744      1.0  0.92865  0.63130  0.18256  1.0000
  C   C745      1.0  0.56325  0.73044  0.49832  1.0000
  C   C746      1.0  0.89258  0.54046  0.29856  1.0000
  C   C747      1.0  0.54204  0.70189  0.45760  1.0000
  H   H1259     1.0  0.60766  0.71691  0.21812  1.0000
  H   H1260     1.0  0.73336  0.63295  0.50419  1.0000
  H   H1261     1.0  0.52377  0.63727  0.40513  1.0000
  H   H1262     1.0  0.92109  0.65840  0.26533  1.0000
  H   H1263     1.0  0.51907  0.52679  0.47009  1.0000
  H   H1264     1.0  0.91651  0.66655  0.41235  1.0000
  H   H1265     1.0  0.73563  0.68908  0.10917  1.0000
  H   H1266     1.0  0.92690  0.63750  0.27915  1.0000
  C   C748      1.0  0.96412  0.71390  0.25048  1.0000
  C   C749      1.0  0.60544  0.72245  0.18754  1.0000
  H   H1267     1.0  0.93509  0.53408  0.38046  1.0000
  C   C750      1.0  0.58834  0.67040  0.22636  1.0000
  S   S219      1.0  0.48826  0.51636  0.04021  1.0000
  H   H1268     1.0  0.75993  0.66996  0.47445  1.0000
  H   H1269     1.0  0.59616  0.66561  0.31125  1.0000
  H   H1270     1.0  0.53954  0.68365  0.16577  1.0000
  H   H1271     1.0  0.62189  0.66852  0.52405  1.0000
  N   N53       1.0  0.61244  0.65221  0.23738  1.0000
  H   H1272     1.0  0.62699  0.68015  0.20452  1.0000
  C   C751      1.0  0.88272  0.60773  0.04232  1.0000
  C   C752      1.0  0.94459  0.66770  0.33291  1.0000
  H   H1273     1.0  0.72119  0.68300  0.19025  1.0000
  C   C753      1.0  0.77944  0.56693  0.25343  1.0000
  C   C754      1.0  0.60725  0.65861  0.31658  1.0000
  H   H1274     1.0  0.59903  0.64301  0.32470  1.0000
  H   H1275     1.0  0.61398  0.62272  0.30050  1.0000
  C   C755      1.0  0.91549  0.67624  0.38614  1.0000
  H   H1276     1.0  0.76912  0.56302  0.22571  1.0000
  H   H1277     1.0  0.93024  0.64323  0.39192  1.0000
  H   H1278     1.0  0.91410  0.61863  0.18618  1.0000
  H   H1279     1.0  0.57029  0.69622  0.50399  1.0000
  H   H1280     1.0  0.95822  0.64517  0.33312  1.0000
  H   H1281     1.0  0.64163  0.66561  0.20808  1.0000
  S   S220      1.0  0.52224  0.57509  0.04150  1.0000
  S   S221      1.0  0.69433  0.67470  0.52617  1.0000
  H   H1282     1.0  0.88072  0.51389  0.35741  1.0000
  H   H1283     1.0  0.56526  0.68642  0.15473  1.0000
  N   N54       1.0  0.54172  0.67663  0.07606  1.0000
  C   C756      1.0  0.96858  0.66955  0.51721  1.0000
  H   H1284     1.0  0.92304  0.54363  0.28898  1.0000
  H   H1285     1.0  0.81156  0.63054  0.19478  1.0000
  H   H1286     1.0  0.62037  0.64315  0.15149  1.0000
  H   H1287     1.0  0.78982  0.68252  0.51723  1.0000
  H   H1288     1.0  0.92983  0.71986  0.33768  1.0000
  H   H1289     1.0  0.77513  0.69572  0.19497  1.0000
  H   H1290     1.0  0.63310  0.66678  0.44935  1.0000
  C   C757      1.0  0.75159  0.67421  0.49937  1.0000
  C   C758      1.0  0.96010  0.65935  0.31778  1.0000
  H   H1291     1.0  0.78915  0.55823  0.25219  1.0000
  C   C759      1.0  0.96990  0.68790  0.12077  1.0000
  H   H1292     1.0  0.60071  0.68258  0.24194  1.0000
  H   H1293     1.0  0.88637  0.62564  0.36060  1.0000
  H   H1294     1.0  0.61331  0.70138  0.15281  1.0000
  H   H1295     1.0  0.69051  0.63396  0.52223  1.0000
  C   C760      1.0  0.55356  0.69264  0.14929  1.0000
  H   H1296     1.0  0.64966  0.61003  0.49664  1.0000
  H   H1297     1.0  0.92982  0.68932  0.38448  1.0000
  H   H1298     1.0  0.82439  0.59399  0.12935  1.0000
  H   H1299     1.0  0.97027  0.68910  0.08590  1.0000
  Fe  Fe107     1.0  0.95322  0.56854  0.07915  1.0000
  C   C761      1.0  0.82996  0.62665  0.24549  1.0000
  H   H1300     1.0  0.80662  0.58997  0.27298  1.0000
  H   H1301     1.0  0.76701  0.61510  0.23567  1.0000
  C   C762      1.0  0.93945  0.71814  0.31341  1.0000
  H   H1302     1.0  0.58103  0.64198  0.25628  1.0000
  H   H1303     1.0  0.89754  0.63149  0.41283  1.0000
  H   H1304     1.0  0.96066  0.52809  0.43359  1.0000
  N   N55       1.0  0.91107  0.52020  0.33524  1.0000
  H   H1305     1.0  0.64886  0.72674  0.29400  1.0000
  H   H1306     1.0  0.86939  0.62534  0.07453  1.0000
  C   C763      1.0  0.79248  0.58913  0.25650  1.0000
  H   H1307     1.0  0.58852  0.61623  0.27841  1.0000
  H   H1308     1.0  0.53690  0.66704  0.50147  1.0000
  H   H1309     1.0  0.93820  0.66995  0.12413  1.0000
  H   H1310     1.0  0.52078  0.65972  0.12346  1.0000
  C   C764      1.0  0.97133  0.64808  0.15021  1.0000
  S   S222      1.0  0.95268  0.58914  0.49147  1.0000
  S   S223      1.0  0.91884  0.62301  0.49057  1.0000
  H   H1311     1.0  0.90043  0.57563  0.08992  1.0000
  N   N56       1.0  0.95401  0.64993  0.12515  1.0000
  C   C765      1.0  0.89152  0.59373  0.04658  1.0000
  H   H1312     1.0  0.57421  0.66949  0.24186  1.0000
  H   H1313     1.0  0.94611  0.52226  0.29373  1.0000
  H   H1314     1.0  0.97310  0.65993  0.07034  1.0000
  C   C766      1.0  0.59103  0.65064  0.23081  1.0000
  H   H1315     1.0  0.80049  0.62769  0.24487  1.0000
  H   H1316     1.0  0.78548  0.59607  0.27912  1.0000
  H   H1317     1.0  0.74917  0.60142  0.19643  1.0000
  H   H1318     1.0  0.75461  0.58867  0.23998  1.0000
  H   H1319     1.0  0.77136  0.58440  0.17450  1.0000
  H   H1320     1.0  0.76963  0.56224  0.28147  1.0000
  H   H1321     1.0  0.97377  0.71234  0.22612  1.0000
  C   C767      1.0  0.93151  0.52329  0.35425  1.0000
  C   C768      1.0  0.78107  0.71201  0.13669  1.0000
  H   H1322     1.0  0.62416  0.61886  0.06302  1.0000
  C   C769      1.0  0.73486  0.67805  0.13363  1.0000
  H   H1323     1.0  0.77419  0.70887  0.26796  1.0000
  H   H1324     1.0  0.51663  0.69450  0.51954  1.0000
  C   C770      1.0  0.80909  0.62162  0.22421  1.0000
  H   H1325     1.0  0.88193  0.49545  0.42154  1.0000
  C   C771      1.0  0.95445  0.58150  0.26599  1.0000
  H   H1326     1.0  0.93989  0.62822  0.20280  1.0000
  C   C772      1.0  0.77267  0.70876  0.18180  1.0000
  C   C773      1.0  0.57792  0.73873  0.53584  1.0000
  C   C774      1.0  0.53419  0.71435  0.42808  1.0000
  H   H1327     1.0  0.95363  0.54650  0.31627  1.0000
  C   C775      1.0  0.91758  0.64593  0.28822  1.0000
  H   H1328     1.0  0.74719  0.69463  0.45431  1.0000
  H   H1329     1.0  0.88799  0.49934  0.29585  1.0000
  H   H1330     1.0  0.74111  0.67533  0.19866  1.0000
  H   H1331     1.0  0.75196  0.70391  0.29811  1.0000
  C   C776      1.0  0.76150  0.60114  0.21791  1.0000
  H   H1332     1.0  0.84037  0.62260  0.22569  1.0000
  C   C777      1.0  0.54990  0.69522  0.10184  1.0000
  H   H1333     1.0  0.53004  0.68690  0.45775  1.0000
  H   H1334     1.0  0.91160  0.67661  0.31859  1.0000
  S   S224      1.0  0.96328  0.56716  0.14699  1.0000
  H   H1335     1.0  0.89608  0.55395  0.27903  1.0000
  C   C778      1.0  0.97247  0.72112  0.29035  1.0000
  H   H1336     1.0  0.51987  0.71498  0.43918  1.0000
  C   C779      1.0  0.63784  0.67220  0.51553  1.0000
  H   H1337     1.0  0.74637  0.67169  0.12770  1.0000
  C   C780      1.0  0.94213  0.65165  0.04822  1.0000
  H   H1338     1.0  0.95267  0.65940  0.52234  1.0000
  C   C781      1.0  0.97348  0.62802  0.14813  1.0000
  H   H1339     1.0  0.62386  0.60027  0.51503  1.0000
  C   C782      1.0  0.95872  0.49868  0.44933  1.0000
  H   H1340     1.0  0.93191  0.50985  0.36945  1.0000
  Fe  Fe108     1.0  0.97280  0.60261  0.43662  1.0000
  C   C783      1.0  0.63899  0.61186  0.51958  1.0000
  C   C784      1.0  0.63888  0.63279  0.51800  1.0000
  H   H1341     1.0  0.52345  0.71948  0.50857  1.0000
  S   S225      1.0  0.95183  0.59591  0.04986  1.0000
  H   H1342     1.0  0.96023  0.61599  0.16115  1.0000
  S   S226      1.0  0.55936  0.62496  0.53049  1.0000
  H   H1343     1.0  0.65483  0.64265  0.52426  1.0000
  H   H1344     1.0  0.92757  0.63884  0.04945  1.0000
  C   C785      1.0  0.56241  0.52380  0.49168  1.0000
  S   S227      1.0  0.53774  0.56674  0.52301  1.0000
  H   H1345     1.0  0.79626  0.71119  0.13749  1.0000
  C   C786      1.0  0.97129  0.67131  0.46902  1.0000
  H   H1346     1.0  0.96923  0.68399  0.52872  1.0000
  H   H1347     1.0  0.78315  0.72687  0.12467  1.0000
  C   C787      1.0  0.90461  0.50471  0.30128  1.0000
  H   H1348     1.0  0.75675  0.73637  0.16732  1.0000
  C   C788      1.0  0.92458  0.49540  0.49445  1.0000
  C   C789      1.0  0.54344  0.51589  0.51930  1.0000
  H   H1349     1.0  0.55558  0.74085  0.49195  1.0000
  C   C790      1.0  0.50754  0.49836  0.52941  1.0000
  H   H1350     1.0  0.50557  0.51231  0.53649  1.0000
  H   H1351     1.0  0.93710  0.62304  0.88219  1.0000
  Fe  Fe109     1.0  0.54581  0.55929  0.58767  1.0000
  S   S228      1.0  0.54872  0.58777  0.61604  1.0000
  H   H1352     1.0  0.56293  0.58972  0.70884  1.0000
  Fe  Fe110     1.0  0.51605  0.57256  0.63092  1.0000
  S   S229      1.0  0.50483  0.57779  0.69413  1.0000
  C   C791      1.0  0.59354  0.64213  0.94621  1.0000
  S   S230      1.0  0.51373  0.54308  0.60745  1.0000
  N   N57       1.0  0.47993  0.49845  0.87697  1.0000
  Fe  Fe111     1.0  0.53042  0.56125  0.92708  1.0000
  S   S231      1.0  0.49974  0.55757  0.95028  1.0000
  S   S232      1.0  0.53649  0.55123  0.86315  1.0000
  H   H1353     1.0  0.93086  0.68663  0.99272  1.0000
  H   H1354     1.0  0.91656  0.60466  0.80082  1.0000
  C   C792      1.0  0.97331  0.67214  0.77048  1.0000
  H   H1355     1.0  0.59979  0.66623  0.01739  1.0000
  H   H1356     1.0  0.90458  0.64897  0.89683  1.0000
  Fe  Fe112     1.0  0.51593  0.58721  0.97987  1.0000
  S   S233      1.0  0.50271  0.61053  0.97789  1.0000
  S   S234      1.0  0.53874  0.54765  0.98461  1.0000
  S   S235      1.0  0.54570  0.59179  0.95167  1.0000
  Fe  Fe113     1.0  0.62347  0.72123  0.91305  1.0000
  S   S236      1.0  0.60287  0.73420  0.88173  1.0000
  S   S237      1.0  0.50554  0.58168  0.56957  1.0000
  Fe  Fe114     1.0  0.57902  0.71293  0.92283  1.0000
  S   S238      1.0  0.54761  0.69527  0.89937  1.0000
  S   S239      1.0  0.59898  0.69848  0.94931  1.0000
  Fe  Fe115     1.0  0.67228  0.63126  0.65846  1.0000
  S   S240      1.0  0.65915  0.65033  0.62385  1.0000
  S   S241      1.0  0.65526  0.59917  0.67179  1.0000
  Fe  Fe116     1.0  0.71262  0.66456  0.67545  1.0000
  S   S242      1.0  0.70199  0.68650  0.64343  1.0000
  S   S243      1.0  0.74470  0.67626  0.70268  1.0000
  Fe  Fe117     1.0  0.67268  0.67158  0.67682  1.0000
  S   S244      1.0  0.65155  0.68596  0.69889  1.0000
  Fe  Fe118     1.0  0.68946  0.66351  0.59351  1.0000
  S   S245      1.0  0.68421  0.65159  0.71355  1.0000
  S   S246      1.0  0.70162  0.64240  0.62354  1.0000
  Fe  Fe119     1.0  0.88465  0.68641  0.73030  1.0000
  S   S247      1.0  0.89739  0.66681  0.76477  1.0000
  S   S248      1.0  0.90092  0.71883  0.71961  1.0000
  Fe  Fe120     1.0  0.84492  0.65344  0.70799  1.0000
  S   S249      1.0  0.85520  0.63109  0.73915  1.0000
  S   S250      1.0  0.81323  0.64181  0.67868  1.0000
  Fe  Fe121     1.0  0.86635  0.65281  0.79184  1.0000
  S   S251      1.0  0.85850  0.63910  0.85685  1.0000
  Fe  Fe122     1.0  0.88522  0.64688  0.70907  1.0000
  S   S252      1.0  0.90514  0.63129  0.68609  1.0000
  S   S253      1.0  0.85458  0.67433  0.76238  1.0000
  S   S254      1.0  0.87415  0.66734  0.67294  1.0000
  H   H1357     1.0  0.85938  0.58475  0.92355  1.0000
  H   H1358     1.0  0.57021  0.73723  0.56627  1.0000
  C   C793      1.0  0.90260  0.63959  0.60127  1.0000
  C   C794      1.0  0.90795  0.62838  0.63152  1.0000
  C   C795      1.0  0.91654  0.61513  0.61830  1.0000
  C   C796      1.0  0.91966  0.61303  0.57516  1.0000
  H   H1359     1.0  0.80462  0.66332  0.86260  1.0000
  H   H1360     1.0  0.89602  0.64985  0.61100  1.0000
  H   H1361     1.0  0.92066  0.60636  0.64147  1.0000
  H   H1362     1.0  0.92614  0.60268  0.56531  1.0000
  C   C797      1.0  0.76360  0.66663  0.69446  1.0000
  C   C798      1.0  0.78339  0.67734  0.70891  1.0000
  C   C799      1.0  0.79882  0.67009  0.70388  1.0000
  C   C800      1.0  0.79457  0.65197  0.68446  1.0000
  C   C801      1.0  0.77482  0.64134  0.66962  1.0000
  C   C802      1.0  0.75938  0.64859  0.67467  1.0000
  H   H1363     1.0  0.78680  0.69134  0.72419  1.0000
  H   H1364     1.0  0.81397  0.67852  0.71511  1.0000
  H   H1365     1.0  0.77138  0.62729  0.65459  1.0000
  H   H1366     1.0  0.74419  0.64011  0.66372  1.0000
  C   C803      1.0  0.64884  0.70529  0.83487  1.0000
  C   C804      1.0  0.66446  0.69940  0.82291  1.0000
  C   C805      1.0  0.66528  0.69306  0.78153  1.0000
  C   C806      1.0  0.65061  0.69287  0.75170  1.0000
  H   H1367     1.0  0.48526  0.53818  0.87191  1.0000
  H   H1368     1.0  0.67608  0.69985  0.84562  1.0000
  H   H1369     1.0  0.67746  0.68868  0.77250  1.0000
  C   C807      1.0  0.51576  0.63311  0.95231  1.0000
  C   C808      1.0  0.53671  0.64045  0.94690  1.0000
  C   C809      1.0  0.54674  0.65949  0.93020  1.0000
  C   C810      1.0  0.53577  0.67102  0.91830  1.0000
  C   C811      1.0  0.51481  0.66336  0.92259  1.0000
  C   C812      1.0  0.50491  0.64463  0.94002  1.0000
  H   H1370     1.0  0.54520  0.63173  0.95677  1.0000
  H   H1371     1.0  0.56286  0.66522  0.92634  1.0000
  H   H1372     1.0  0.50622  0.67211  0.91328  1.0000
  H   H1373     1.0  0.48873  0.63907  0.94414  1.0000
  H   H1374     1.0  0.95540  0.61442  0.74543  1.0000
  C   C813      1.0  0.87245  0.67664  0.97658  1.0000
  C   C814      1.0  0.87541  0.68563  0.93659  1.0000
  C   C815      1.0  0.87137  0.67431  0.89966  1.0000
  C   C816      1.0  0.86365  0.65383  0.90250  1.0000
  C   C817      1.0  0.85998  0.64480  0.94246  1.0000
  C   C818      1.0  0.86468  0.65615  0.97942  1.0000
  H   H1375     1.0  0.88062  0.70144  0.93420  1.0000
  H   H1376     1.0  0.87389  0.68141  0.86905  1.0000
  H   H1377     1.0  0.85353  0.62896  0.94505  1.0000
  H   H1378     1.0  0.86212  0.64908  0.01007  1.0000
  C   C819      1.0  0.63134  0.58536  0.64983  1.0000
  C   C820      1.0  0.62013  0.59377  0.62540  1.0000
  C   C821      1.0  0.60078  0.58190  0.60979  1.0000
  C   C822      1.0  0.59281  0.56166  0.61845  1.0000
  C   C823      1.0  0.60420  0.55339  0.64228  1.0000
  C   C824      1.0  0.62324  0.56519  0.65816  1.0000
  H   H1379     1.0  0.62626  0.60936  0.61891  1.0000
  C   C825      1.0  0.74745  0.67616  0.57675  1.0000
  H   H1380     1.0  0.59819  0.53778  0.64891  1.0000
  H   H1381     1.0  0.63179  0.55859  0.67695  1.0000
  C   C826      1.0  0.51330  0.56987  0.74086  1.0000
  C   C827      1.0  0.50882  0.57580  0.78007  1.0000
  C   C828      1.0  0.51580  0.57017  0.81785  1.0000
  C   C829      1.0  0.52716  0.55838  0.81661  1.0000
  C   C830      1.0  0.53132  0.55211  0.77746  1.0000
  C   C831      1.0  0.52453  0.55794  0.73966  1.0000
  H   H1382     1.0  0.51250  0.57507  0.84784  1.0000
  H   H1383     1.0  0.54001  0.54290  0.77633  1.0000
  H   H1384     1.0  0.52800  0.55322  0.70963  1.0000
  H   H1385     1.0  0.79960  0.62828  0.88413  1.0000
  C   C832      1.0  0.86275  0.57724  0.89630  1.0000
  N   N58       1.0  0.75965  0.67189  0.54257  1.0000
  Fe  Fe123     1.0  0.96916  0.59073  0.99637  1.0000
  C   C833      1.0  0.93586  0.72193  0.76303  1.0000
  H   H1386     1.0  0.94968  0.70549  0.68767  1.0000
  H   H1387     1.0  0.94416  0.63142  0.72840  1.0000
  C   C834      1.0  0.65103  0.67233  0.94432  1.0000
  H   H1388     1.0  0.93017  0.70609  0.76336  1.0000
  H   H1389     1.0  0.76884  0.70171  0.61151  1.0000
  H   H1390     1.0  0.92184  0.70300  0.58286  1.0000
  H   H1391     1.0  0.63030  0.63428  0.54583  1.0000
  H   H1392     1.0  0.56888  0.62200  0.69497  1.0000
  C   C835      1.0  0.93032  0.60927  0.90033  1.0000
  C   C836      1.0  0.75467  0.69755  0.59269  1.0000
  H   H1393     1.0  0.90261  0.58600  0.91231  1.0000
  N   N59       1.0  0.89489  0.60696  0.87494  1.0000
  H   H1394     1.0  0.95862  0.63942  0.61061  1.0000
  Fe  Fe124     1.0  0.60581  0.72078  0.00077  1.0000
  C   C837      1.0  0.49265  0.50222  0.83796  1.0000
  C   C838      1.0  0.63392  0.70472  0.80532  1.0000
  H   H1395     1.0  0.93289  0.73200  0.65255  1.0000
  C   C839      1.0  0.92861  0.72521  0.93020  1.0000
  H   H1396     1.0  0.87051  0.56760  0.90768  1.0000
  H   H1397     1.0  0.53060  0.67412  0.55221  1.0000
  C   C840      1.0  0.92434  0.73162  0.74432  1.0000
  H   H1398     1.0  0.87648  0.58242  0.83575  1.0000
  C   C841      1.0  0.63490  0.69865  0.76377  1.0000
  H   H1399     1.0  0.78028  0.66307  0.80055  1.0000
  H   H1400     1.0  0.88103  0.61342  0.01156  1.0000
  C   C842      1.0  0.96978  0.73479  0.66602  1.0000
  S   S255      1.0  0.64893  0.71385  0.88664  1.0000
  H   H1401     1.0  0.58434  0.62051  0.89442  1.0000
  H   H1402     1.0  0.61544  0.62305  0.91185  1.0000
  H   H1403     1.0  0.76549  0.60106  0.88166  1.0000
  H   H1404     1.0  0.65046  0.63516  0.93687  1.0000
  C   C843      1.0  0.95735  0.62731  0.72493  1.0000
  H   H1405     1.0  0.93709  0.69715  0.62255  1.0000
  H   H1406     1.0  0.63736  0.61001  0.94973  1.0000
  H   H1407     1.0  0.55625  0.61845  0.76171  1.0000
  S   S256      1.0  0.94183  0.57158  0.96019  1.0000
  H   H1408     1.0  0.79124  0.59614  0.73951  1.0000
  H   H1409     1.0  0.89150  0.60223  0.78252  1.0000
  H   H1410     1.0  0.84798  0.56743  0.88281  1.0000
  H   H1411     1.0  0.94724  0.66219  0.72665  1.0000
  H   H1412     1.0  0.56430  0.70224  0.55408  1.0000
  C   C844      1.0  0.91439  0.62433  0.54496  1.0000
  H   H1413     1.0  0.64456  0.60938  0.55120  1.0000
  N   N60       1.0  0.78981  0.62843  0.81918  1.0000
  H   H1414     1.0  0.55408  0.59381  0.77536  1.0000
  C   C845      1.0  0.77242  0.63402  0.83136  1.0000
  C   C846      1.0  0.79552  0.61846  0.85613  1.0000
  H   H1415     1.0  0.64085  0.64326  0.72195  1.0000
  H   H1416     1.0  0.89123  0.60898  0.94218  1.0000
  C   C847      1.0  0.76781  0.64841  0.80114  1.0000
  C   C848      1.0  0.77910  0.59893  0.87050  1.0000
  H   H1417     1.0  0.76832  0.60304  0.78658  1.0000
  H   H1418     1.0  0.90786  0.71622  0.87548  1.0000
  H   H1419     1.0  0.77456  0.64033  0.86361  1.0000
  H   H1420     1.0  0.75821  0.62075  0.83329  1.0000
  H   H1421     1.0  0.80948  0.61572  0.84964  1.0000
  H   H1422     1.0  0.63210  0.63771  0.77531  1.0000
  H   H1423     1.0  0.62497  0.68122  0.00027  1.0000
  H   H1424     1.0  0.59280  0.61825  0.63901  1.0000
  H   H1425     1.0  0.61184  0.64061  0.65962  1.0000
  H   H1426     1.0  0.76440  0.64257  0.76866  1.0000
  H   H1427     1.0  0.75422  0.65070  0.81208  1.0000
  H   H1428     1.0  0.96367  0.72535  0.79539  1.0000
  H   H1429     1.0  0.78511  0.59297  0.89755  1.0000
  H   H1430     1.0  0.77480  0.58766  0.84542  1.0000
  H   H1431     1.0  0.62052  0.64922  0.73883  1.0000
  N   N61       1.0  0.59087  0.61320  0.72830  1.0000
  C   C849      1.0  0.57936  0.59279  0.71170  1.0000
  C   C850      1.0  0.58550  0.62747  0.70080  1.0000
  C   C851      1.0  0.58538  0.61515  0.77320  1.0000
  C   C852      1.0  0.61312  0.61731  0.72731  1.0000
  C   C853      1.0  0.58165  0.57573  0.73709  1.0000
  C   C854      1.0  0.59539  0.63181  0.65703  1.0000
  C   C855      1.0  0.56272  0.60958  0.78111  1.0000
  C   C856      1.0  0.62725  0.63801  0.74192  1.0000
  H   H1432     1.0  0.58404  0.59140  0.67915  1.0000
  H   H1433     1.0  0.58915  0.64183  0.71674  1.0000
  H   H1434     1.0  0.59087  0.60623  0.79503  1.0000
  H   H1435     1.0  0.59311  0.63055  0.78423  1.0000
  H   H1436     1.0  0.61690  0.60686  0.74802  1.0000
  H   H1437     1.0  0.61783  0.61455  0.69561  1.0000
  H   H1438     1.0  0.57169  0.56166  0.72242  1.0000
  H   H1439     1.0  0.59720  0.57598  0.73579  1.0000
  H   H1440     1.0  0.57686  0.57528  0.77025  1.0000
  H   H1441     1.0  0.58865  0.64067  0.63817  1.0000
  H   H1442     1.0  0.56052  0.61224  0.81473  1.0000
  C   C857      1.0  0.90877  0.59646  0.88584  1.0000
  H   H1443     1.0  0.78089  0.62325  0.75337  1.0000
  C   C858      1.0  0.52949  0.69471  0.01811  1.0000
  H   H1444     1.0  0.96176  0.66122  0.93357  1.0000
  C   C859      1.0  0.78323  0.61508  0.78140  1.0000
  H   H1445     1.0  0.91465  0.70030  0.63637  1.0000
  H   H1446     1.0  0.86468  0.59901  0.84866  1.0000
  H   H1447     1.0  0.92243  0.64019  0.92260  1.0000
  H   H1448     1.0  0.73631  0.62058  0.55105  1.0000
  H   H1449     1.0  0.93277  0.73554  0.59727  1.0000
  H   H1450     1.0  0.81242  0.61664  0.75705  1.0000
  C   C860      1.0  0.93091  0.49437  0.96935  1.0000
  C   C861      1.0  0.90652  0.63876  0.92099  1.0000
  H   H1451     1.0  0.95696  0.62230  0.69187  1.0000
  C   C862      1.0  0.81632  0.66224  0.84170  1.0000
  H   H1452     1.0  0.82802  0.65971  0.86164  1.0000
  H   H1453     1.0  0.73143  0.67190  0.56629  1.0000
  H   H1454     1.0  0.63365  0.65047  0.01386  1.0000
  H   H1455     1.0  0.94057  0.65648  0.78190  1.0000
  H   H1456     1.0  0.53757  0.67002  0.00903  1.0000
  C   C863      1.0  0.97038  0.72802  0.59022  1.0000
  C   C864      1.0  0.80810  0.64617  0.80757  1.0000
  C   C865      1.0  0.89157  0.61752  0.91298  1.0000
  N   N62       1.0  0.94509  0.71722  0.92888  1.0000
  H   H1457     1.0  0.93064  0.61254  0.93452  1.0000
  H   H1458     1.0  0.82313  0.67685  0.82620  1.0000
  C   C866      1.0  0.53144  0.71409  0.57103  1.0000
  H   H1459     1.0  0.80771  0.69411  0.58879  1.0000
  C   C867      1.0  0.87471  0.59173  0.86157  1.0000
  S   S257      1.0  0.94206  0.51965  0.95612  1.0000
  H   H1460     1.0  0.48297  0.49588  0.80972  1.0000
  H   H1461     1.0  0.74324  0.69881  0.61436  1.0000
  C   C868      1.0  0.93867  0.72845  0.62264  1.0000
  H   H1462     1.0  0.94648  0.68836  0.92345  1.0000
  H   H1463     1.0  0.82091  0.64174  0.80038  1.0000
  H   H1464     1.0  0.80571  0.65302  0.77759  1.0000
  H   H1465     1.0  0.96526  0.61444  0.84259  1.0000
  H   H1466     1.0  0.62349  0.69849  0.74080  1.0000
  C   C869      1.0  0.96510  0.73107  0.54397  1.0000
  H   H1467     1.0  0.80053  0.59594  0.79205  1.0000
  C   C870      1.0  0.95088  0.66716  0.75974  1.0000
  Fe  Fe125     1.0  0.50850  0.54545  0.00928  1.0000
  H   H1468     1.0  0.62177  0.70914  0.81428  1.0000
  S   S258      1.0  0.56887  0.54598  0.59981  1.0000
  H   H1469     1.0  0.62259  0.67368  0.92648  1.0000
  C   C871      1.0  0.93663  0.69426  0.86314  1.0000
  H   H1470     1.0  0.50351  0.52311  0.90641  1.0000
  H   H1471     1.0  0.89186  0.62853  0.83145  1.0000
  C   C872      1.0  0.79788  0.60552  0.76740  1.0000
  H   H1472     1.0  0.47512  0.52985  0.82003  1.0000
  C   C873      1.0  0.90589  0.61222  0.79701  1.0000
  C   C874      1.0  0.90256  0.62113  0.83861  1.0000
  H   H1473     1.0  0.94763  0.65245  0.01546  1.0000
  H   H1474     1.0  0.91705  0.63322  0.84645  1.0000
  H   H1475     1.0  0.87651  0.61853  0.91092  1.0000
  H   H1476     1.0  0.90306  0.64367  0.95188  1.0000
  N   N63       1.0  0.96147  0.73696  0.62301  1.0000
  C   C875      1.0  0.63833  0.62510  0.95690  1.0000
  H   H1477     1.0  0.91256  0.62429  0.77390  1.0000
  Fe  Fe126     1.0  0.94406  0.54589  0.99620  1.0000
  H   H1478     1.0  0.59211  0.58834  0.59098  1.0000
  H   H1479     1.0  0.74678  0.66708  0.60541  1.0000
  H   H1480     1.0  0.97198  0.70564  0.66006  1.0000
  H   H1481     1.0  0.96340  0.63061  0.96453  1.0000
  H   H1482     1.0  0.72483  0.63826  0.55420  1.0000
  H   H1483     1.0  0.78428  0.70059  0.54432  1.0000
  H   H1484     1.0  0.51667  0.70638  0.58638  1.0000
  H   H1485     1.0  0.57082  0.63627  0.89618  1.0000
  H   H1486     1.0  0.91533  0.71478  0.94698  1.0000
  H   H1487     1.0  0.53510  0.70937  0.03312  1.0000
  H   H1488     1.0  0.53597  0.73015  0.57559  1.0000
  H   H1489     1.0  0.59077  0.65575  0.95179  1.0000
  H   H1490     1.0  0.92854  0.67854  0.85508  1.0000
  Fe  Fe127     1.0  0.50547  0.55289  0.54494  1.0000
  H   H1491     1.0  0.90952  0.58664  0.86009  1.0000
  H   H1492     1.0  0.78445  0.67991  0.61392  1.0000
  H   H1493     1.0  0.94776  0.68080  0.76214  1.0000
  C   C876      1.0  0.61583  0.66792  0.01824  1.0000
  C   C877      1.0  0.75793  0.65083  0.54688  1.0000
  H   H1494     1.0  0.95211  0.69865  0.85059  1.0000
  H   H1495     1.0  0.65644  0.66430  0.96799  1.0000
  H   H1496     1.0  0.94034  0.60114  0.89518  1.0000
  H   H1497     1.0  0.62910  0.65696  0.89632  1.0000
  H   H1498     1.0  0.94901  0.65775  0.59284  1.0000
  C   C878      1.0  0.92799  0.70604  0.61556  1.0000
  C   C879      1.0  0.90590  0.63761  0.55824  1.0000
  C   C880      1.0  0.95236  0.71629  0.97361  1.0000
  H   H1499     1.0  0.92152  0.68815  0.92264  1.0000
  H   H1500     1.0  0.64243  0.62739  0.99080  1.0000
  C   C881      1.0  0.96591  0.71377  0.68145  1.0000
  H   H1501     1.0  0.50012  0.58502  0.78120  1.0000
  H   H1502     1.0  0.66108  0.67499  0.91671  1.0000
  S   S259      1.0  0.58393  0.73384  0.97691  1.0000
  H   H1503     1.0  0.95270  0.63454  0.80286  1.0000
  C   C882      1.0  0.96899  0.64204  0.81045  1.0000
  C   C883      1.0  0.62882  0.66195  0.92924  1.0000
  S   S260      1.0  0.89945  0.58530  0.00158  1.0000
  H   H1504     1.0  0.65358  0.68715  0.95680  1.0000
  C   C884      1.0  0.61851  0.64927  0.00281  1.0000
  H   H1505     1.0  0.58314  0.63082  0.96772  1.0000
  Fe  Fe128     1.0  0.92467  0.57509  0.01568  1.0000
  H   H1506     1.0  0.59592  0.64595  0.87675  1.0000
  C   C885      1.0  0.93715  0.69656  0.91149  1.0000
  C   C886      1.0  0.61778  0.62630  0.94613  1.0000
  N   N64       1.0  0.61526  0.64524  0.95612  1.0000
  H   H1507     1.0  0.50013  0.51822  0.83157  1.0000
  H   H1508     1.0  0.60607  0.61372  0.96240  1.0000
  H   H1509     1.0  0.52008  0.50791  0.94480  1.0000
  H   H1510     1.0  0.92861  0.70251  0.84665  1.0000
  C   C887      1.0  0.58608  0.63588  0.90061  1.0000
  S   S261      1.0  0.97308  0.56487  0.02827  1.0000
  H   H1511     1.0  0.95955  0.73060  0.87017  1.0000
  C   C888      1.0  0.93677  0.70204  0.00385  1.0000
  H   H1512     1.0  0.51738  0.49788  0.80725  1.0000
  H   H1513     1.0  0.95747  0.73093  0.98892  1.0000
  C   C889      1.0  0.49252  0.50830  0.91507  1.0000
  C   C890      1.0  0.95495  0.73286  0.78078  1.0000
  H   H1514     1.0  0.56296  0.65839  0.02068  1.0000
  Fe  Fe129     1.0  0.55165  0.57816  0.01189  1.0000
  H   H1515     1.0  0.79678  0.66814  0.58121  1.0000
  S   S262      1.0  0.87885  0.69158  0.02194  1.0000
  H   H1516     1.0  0.96953  0.65092  0.83901  1.0000
  C   C891      1.0  0.50446  0.49737  0.93823  1.0000
  H   H1517     1.0  0.64638  0.66964  0.54295  1.0000
  Fe  Fe130     1.0  0.53844  0.59460  0.55249  1.0000
  H   H1518     1.0  0.96604  0.71204  0.59475  1.0000
  C   C892      1.0  0.92035  0.72949  0.88755  1.0000
  H   H1519     1.0  0.54205  0.70899  0.58846  1.0000
  C   C893      1.0  0.96307  0.73033  0.90419  1.0000
  H   H1520     1.0  0.76240  0.64789  0.57930  1.0000
  H   H1521     1.0  0.96576  0.71203  0.97384  1.0000
  H   H1522     1.0  0.53052  0.69746  0.98356  1.0000
  C   C894      1.0  0.78179  0.68476  0.54529  1.0000
  H   H1523     1.0  0.92403  0.70670  0.00971  1.0000
  H   H1524     1.0  0.51048  0.64797  0.03099  1.0000
  H   H1525     1.0  0.75659  0.70845  0.56723  1.0000
  H   H1526     1.0  0.51332  0.68657  0.02499  1.0000
  C   C895      1.0  0.79315  0.68144  0.58469  1.0000
  H   H1527     1.0  0.96229  0.66054  0.64187  1.0000
  H   H1528     1.0  0.54767  0.50868  0.54690  1.0000
  H   H1529     1.0  0.60791  0.63672  0.02110  1.0000
  H   H1530     1.0  0.91438  0.74124  0.89196  1.0000
  H   H1531     1.0  0.52167  0.50082  0.59243  1.0000
  H   H1532     1.0  0.92373  0.49835  0.03331  1.0000
  H   H1533     1.0  0.55170  0.66713  0.54706  1.0000
  H   H1534     1.0  0.94419  0.70220  0.03499  1.0000
  H   H1535     1.0  0.52194  0.50297  0.86179  1.0000
  H   H1536     1.0  0.48287  0.51102  0.93938  1.0000
  C   C896      1.0  0.96175  0.65536  0.60896  1.0000
  H   H1537     1.0  0.93191  0.73535  0.86303  1.0000
  C   C897      1.0  0.73680  0.63492  0.53853  1.0000
  C   C898      1.0  0.51004  0.49478  0.83854  1.0000
  H   H1538     1.0  0.55830  0.69160  0.02123  1.0000
  H   H1539     1.0  0.96336  0.74121  0.69073  1.0000
  H   H1540     1.0  0.93305  0.73866  0.94997  1.0000
  S   S263      1.0  0.63195  0.74259  0.96675  1.0000
  H   H1541     1.0  0.97386  0.71473  0.71220  1.0000
  C   C899      1.0  0.54243  0.68277  0.03038  1.0000
  S   S264      1.0  0.58369  0.59653  0.03518  1.0000
  H   H1542     1.0  0.96061  0.63275  0.53988  1.0000
  H   H1543     1.0  0.58927  0.73183  0.53798  1.0000
  H   H1544     1.0  0.94871  0.72723  0.53885  1.0000
  Fe  Fe131     1.0  0.58861  0.90228  0.40457  1.0000
  S   S265      1.0  0.60958  0.93374  0.41183  1.0000
  S   S266      1.0  0.55489  0.89166  0.39945  1.0000
  Fe  Fe132     1.0  0.62227  0.88659  0.39989  1.0000
  S   S267      1.0  0.64609  0.91707  0.40625  1.0000
  S   S268      1.0  0.63312  0.86147  0.39169  1.0000
  Fe  Fe133     1.0  0.62621  0.92103  0.45684  1.0000
  S   S269      1.0  0.51701  0.96151  0.05745  1.0000
  Fe  Fe134     1.0  0.62739  0.92710  0.36065  1.0000
  S   S270      1.0  0.63564  0.94312  0.29740  1.0000
  S   S271      1.0  0.60374  0.88996  0.45318  1.0000
  S   S272      1.0  0.60506  0.89618  0.35063  1.0000
  H   H1545     1.0  0.59291  0.83909  0.42556  1.0000
  H   H1546     1.0  0.59331  0.93891  0.32853  1.0000
  S   S273      1.0  0.58622  0.76996  0.42496  1.0000
  H   H1547     1.0  0.65054  0.81696  0.25586  1.0000
  C   C900      1.0  0.62190  0.83251  0.27739  1.0000
  H   H1548     1.0  0.56481  0.78284  0.32631  1.0000
  C   C901      1.0  0.58252  0.92026  0.24383  1.0000
  H   H1549     1.0  0.60158  0.84640  0.29963  1.0000
  H   H1550     1.0  0.59642  0.91856  0.53244  1.0000
  S   S274      1.0  0.52706  0.96355  0.18257  1.0000
  H   H1551     1.0  0.58790  0.96563  0.36541  1.0000
  H   H1552     1.0  0.58799  0.85674  0.52657  1.0000
  H   H1553     1.0  0.59392  0.96598  0.22859  1.0000
  C   C902      1.0  0.59545  0.96875  0.33439  1.0000
  Fe  Fe135     1.0  0.52886  0.97774  0.11829  1.0000
  H   H1554     1.0  0.52640  0.98146  0.33110  1.0000
  H   H1555     1.0  0.49623  0.90562  0.43786  1.0000
  H   H1556     1.0  0.60932  0.82919  0.17950  1.0000
  S   S275      1.0  0.63976  0.93392  0.52020  1.0000
  H   H1557     1.0  0.61759  0.88803  0.53560  1.0000
  H   H1558     1.0  0.56342  0.96789  0.27761  1.0000
  H   H1559     1.0  0.54868  0.94770  0.24747  1.0000
  C   C903      1.0  0.57775  0.96260  0.22227  1.0000
  H   H1560     1.0  0.55151  0.91721  0.24952  1.0000
  Fe  Fe136     1.0  0.50299  0.98403  0.04620  1.0000
  C   C904      1.0  0.54338  0.90633  0.42235  1.0000
  C   C905      1.0  0.55469  0.92526  0.43729  1.0000
  C   C906      1.0  0.54487  0.93741  0.45093  1.0000
  C   C907      1.0  0.52377  0.93033  0.45096  1.0000
  C   C908      1.0  0.51254  0.91116  0.43771  1.0000
  C   C909      1.0  0.52232  0.89929  0.42292  1.0000
  H   H1561     1.0  0.57093  0.93074  0.43740  1.0000
  H   H1562     1.0  0.55360  0.95212  0.46183  1.0000
  H   H1563     1.0  0.59770  0.81179  0.33476  1.0000
  H   H1564     1.0  0.51353  0.88469  0.41145  1.0000
  C   C910      1.0  0.64736  0.96868  0.28698  1.0000
  H   H1565     1.0  0.57688  0.90612  0.22654  1.0000
  C   C911      1.0  0.59688  0.74574  0.14492  1.0000
  H   H1566     1.0  0.61120  0.84304  0.52103  1.0000
  Fe  Fe137     1.0  0.59387  0.74822  0.38521  1.0000
  H   H1567     1.0  0.57236  0.95215  0.19560  1.0000
  C   C912      1.0  0.63956  0.80157  0.25683  1.0000
  C   C913      1.0  0.61994  0.83631  0.40355  1.0000
  C   C914      1.0  0.62945  0.82313  0.39593  1.0000
  C   C915      1.0  0.61928  0.80283  0.40264  1.0000
  C   C916      1.0  0.59956  0.79551  0.41758  1.0000
  C   C917      1.0  0.59027  0.80874  0.42672  1.0000
  C   C918      1.0  0.60035  0.82907  0.41942  1.0000
  H   H1568     1.0  0.64471  0.82864  0.38425  1.0000
  H   H1569     1.0  0.62675  0.79285  0.39635  1.0000
  H   H1570     1.0  0.57505  0.80320  0.43855  1.0000
  C   C919      1.0  0.59018  0.94990  0.30818  1.0000
  C   C920      1.0  0.55490  0.93742  0.32779  1.0000
  C   C921      1.0  0.53240  0.92496  0.31882  1.0000
  H   H1571     1.0  0.55987  0.92974  0.35333  1.0000
  H   H1572     1.0  0.55537  0.95143  0.34168  1.0000
  H   H1573     1.0  0.52369  0.92471  0.34761  1.0000
  H   H1574     1.0  0.52590  0.93110  0.29309  1.0000
  H   H1575     1.0  0.52991  0.90946  0.31189  1.0000
  H   H1576     1.0  0.62229  0.86209  0.26968  1.0000
  H   H1577     1.0  0.58630  0.77639  0.32676  1.0000
  C   C922      1.0  0.56524  0.92171  0.27018  1.0000
  H   H1578     1.0  0.61170  0.78298  0.28191  1.0000
  N   N65       1.0  0.60888  0.81102  0.27197  1.0000
  H   H1579     1.0  0.58649  0.75467  0.53030  1.0000
  H   H1580     1.0  0.63816  0.83768  0.48564  1.0000
  H   H1581     1.0  0.65432  0.97750  0.35166  1.0000
  H   H1582     1.0  0.62623  0.86456  0.49419  1.0000
  C   C923      1.0  0.57838  0.78421  0.30809  1.0000
  H   H1583     1.0  0.64764  0.79270  0.27107  1.0000
  H   H1584     1.0  0.58143  0.81366  0.29395  1.0000
  C   C924      1.0  0.59990  0.80603  0.22812  1.0000
  C   C925      1.0  0.65533  0.98240  0.31917  1.0000
  C   C926      1.0  0.52682  0.97353  0.26571  1.0000
  H   H1585     1.0  0.62643  0.80168  0.31718  1.0000
  C   C927      1.0  0.64193  0.84616  0.51546  1.0000
  Fe  Fe138     1.0  0.52759  0.97749  0.46186  1.0000
  H   H1586     1.0  0.51637  0.95855  0.27023  1.0000
  H   H1587     1.0  0.63493  0.79568  0.22460  1.0000
  C   C928      1.0  0.62108  0.79889  0.28385  1.0000
  H   H1588     1.0  0.61009  0.80649  0.16374  1.0000
  C   C929      1.0  0.64885  0.97531  0.24489  1.0000
  S   S276      1.0  0.51085  0.94494  0.46735  1.0000
  C   C930      1.0  0.61335  0.81678  0.19077  1.0000
  C   C931      1.0  0.61091  0.84682  0.27175  1.0000
  H   H1589     1.0  0.62901  0.83517  0.30948  1.0000
  H   H1590     1.0  0.59484  0.78994  0.22249  1.0000
  C   C932      1.0  0.59182  0.80616  0.30289  1.0000
  H   H1591     1.0  0.63485  0.83751  0.25582  1.0000
  C   C933      1.0  0.56416  0.95497  0.26090  1.0000
  N   N66       1.0  0.56891  0.94120  0.29085  1.0000
  H   H1592     1.0  0.61195  0.97488  0.34114  1.0000
  H   H1593     1.0  0.62977  0.82202  0.19671  1.0000
  H   H1594     1.0  0.59511  0.92007  0.26455  1.0000
  H   H1595     1.0  0.58603  0.80942  0.22504  1.0000
  H   H1596     1.0  0.57319  0.77676  0.27743  1.0000
  H   H1597     1.0  0.58845  0.93212  0.22024  1.0000
  H   H1598     1.0  0.60143  0.84386  0.24272  1.0000
  H   H1599     1.0  0.56220  0.90990  0.29459  1.0000
  H   H1600     1.0  0.60149  0.95331  0.28300  1.0000
  H   H1601     1.0  0.64272  0.96479  0.21979  1.0000
  C   C934      1.0  0.62618  0.85540  0.52241  1.0000
  C   C935      1.0  0.48410  0.99234  0.21436  1.0000
  H   H1602     1.0  0.59223  0.75809  0.14259  1.0000
  H   H1603     1.0  0.48054  0.98975  0.18018  1.0000
  H   H1604     1.0  0.57706  0.97682  0.21198  1.0000
  S   S277      1.0  0.61977  0.75459  0.34100  1.0000
  H   H1605     1.0  0.59170  0.98015  0.31732  1.0000
  H   H1606     1.0  0.64684  0.89537  0.50478  1.0000
  H   H1607     1.0  0.97357  0.74641  0.53337  1.0000
  C   C936      1.0  0.53429  0.98000  0.22530  1.0000
  C   C937      1.0  0.65817  0.89567  0.52921  1.0000
  H   H1608     1.0  0.67038  0.89235  0.51416  1.0000
  C   C938      1.0  0.53249  0.98647  0.30019  1.0000
  S   S278      1.0  0.59398  0.74894  0.23019  1.0000
  H   H1609     1.0  0.49193  0.96551  0.51948  1.0000
  H   H1610     1.0  0.48532  0.97887  0.22818  1.0000
  H   H1611     1.0  0.65734  0.85741  0.51179  1.0000
  H   H1612     1.0  0.58974  0.96883  0.52321  1.0000
  N   N67       1.0  0.62862  0.86683  0.56274  1.0000
  H   H1613     1.0  0.65055  0.93326  0.60779  1.0000
  H   H1614     1.0  0.96108  0.75914  0.91587  1.0000
  H   H1615     1.0  0.52111  0.79763  0.89569  1.0000
  S   S279      1.0  0.61995  0.78760  0.93855  1.0000
  N   N68       1.0  0.61585  0.98459  0.61960  1.0000
  Fe  Fe139     1.0  0.59899  0.90655  0.74990  1.0000
  S   S280      1.0  0.62792  0.90241  0.76408  1.0000
  S   S281      1.0  0.58637  0.90834  0.68454  1.0000
  Fe  Fe140     1.0  0.58720  0.90351  0.84366  1.0000
  S   S282      1.0  0.61502  0.89843  0.86428  1.0000
  S   S283      1.0  0.56413  0.90226  0.89321  1.0000
  Fe  Fe141     1.0  0.63061  0.92285  0.81839  1.0000
  S   S284      1.0  0.65698  0.94929  0.84131  1.0000
  Fe  Fe142     1.0  0.60949  0.87829  0.80855  1.0000
  S   S285      1.0  0.60747  0.84664  0.80231  1.0000
  S   S286      1.0  0.60304  0.92888  0.80073  1.0000
  S   S287      1.0  0.58033  0.88152  0.79131  1.0000
  N   N69       1.0  0.49721  0.95978  0.91083  1.0000
  C   C939      1.0  0.62435  0.85270  0.59951  1.0000
  H   H1616     1.0  0.61661  0.95205  0.69938  1.0000
  C   C940      1.0  0.56407  0.92423  0.91546  1.0000
  C   C941      1.0  0.57558  0.94264  0.89848  1.0000
  C   C942      1.0  0.57580  0.95987  0.91768  1.0000
  C   C943      1.0  0.56453  0.95891  0.95399  1.0000
  C   C944      1.0  0.55267  0.94053  0.97055  1.0000
  C   C945      1.0  0.55241  0.92326  0.95127  1.0000
  H   H1617     1.0  0.58441  0.94362  0.87065  1.0000
  H   H1618     1.0  0.58486  0.97403  0.90440  1.0000
  H   H1619     1.0  0.54399  0.93961  0.99863  1.0000
  H   H1620     1.0  0.54341  0.90909  0.96457  1.0000
  C   C946      1.0  0.61664  0.80374  0.89981  1.0000
  C   C947      1.0  0.62362  0.82395  0.90868  1.0000
  C   C948      1.0  0.62102  0.83733  0.87922  1.0000
  C   C949      1.0  0.61152  0.83061  0.84038  1.0000
  C   C950      1.0  0.60482  0.81044  0.83124  1.0000
  C   C951      1.0  0.60725  0.79703  0.86085  1.0000
  H   H1621     1.0  0.63100  0.82928  0.93867  1.0000
  H   H1622     1.0  0.62640  0.85282  0.88652  1.0000
  H   H1623     1.0  0.59750  0.80512  0.80119  1.0000
  H   H1624     1.0  0.60180  0.78154  0.85363  1.0000
  H   H1625     1.0  0.57596  0.90854  0.59720  1.0000
  C   C952      1.0  0.61806  0.97184  0.00647  1.0000
  H   H1626     1.0  0.50193  0.94279  0.85989  1.0000
  C   C953      1.0  0.66310  0.96894  0.80504  1.0000
  C   C954      1.0  0.49331  0.92714  0.94804  1.0000
  H   H1627     1.0  0.49207  0.91999  0.91704  1.0000
  C   C955      1.0  0.67468  0.75586  0.77150  1.0000
  C   C956      1.0  0.61419  0.87730  0.56192  1.0000
  H   H1628     1.0  0.49130  0.93626  0.54985  1.0000
  C   C957      1.0  0.61233  0.98074  0.57280  1.0000
  C   C958      1.0  0.59224  0.91371  0.59958  1.0000
  C   C959      1.0  0.60157  0.91471  0.63929  1.0000
  C   C960      1.0  0.62265  0.92152  0.64209  1.0000
  C   C961      1.0  0.63425  0.92767  0.60540  1.0000
  H   H1629     1.0  0.63001  0.92257  0.67256  1.0000
  N   N70       1.0  0.66891  0.77645  0.83239  1.0000
  C   C962      1.0  0.67760  0.78418  0.87541  1.0000
  C   C963      1.0  0.67232  0.79414  0.80445  1.0000
  H   H1630     1.0  0.56244  0.85954  0.87945  1.0000
  H   H1631     1.0  0.58327  0.95511  0.57099  1.0000
  H   H1632     1.0  0.58705  0.98488  0.63904  1.0000
  C   C964      1.0  0.66210  0.80807  0.81889  1.0000
  H   H1633     1.0  0.54903  0.84515  0.82022  1.0000
  H   H1634     1.0  0.64829  0.94399  0.93247  1.0000
  H   H1635     1.0  0.69309  0.79567  0.87270  1.0000
  H   H1636     1.0  0.66844  0.79150  0.89081  1.0000
  H   H1637     1.0  0.66733  0.79008  0.77150  1.0000
  H   H1638     1.0  0.68879  0.80305  0.80191  1.0000
  H   H1639     1.0  0.58648  0.85312  0.58340  1.0000
  H   H1640     1.0  0.60566  0.93992  0.95868  1.0000
  C   C965      1.0  0.65302  0.98823  0.61136  1.0000
  H   H1641     1.0  0.66268  0.97786  0.69967  1.0000
  H   H1642     1.0  0.69697  0.77380  0.81598  1.0000
  H   H1643     1.0  0.66496  0.75568  0.90879  1.0000
  C   C966      1.0  0.95073  0.76300  0.76187  1.0000
  H   H1644     1.0  0.66970  0.81652  0.84728  1.0000
  H   H1645     1.0  0.66328  0.81899  0.79356  1.0000
  H   H1646     1.0  0.64585  0.80019  0.82531  1.0000
  C   C967      1.0  0.61690  0.93607  0.94149  1.0000
  H   H1647     1.0  0.67173  0.97576  0.91692  1.0000
  C   C968      1.0  0.49200  0.95085  0.86745  1.0000
  H   H1648     1.0  0.95634  0.77889  0.76141  1.0000
  H   H1649     1.0  0.67676  0.95758  0.98232  1.0000
  H   H1650     1.0  0.61020  0.83964  0.59398  1.0000
  C   C969      1.0  0.54189  0.82915  0.82582  1.0000
  H   H1651     1.0  0.61458  0.93728  0.90700  1.0000
  H   H1652     1.0  0.92303  0.75971  0.72926  1.0000
  H   H1653     1.0  0.49488  0.99169  0.57080  1.0000
  H   H1654     1.0  0.68189  0.77540  0.93960  1.0000
  H   H1655     1.0  0.69672  0.98051  0.97210  1.0000
  H   H1656     1.0  0.61613  0.88643  0.59053  1.0000
  H   H1657     1.0  0.61890  0.97015  0.91780  1.0000
  H   H1658     1.0  0.64522  0.74903  0.84986  1.0000
  C   C970      1.0  0.56379  0.79804  0.92167  1.0000
  H   H1659     1.0  0.58709  0.87802  0.93204  1.0000
  H   H1660     1.0  0.59367  0.95619  0.63714  1.0000
  C   C971      1.0  0.68049  0.76470  0.81588  1.0000
  H   H1661     1.0  0.61374  0.92034  0.94818  1.0000
  C   C972      1.0  0.96373  0.77142  0.64648  1.0000
  H   H1662     1.0  0.58554  0.82721  0.92098  1.0000
  H   H1663     1.0  0.60012  0.96508  0.70700  1.0000
  H   H1664     1.0  0.66053  0.87478  0.57539  1.0000
  C   C973      1.0  0.64687  0.76371  0.83714  1.0000
  H   H1665     1.0  0.56751  0.82274  0.96122  1.0000
  H   H1666     1.0  0.48296  0.91618  0.96995  1.0000
  C   C974      1.0  0.97224  0.75205  0.91783  1.0000
  C   C975      1.0  0.52158  0.80699  0.92297  1.0000
  H   H1667     1.0  0.54693  0.80535  0.85568  1.0000
  C   C976      1.0  0.63888  0.94850  0.95453  1.0000
  H   H1668     1.0  0.58435  0.85374  0.87804  1.0000
  C   C977      1.0  0.51979  0.96676  0.91765  1.0000
  H   H1669     1.0  0.56928  0.82455  0.84098  1.0000
  H   H1670     1.0  0.52399  0.97181  0.95073  1.0000
  C   C978      1.0  0.57056  0.85143  0.89670  1.0000
  H   H1671     1.0  0.63992  0.77008  0.86112  1.0000
  C   C979      1.0  0.48761  0.94537  0.94585  1.0000
  C   C980      1.0  0.66774  0.97962  0.94847  1.0000
  H   H1672     1.0  0.65256  0.95026  0.75083  1.0000
  C   C981      1.0  0.67203  0.98843  0.81907  1.0000
  H   H1673     1.0  0.57231  0.79306  0.94578  1.0000
  H   H1674     1.0  0.49919  0.98881  0.89099  1.0000
  C   C982      1.0  0.62265  0.86115  0.64305  1.0000
  H   H1675     1.0  0.50879  0.93095  0.96115  1.0000
  H   H1676     1.0  0.49593  0.97080  0.59763  1.0000
  H   H1677     1.0  0.64153  0.94317  0.98622  1.0000
  N   N71       1.0  0.55765  0.82977  0.90012  1.0000
  H   H1678     1.0  0.52629  0.82530  0.83710  1.0000
  H   H1679     1.0  0.96189  0.76134  0.58307  1.0000
  H   H1680     1.0  0.56870  0.79481  0.89062  1.0000
  H   H1681     1.0  0.60867  0.97307  0.97947  1.0000
  C   C983      1.0  0.96244  0.75346  0.78016  1.0000
  H   H1682     1.0  0.64687  0.97174  0.02241  1.0000
  H   H1683     1.0  0.63625  0.87419  0.65147  1.0000
  C   C984      1.0  0.60380  0.91944  0.56287  1.0000
  H   H1684     1.0  0.50655  0.80814  0.92272  1.0000
  C   C985      1.0  0.53811  0.82780  0.92047  1.0000
  H   H1685     1.0  0.58070  0.97870  0.56553  1.0000
  C   C986      1.0  0.61361  0.96530  0.68996  1.0000
  C   C987      1.0  0.66496  0.98087  0.73302  1.0000
  C   C988      1.0  0.55448  0.82156  0.85600  1.0000
  H   H1686     1.0  0.67853  0.75181  0.83667  1.0000
  C   C989      1.0  0.62486  0.92656  0.56569  1.0000
  S   S288      1.0  0.56624  0.98109  0.97798  1.0000
  C   C990      1.0  0.48582  0.97613  0.57887  1.0000
  C   C991      1.0  0.61002  0.96506  0.64183  1.0000
  C   C992      1.0  0.64050  0.97763  0.99580  1.0000
  H   H1687     1.0  0.97329  0.77329  0.67534  1.0000
  H   H1688     1.0  0.58263  0.87352  0.55955  1.0000
  C   C993      1.0  0.65930  0.96523  0.76198  1.0000
  C   C994      1.0  0.68063  0.97367  0.98127  1.0000
  H   H1689     1.0  0.54075  0.82207  0.79460  1.0000
  C   C995      1.0  0.49142  0.97738  0.91483  1.0000
  H   H1690     1.0  0.53144  0.83776  0.90538  1.0000
  C   C996      1.0  0.56909  0.82026  0.92712  1.0000
  H   H1691     1.0  0.67967  0.97920  0.01321  1.0000
  C   C997      1.0  0.93187  0.75214  0.74368  1.0000
  Fe  Fe143     1.0  0.60966  0.75420  0.93796  1.0000
  H   H1692     1.0  0.65071  0.89174  0.59500  1.0000
  H   H1693     1.0  0.54762  0.78912  0.92594  1.0000
  H   H1694     1.0  0.64103  0.76393  0.76677  1.0000
  Fe  Fe144     1.0  0.54495  0.98349  0.02812  1.0000
  H   H1695     1.0  0.63956  0.97170  0.88725  1.0000
  H   H1696     1.0  0.52321  0.79943  0.95251  1.0000
  H   H1697     1.0  0.56498  0.86258  0.95788  1.0000
  C   C998      1.0  0.53295  0.98349  0.88846  1.0000
  H   H1698     1.0  0.54089  0.83305  0.95360  1.0000
  C   C999      1.0  0.63556  0.97698  0.91722  1.0000
  H   H1699     1.0  0.67525  0.99149  0.85214  1.0000
  H   H1700     1.0  0.62105  0.84984  0.66775  1.0000
  N   N72       1.0  0.64517  0.97060  0.95429  1.0000
  H   H1701     1.0  0.49518  0.96261  0.84304  1.0000
  H   H1702     1.0  0.62285  0.76823  0.79960  1.0000
  H   H1703     1.0  0.69184  0.76441  0.90055  1.0000
  H   H1704     1.0  0.52510  0.95452  0.91336  1.0000
  H   H1705     1.0  0.52867  0.98058  0.85474  1.0000
  H   H1706     1.0  0.63640  0.84670  0.60305  1.0000
  C   C1000     1.0  0.96860  0.75870  0.61333  1.0000
  C   C1001     1.0  0.59161  0.86412  0.55766  1.0000
  H   H1707     1.0  0.94757  0.76546  0.65501  1.0000
  C   C1002     1.0  0.57773  0.86241  0.93888  1.0000
  H   H1708     1.0  0.60907  0.86489  0.64503  1.0000
  H   H1709     1.0  0.67634  0.76705  0.74670  1.0000
  C   C1003     1.0  0.63319  0.76023  0.79715  1.0000
  C   C1004     1.0  0.67906  0.76886  0.90756  1.0000
  H   H1710     1.0  0.49638  0.98444  0.94616  1.0000
  H   H1711     1.0  0.61731  0.95587  0.62731  1.0000
  H   H1712     1.0  0.68499  0.74838  0.76317  1.0000
  H   H1713     1.0  0.58737  0.85652  0.95778  1.0000
  H   H1714     1.0  0.65033  0.97379  0.62630  1.0000
  H   H1715     1.0  0.96723  0.78638  0.63322  1.0000
  H   H1716     1.0  0.48036  0.93842  0.59842  1.0000
  H   H1717     1.0  0.62696  0.97776  0.70122  1.0000
  C   C1005     1.0  0.64975  0.88201  0.56773  1.0000
  H   H1718     1.0  0.65304  0.98694  0.57656  1.0000
  H   H1719     1.0  0.54892  0.98495  0.89184  1.0000
  H   H1720     1.0  0.47662  0.90482  0.58662  1.0000
  H   H1721     1.0  0.65930  0.74426  0.77078  1.0000
  H   H1722     1.0  0.49181  0.95275  0.97699  1.0000
  H   H1723     1.0  0.61162  0.95681  0.02013  1.0000
  H   H1724     1.0  0.62038  0.97145  0.56143  1.0000
  H   H1725     1.0  0.61664  0.98222  0.03009  1.0000
  C   C1006     1.0  0.59014  0.97023  0.55811  1.0000
  H   H1726     1.0  0.62329  0.74441  0.79533  1.0000
  C   C1007     1.0  0.47654  0.93299  0.56556  1.0000
  H   H1727     1.0  0.66529  0.91113  0.54006  1.0000
  H   H1728     1.0  0.64185  0.83570  0.54091  1.0000
  C   C1008     1.0  0.47842  0.96447  0.53766  1.0000
