data_image0
_chemical_formula_structural       FeS2FeS2FeSFeS3FeS2FeS2FeSFeS3FeS2FeS2FeSFeS3CHCH2CNHCHCH2C6H4C10H4CH2CH2C2H3NC2HCH2C2H4NCH2CH4CH2CH3C3H6CH2CNHC3HC2H5CNH4CH5CH3NC8H20CHCH2C2HCHCHCH10CH2CH6CH2CHCH3CH6C5H2CHCH4CH2C2H5CHCHC3H4CHCH2CH2CHNCHFeS2FeS2FeSFeS3FeS2FeS2FeSFeS3FeS2FeS2FeSFeS3C2HC6H4CNH2CH4C2H2C6H5C2H4C2H3C3H3C3H2CHCHC2H3CHC3H3C2H2NCHCH2CH2NC3H3C2H17C2H5NC2H3CHCH4CH2C3H4CNH2C2H3C2H3CH5CHC2H3CH3CH5CHCHC5H2NH6CHCHCH3CH6CHCHCH2C2HCHCH5FeS2FeS2FeSFeS3FeS2FeS2FeSFeS3FeS2FeS2FeSFeS3C2H4C3H2C2HCHNC6H7C6H4CHC2H4C2H2C4HCH2C2H2CH3C3HCHCH2NC8H12CH3C2H4CH3CH4CHNHCH3NC8H26NC8H20CH3CH3CHCHCH5CH3NHCH2CH4C2H2CH3C2HCHCFeS2FeS2FeSFeS3FeS2FeS2FeSFeS3FeS2FeS2FeSFeS3HC2H4C6H5CH2C3HC3H2C6H4C2H2CH3C2H5C2H2CNC8H20CHCH4C2HCH3CH2CH2C3H2CHCH2C2H9C2H2CHCH3C2H3C2H3NCHCHC2H2CH3CH5C3H2CHCHCH5C2HNH2CH3NHC2NH7CH5NHCHCH2CH3C3H3CH2NH2CHCH3C2H3CHFeS2FeS2FeSFeS3FeS2FeSCFeSFeS3H2C2H2C2H4C2H2NHCHCHCH2C6H4C2HC2H4CHCH4CH3CHC3HCH2CHCNC8H26C2H4CH4CHCSH3CH7CH3CFeS2FeS2FeSFeS3FeS2FeSHFeSFeS3H3C2HCHC3H3C6H8C2H2C3H4CH3CHC2HCH6CH3CH2NC8H11CH2NH7NC2H8CHCH2C2HC3H4CH3C3H5C2H4CHC2NH5CHCHCH2CHCH2CH3CHC3SFeS2FeSCFeSFeS3FeS2FeS2FeSFeS3CH5CHC2H4CH3C7H3CHC6H4NC8H9CH9CNC8H21CH5NH2CSCHC2H2CHC2HFeS2FeSHFeCFeS3FeS2FeS2FeSFeS3CHCH3CHCH2C2H2C2H2C6H4C2H3SCH2SHC3HCH2NC8H11CHNHCH4CHCH2CHCHCH3CH2CNH4CHCHCH12C2H3C2HCH2CH2C3H4CH3CH3CHFeS2FeS2FeSFeS3FeSCFeS2FeSFeS3FeS2FeS2FeSFeS3C3HC3HCH2CH4C6H4CH5C6H4C3H2CHCH4CH2CH6CHCHCH3C3H9CHC2H2C2H7CH3CH5CH2CH2C2HCH2NHC2HC2H5CHCH2CNH5CH9C2H2CHNC6HCH14CHNH3SCH5C2NCHCHNCH2C3HCHCH2CH2CHCNCH3C2H4CHCH5C2HC2HC2HCFeS2FeS2FeSFeS3FeSCFeS2FeSFeS3FeS2FeS2FeSFeS3HC2H4C6H4CH3C3H2C3H3CHC6H7NHCHC2HCH3C2NH6NC8H20CHCH3CH2C3H2CH2CH8CNH12NHCH3C2HCHC4H2CHC2HCHNH2NC2HC2HCH9C2H6CH2CH2C2H6C2H2CHC2H5C2H2CH3CH2C2H8SC3H4CHC2H2CFeS2FeS2FeSFeS3FeS2FeS2FeSFeS3FeS2FeS2FeSFeS3C4HC2H4C5HC6H4C2H3CHC6H4CH3CHCH4CHCH8CH4NC4HC3H10C2H2CHCHCH2NC4H2C3HCHCH10CH13NC8H19NHC2H3CH2CH5CH4CH2CHNC8H8CH7NH2C2H3CH4C2HCH3CH6CH2FeS2FeS2FeSFeS3FeS2FeS2FeSFeS3FeS2FeS2FeSFeS3CH2CHCHC6H4C2H3C2HC2H2CHCHC7H4C2H3C2HCH3C3H2NC6H13CH5NCHCH3CH4CH3CH9C2H2CH3CHCH2CH4CHC5H4N2HC4H7CHCHCH3CHCH3CNH3CHC2HC3H5CH13CH2CHC2NH3CH
_chemical_formula_sum              "Fe128 S256 C896 H1536 N64"
_cell_length_a       60.2598
_cell_length_b       60.681
_cell_length_c       39.5417
_cell_angle_alpha    89.4539
_cell_angle_beta     89.583
_cell_angle_gamma    88.3022

_space_group_name_H-M_alt    "P 1"
_space_group_IT_number       1

loop_
  _space_group_symop_operation_xyz
  'x, y, z'

loop_
  _atom_site_type_symbol
  _atom_site_label
  _atom_site_symmetry_multiplicity
  _atom_site_fract_x
  _atom_site_fract_y
  _atom_site_fract_z
  _atom_site_occupancy
  Fe  Fe1       1.0  0.24046  0.08676  0.19167  1.0000
  S   S1        1.0  0.21214  0.08529  0.15516  1.0000
  S   S2        1.0  0.24871  0.06015  0.23206  1.0000
  Fe  Fe2       1.0  0.25400  0.13287  0.16544  1.0000
  S   S3        1.0  0.22666  0.13358  0.12691  1.0000
  S   S4        1.0  0.27003  0.16660  0.16458  1.0000
  Fe  Fe3       1.0  0.20503  0.12090  0.16880  1.0000
  S   S5        1.0  0.17133  0.13888  0.17184  1.0000
  Fe  Fe4       1.0  0.23619  0.09847  0.11633  1.0000
  S   S6        1.0  0.23908  0.08246  0.06419  1.0000
  S   S7        1.0  0.23168  0.12181  0.20791  1.0000
  S   S8        1.0  0.26522  0.09814  0.15212  1.0000
  Fe  Fe5       1.0  0.09362  0.24158  0.37396  1.0000
  S   S9        1.0  0.09230  0.27177  0.34040  1.0000
  S   S10       1.0  0.07800  0.24798  0.42618  1.0000
  Fe  Fe6       1.0  0.11639  0.21417  0.31719  1.0000
  S   S11       1.0  0.11633  0.24265  0.28048  1.0000
  S   S12       1.0  0.13541  0.18151  0.30933  1.0000
  Fe  Fe7       1.0  0.12738  0.26286  0.32471  1.0000
  S   S13       1.0  0.15963  0.28143  0.33162  1.0000
  Fe  Fe8       1.0  0.08091  0.24901  0.29930  1.0000
  S   S14       1.0  0.05125  0.26094  0.26637  1.0000
  S   S15       1.0  0.12908  0.23386  0.36056  1.0000
  S   S16       1.0  0.08049  0.21924  0.33370  1.0000
  Fe  Fe9       1.0  0.27806  0.38323  0.30891  1.0000
  S   S17       1.0  0.25709  0.39438  0.26511  1.0000
  S   S18       1.0  0.30691  0.35816  0.30604  1.0000
  Fe  Fe10      1.0  0.25127  0.41138  0.35984  1.0000
  S   S19       1.0  0.22806  0.42449  0.31913  1.0000
  S   S20       1.0  0.24608  0.42587  0.41269  1.0000
  Fe  Fe11      1.0  0.22837  0.38933  0.30093  1.0000
  S   S21       1.0  0.19720  0.37338  0.28182  1.0000
  Fe  Fe12      1.0  0.25857  0.42875  0.28673  1.0000
  S   S22       1.0  0.26984  0.45721  0.25212  1.0000
  S   S23       1.0  0.24921  0.37601  0.34366  1.0000
  S   S24       1.0  0.28182  0.41766  0.32850  1.0000
  C   C1        1.0  0.25006  0.41372  0.45350  1.0000
  H   H1        1.0  0.26464  0.33877  0.27885  1.0000
  C   C2        1.0  0.25631  0.39149  0.45793  1.0000
  H   H2        1.0  0.23600  0.33457  0.27949  1.0000
  H   H3        1.0  0.25956  0.38129  0.43607  1.0000
  C   C3        1.0  0.25868  0.48368  0.23949  1.0000
  N   N1        1.0  0.32772  0.42675  0.21807  1.0000
  H   H4        1.0  0.04002  0.22367  0.09847  1.0000
  C   C4        1.0  0.08562  0.23806  0.46709  1.0000
  H   H5        1.0  0.30169  0.27939  0.22224  1.0000
  C   C5        1.0  0.10199  0.22152  0.47200  1.0000
  H   H6        1.0  0.30005  0.19123  0.05858  1.0000
  H   H7        1.0  0.11035  0.21421  0.45036  1.0000
  C   C6        1.0  0.16850  0.30793  0.31917  1.0000
  C   C7        1.0  0.15760  0.32063  0.29433  1.0000
  C   C8        1.0  0.16640  0.34083  0.28353  1.0000
  C   C9        1.0  0.18605  0.34857  0.29757  1.0000
  C   C10       1.0  0.19664  0.33613  0.32297  1.0000
  C   C11       1.0  0.18796  0.31589  0.33359  1.0000
  H   H8        1.0  0.14267  0.31467  0.28294  1.0000
  H   H9        1.0  0.15806  0.35036  0.26387  1.0000
  H   H10       1.0  0.21171  0.34192  0.33401  1.0000
  H   H11       1.0  0.19653  0.30615  0.35277  1.0000
  C   C12       1.0  0.02519  0.24924  0.25616  1.0000
  C   C13       1.0  0.24599  0.42669  0.48236  1.0000
  C   C14       1.0  0.20395  0.38427  0.41772  1.0000
  C   C15       1.0  0.25440  0.31267  0.31222  1.0000
  C   C16       1.0  0.16092  0.15023  0.21013  1.0000
  C   C17       1.0  0.16813  0.14218  0.24154  1.0000
  C   C18       1.0  0.15974  0.15168  0.27156  1.0000
  C   C19       1.0  0.14448  0.16967  0.27058  1.0000
  C   C20       1.0  0.13726  0.17777  0.23916  1.0000
  C   C21       1.0  0.14520  0.16786  0.20908  1.0000
  H   H12       1.0  0.17996  0.12843  0.24274  1.0000
  H   H13       1.0  0.16524  0.14515  0.29574  1.0000
  H   H14       1.0  0.12542  0.19151  0.23806  1.0000
  H   H15       1.0  0.13943  0.17413  0.18490  1.0000
  C   C22       1.0  0.23694  0.09457  0.02312  1.0000
  H   H16       1.0  0.14569  0.25588  0.49177  1.0000
  H   H17       1.0  0.19465  0.38325  0.35582  1.0000
  C   C23       1.0  0.01962  0.25967  0.34606  1.0000
  H   H18       1.0  0.22966  0.12766  0.03977  1.0000
  H   H19       1.0  0.16846  0.05977  0.02169  1.0000
  C   C24       1.0  0.23902  0.03276  0.23819  1.0000
  C   C25       1.0  0.22747  0.02169  0.21322  1.0000
  H   H20       1.0  0.20982  0.29275  0.27937  1.0000
  H   H21       1.0  0.04346  0.23386  0.37952  1.0000
  H   H22       1.0  0.22364  0.03003  0.18959  1.0000
  N   N2        1.0  0.25504  0.31190  0.24696  1.0000
  C   C26       1.0  0.31861  0.34589  0.26927  1.0000
  C   C27       1.0  0.02740  0.23475  0.39366  1.0000
  H   H23       1.0  0.19362  0.35200  0.43790  1.0000
  C   C28       1.0  0.18766  0.43089  0.43698  1.0000
  H   H24       1.0  0.14406  0.29364  0.46226  1.0000
  H   H25       1.0  0.31376  0.39681  0.16310  1.0000
  C   C29       1.0  0.31270  0.16125  0.19087  1.0000
  C   C30       1.0  0.29632  0.17559  0.17755  1.0000
  H   H26       1.0  0.13122  0.38921  0.40515  1.0000
  H   H27       1.0  0.20960  0.31809  0.25523  1.0000
  H   H28       1.0  0.30935  0.14392  0.19408  1.0000
  H   H29       1.0  0.24929  0.32368  0.33334  1.0000
  N   N3        1.0  0.16564  0.09317  0.07387  1.0000
  C   C31       1.0  0.14102  0.39911  0.42286  1.0000
  H   H30       1.0  0.00948  0.21798  0.33603  1.0000
  H   H31       1.0  0.17425  0.10540  0.12311  1.0000
  C   C32       1.0  0.14556  0.09454  0.05139  1.0000
  H   H32       1.0  0.13638  0.07244  0.12265  1.0000
  H   H33       1.0  0.29058  0.31285  0.25525  1.0000
  H   H34       1.0  0.14700  0.11308  0.11037  1.0000
  H   H35       1.0  0.26340  0.36527  0.49397  1.0000
  C   C33       1.0  0.32021  0.34085  0.20835  1.0000
  H   H36       1.0  0.31696  0.45746  0.24173  1.0000
  H   H37       1.0  0.03061  0.24543  0.41577  1.0000
  C   C34       1.0  0.20542  0.35883  0.41919  1.0000
  H   H38       1.0  0.27400  0.27726  0.20670  1.0000
  H   H39       1.0  0.19510  0.07283  0.02365  1.0000
  H   H40       1.0  0.29604  0.22421  0.08810  1.0000
  C   C35       1.0  0.25847  0.38245  0.49083  1.0000
  C   C36       1.0  0.27042  0.49619  0.21544  1.0000
  C   C37       1.0  0.00436  0.21902  0.10124  1.0000
  H   H41       1.0  0.29477  0.39549  0.19932  1.0000
  H   H42       1.0  0.16407  0.06859  0.13979  1.0000
  H   H43       1.0  0.30212  0.42119  0.25562  1.0000
  H   H44       1.0  0.03101  0.24984  0.32934  1.0000
  H   H45       1.0  0.01229  0.27949  0.23386  1.0000
  H   H46       1.0  0.28570  0.48947  0.20476  1.0000
  C   C38       1.0  0.31897  0.41463  0.24862  1.0000
  H   H47       1.0  0.21819  0.38963  0.40187  1.0000
  H   H48       1.0  0.03041  0.22055  0.14088  1.0000
  C   C39       1.0  0.02034  0.22731  0.26375  1.0000
  N   N4        1.0  0.18246  0.39451  0.40469  1.0000
  H   H49       1.0  0.18823  0.14462  0.05397  1.0000
  C   C40       1.0  0.18547  0.41911  0.40278  1.0000
  C   C41       1.0  0.17860  0.38538  0.36981  1.0000
  C   C42       1.0  0.18197  0.10981  0.06104  1.0000
  H   H50       1.0  0.31660  0.39699  0.24335  1.0000
  C   C43       1.0  0.31009  0.42790  0.19110  1.0000
  C   C44       1.0  0.15072  0.08086  0.13318  1.0000
  H   H51       1.0  0.16886  0.39105  0.45557  1.0000
  H   H52       1.0  0.03829  0.20720  0.42554  1.0000
  H   H53       1.0  0.22961  0.48338  0.27135  1.0000
  H   H54       1.0  0.17159  0.42785  0.38963  1.0000
  H   H55       1.0  0.20038  0.42287  0.38715  1.0000
  C   C45       1.0  0.17735  0.07084  0.07284  1.0000
  N   N5        1.0  0.00901  0.24472  0.37186  1.0000
  H   H56       1.0  0.14752  0.40449  0.35744  1.0000
  H   H57       1.0  0.17232  0.13932  0.09107  1.0000
  H   H58       1.0  0.13195  0.40014  0.44739  1.0000
  H   H59       1.0  0.22235  0.35364  0.42765  1.0000
  C   C46       1.0  0.17475  0.13435  0.06432  1.0000
  H   H60       1.0  0.19012  0.44871  0.43206  1.0000
  H   H61       1.0  0.17248  0.42956  0.45278  1.0000
  H   H62       1.0  0.16752  0.05782  0.08509  1.0000
  H   H63       1.0  0.16156  0.37019  0.42792  1.0000
  H   H64       1.0  0.29543  0.43791  0.20000  1.0000
  C   C47       1.0  0.23889  0.49269  0.25287  1.0000
  H   H65       1.0  0.19296  0.07102  0.08778  1.0000
  H   H66       1.0  0.04595  0.27287  0.37866  1.0000
  H   H67       1.0  0.11902  0.07430  0.03316  1.0000
  N   N6        1.0  0.21310  0.19491  0.25789  1.0000
  C   C48       1.0  0.19826  0.19945  0.28823  1.0000
  C   C49       1.0  0.22252  0.17171  0.26152  1.0000
  C   C50       1.0  0.19864  0.19639  0.22688  1.0000
  C   C51       1.0  0.23084  0.21201  0.25652  1.0000
  C   C52       1.0  0.18405  0.22104  0.28689  1.0000
  C   C53       1.0  0.23411  0.16633  0.29539  1.0000
  C   C54       1.0  0.20902  0.18886  0.19302  1.0000
  C   C55       1.0  0.25303  0.20541  0.23898  1.0000
  H   H68       1.0  0.18660  0.18576  0.29241  1.0000
  H   H69       1.0  0.20813  0.20017  0.31186  1.0000
  H   H70       1.0  0.23469  0.16764  0.24114  1.0000
  H   H71       1.0  0.20917  0.15956  0.25861  1.0000
  H   H72       1.0  0.18368  0.18646  0.23095  1.0000
  H   H73       1.0  0.19227  0.21357  0.22244  1.0000
  H   H74       1.0  0.22444  0.22736  0.24386  1.0000
  H   H75       1.0  0.23541  0.21722  0.28244  1.0000
  H   H76       1.0  0.17008  0.21978  0.26889  1.0000
  H   H77       1.0  0.17629  0.22396  0.31213  1.0000
  H   H78       1.0  0.19403  0.23558  0.28054  1.0000
  H   H79       1.0  0.22169  0.16359  0.31579  1.0000
  H   H80       1.0  0.24411  0.15073  0.29286  1.0000
  H   H81       1.0  0.24538  0.17945  0.30308  1.0000
  H   H82       1.0  0.19561  0.18837  0.17391  1.0000
  H   H83       1.0  0.21642  0.17194  0.19395  1.0000
  H   H84       1.0  0.22109  0.20077  0.18319  1.0000
  H   H85       1.0  0.26267  0.19292  0.25390  1.0000
  H   H86       1.0  0.26352  0.22011  0.23676  1.0000
  H   H87       1.0  0.25092  0.19908  0.21319  1.0000
  C   C56       1.0  0.23806  0.29420  0.24399  1.0000
  H   H88       1.0  0.29353  0.15270  0.06344  1.0000
  C   C57       1.0  0.12766  0.07725  0.05737  1.0000
  H   H89       1.0  0.15926  0.38884  0.32368  1.0000
  H   H90       1.0  0.25660  0.31734  0.19264  1.0000
  C   C58       1.0  0.02605  0.22781  0.11600  1.0000
  C   C59       1.0  0.15952  0.09919  0.10983  1.0000
  H   H91       1.0  0.24297  0.27967  0.26000  1.0000
  C   C60       1.0  0.18340  0.06214  0.03730  1.0000
  H   H92       1.0  0.25271  0.02978  0.28831  1.0000
  C   C61       1.0  0.21387  0.30032  0.25447  1.0000
  H   H93       1.0  0.27862  0.28817  0.26922  1.0000
  C   C62       1.0  0.30090  0.19806  0.17369  1.0000
  H   H94       1.0  0.20749  0.38982  0.44379  1.0000
  H   H95       1.0  0.24365  0.29818  0.31323  1.0000
  H   H96       1.0  0.15036  0.09426  0.02412  1.0000
  H   H97       1.0  0.14515  0.08842  0.15744  1.0000
  H   H98       1.0  0.02635  0.19888  0.38670  1.0000
  H   H99       1.0  0.20225  0.29305  0.23627  1.0000
  H   H100      1.0  0.23768  0.28795  0.21762  1.0000
  H   H101      1.0  0.15965  0.13857  0.04954  1.0000
  H   H102      1.0  0.12435  0.27426  0.44841  1.0000
  H   H103      1.0  0.32493  0.22348  0.17965  1.0000
  C   C63       1.0  0.23723  0.99950  0.27429  1.0000
  H   H104      1.0  0.31416  0.34522  0.18340  1.0000
  H   H105      1.0  0.31618  0.43645  0.16798  1.0000
  C   C64       1.0  0.30123  0.40591  0.17862  1.0000
  H   H106      1.0  0.29067  0.30095  0.19618  1.0000
  H   H107      1.0  0.22981  0.35259  0.23263  1.0000
  H   H108      1.0  0.01577  0.18824  0.15644  1.0000
  H   H109      1.0  0.02225  0.29150  0.37217  1.0000
  H   H110      1.0  0.02538  0.24602  0.11824  1.0000
  H   H111      1.0  0.11509  0.29609  0.47525  1.0000
  C   C65       1.0  0.16415  0.38825  0.42877  1.0000
  H   H112      1.0  0.27192  0.30751  0.31714  1.0000
  H   H113      1.0  0.20299  0.35128  0.39415  1.0000
  C   C66       1.0  0.32168  0.20613  0.18265  1.0000
  H   H114      1.0  0.32368  0.47097  0.18421  1.0000
  C   C67       1.0  0.00882  0.26250  0.23985  1.0000
  H   H115      1.0  0.19202  0.04578  0.04001  1.0000
  H   H116      1.0  0.28775  0.01267  0.21089  1.0000
  H   H117      1.0  0.11518  0.08319  0.07626  1.0000
  C   C68       1.0  0.27784  0.30080  0.24863  1.0000
  H   H118      1.0  0.29739  0.36333  0.23413  1.0000
  H   H119      1.0  0.17219  0.41358  0.33559  1.0000
  H   H120      1.0  0.13437  0.06088  0.06526  1.0000
  H   H121      1.0  0.17163  0.36859  0.37151  1.0000
  H   H122      1.0  0.14153  0.41631  0.41359  1.0000
  H   H123      1.0  0.33059  0.43149  0.29384  1.0000
  C   C69       1.0  0.23361  0.34160  0.21103  1.0000
  C   C70       1.0  0.25462  0.32695  0.21634  1.0000
  C   C71       1.0  0.23176  0.11699  0.01816  1.0000
  C   C72       1.0  0.31081  0.35129  0.23697  1.0000
  C   C73       1.0  0.24384  0.02145  0.26873  1.0000
  H   H124      1.0  0.26889  0.33816  0.21699  1.0000
  H   H125      1.0  0.03272  0.21679  0.27604  1.0000
  C   C74       1.0  0.28616  0.28898  0.21633  1.0000
  H   H126      1.0  0.06209  0.25997  0.49214  1.0000
  C   C75       1.0  0.16341  0.39907  0.34579  1.0000
  H   H127      1.0  0.20229  0.42492  0.45152  1.0000
  H   H128      1.0  0.21906  0.33172  0.20469  1.0000
  H   H129      1.0  0.19803  0.10776  0.07465  1.0000
  H   H130      1.0  0.23638  0.35265  0.18892  1.0000
  C   C76       1.0  0.12926  0.28446  0.47021  1.0000
  H   H131      1.0  0.04199  0.28677  0.33909  1.0000
  H   H132      1.0  0.13676  0.11080  0.05417  1.0000
  C   C77       1.0  0.25218  0.32553  0.27853  1.0000
  C   C78       1.0  0.03315  0.27865  0.36037  1.0000
  H   H133      1.0  0.28830  0.20931  0.16358  1.0000
  H   H134      1.0  0.31044  0.23025  0.04879  1.0000
  H   H135      1.0  0.18591  0.10726  0.03381  1.0000
  H   H136      1.0  0.28696  0.40957  0.16163  1.0000
  H   H137      1.0  0.24113  0.44389  0.47928  1.0000
  C   C79       1.0  0.02466  0.21108  0.40741  1.0000
  H   H138      1.0  0.30304  0.18321  0.10123  1.0000
  C   C80       1.0  0.07482  0.24723  0.49560  1.0000
  H   H139      1.0  0.00880  0.20881  0.42102  1.0000
  C   C81       1.0  0.33353  0.16937  0.19993  1.0000
  C   C82       1.0  0.31108  0.15772  0.06522  1.0000
  C   C83       1.0  0.31139  0.18207  0.07598  1.0000
  H   H140      1.0  0.00787  0.20164  0.09360  1.0000
  H   H141      1.0  0.31885  0.15509  0.04004  1.0000
  H   H142      1.0  0.32860  0.40233  0.29858  1.0000
  H   H143      1.0  0.31693  0.19988  0.01253  1.0000
  C   C84       1.0  0.33185  0.45014  0.22867  1.0000
  H   H144      1.0  0.31898  0.14659  0.08433  1.0000
  C   C85       1.0  0.31180  0.22983  0.07661  1.0000
  H   H145      1.0  0.00711  0.26771  0.32913  1.0000
  H   H146      1.0  0.00199  0.27090  0.40760  1.0000
  C   C86       1.0  0.33343  0.41557  0.28062  1.0000
  H   H147      1.0  0.31382  0.24712  0.08486  1.0000
  H   H148      1.0  0.00536  0.20920  0.18548  1.0000
  C   C87       1.0  0.22113  0.99966  0.21860  1.0000
  H   H149      1.0  0.33046  0.21626  0.11733  1.0000
  N   N7        1.0  0.33397  0.19214  0.07744  1.0000
  C   C88       1.0  0.33182  0.21573  0.08932  1.0000
  H   H150      1.0  0.00173  0.22825  0.07701  1.0000
  Fe  Fe13      1.0  0.24172  0.07576  0.80617  1.0000
  S   S25       1.0  0.21038  0.08798  0.83280  1.0000
  S   S26       1.0  0.24395  0.03796  0.79906  1.0000
  Fe  Fe14      1.0  0.25868  0.12323  0.79843  1.0000
  S   S27       1.0  0.22811  0.13768  0.82338  1.0000
  S   S28       1.0  0.27918  0.15100  0.77623  1.0000
  Fe  Fe15      1.0  0.23237  0.11030  0.86199  1.0000
  S   S29       1.0  0.22793  0.12389  0.91566  1.0000
  Fe  Fe16      1.0  0.20896  0.11431  0.79245  1.0000
  S   S30       1.0  0.17847  0.12103  0.75973  1.0000
  S   S31       1.0  0.26410  0.09676  0.83837  1.0000
  S   S32       1.0  0.23917  0.10123  0.76466  1.0000
  Fe  Fe17      1.0  0.22486  0.38984  0.67713  1.0000
  S   S33       1.0  0.25311  0.37003  0.65454  1.0000
  S   S34       1.0  0.19607  0.37352  0.70439  1.0000
  Fe  Fe18      1.0  0.24853  0.43409  0.66683  1.0000
  S   S35       1.0  0.27837  0.41689  0.64262  1.0000
  S   S36       1.0  0.24420  0.47200  0.67097  1.0000
  Fe  Fe19      1.0  0.25368  0.39682  0.61421  1.0000
  S   S37       1.0  0.25749  0.38300  0.56054  1.0000
  Fe  Fe20      1.0  0.27531  0.39142  0.68435  1.0000
  S   S38       1.0  0.30391  0.38000  0.71859  1.0000
  S   S39       1.0  0.22384  0.41545  0.63555  1.0000
  S   S40       1.0  0.24697  0.40982  0.70995  1.0000
  Fe  Fe21      1.0  0.11439  0.23249  0.69864  1.0000
  S   S41       1.0  0.09829  0.26611  0.70839  1.0000
  S   S42       1.0  0.13602  0.21785  0.74105  1.0000
  Fe  Fe22      1.0  0.09910  0.23267  0.62448  1.0000
  S   S43       1.0  0.08202  0.26570  0.62983  1.0000
  S   S44       1.0  0.10470  0.21427  0.57468  1.0000
  Fe  Fe23      1.0  0.11261  0.27581  0.65769  1.0000
  S   S45       1.0  0.13142  0.30529  0.63646  1.0000
  Fe  Fe24      1.0  0.06891  0.25303  0.68021  1.0000
  S   S46       1.0  0.03146  0.26007  0.69094  1.0000
  S   S47       1.0  0.13026  0.24319  0.64997  1.0000
  S   S48       1.0  0.08441  0.21894  0.67293  1.0000
  C   C89       1.0  0.18415  0.46585  0.68471  1.0000
  C   C90       1.0  0.01848  0.24361  0.75453  1.0000
  H   H151      1.0  0.03572  0.23876  0.75830  1.0000
  C   C91       1.0  0.17912  0.35368  0.68535  1.0000
  C   C92       1.0  0.16558  0.34049  0.70589  1.0000
  C   C93       1.0  0.15145  0.32500  0.69153  1.0000
  C   C94       1.0  0.15025  0.32303  0.65635  1.0000
  C   C95       1.0  0.16374  0.33631  0.63590  1.0000
  C   C96       1.0  0.17835  0.35128  0.65027  1.0000
  H   H152      1.0  0.16576  0.34242  0.73303  1.0000
  H   H153      1.0  0.14097  0.31511  0.70756  1.0000
  H   H154      1.0  0.16269  0.33525  0.60873  1.0000
  H   H155      1.0  0.18854  0.36141  0.63412  1.0000
  C   C97       1.0  0.01213  0.25404  0.72422  1.0000
  N   N8        1.0  0.14273  0.27994  0.53202  1.0000
  H   H156      1.0  0.26151  0.46904  0.74079  1.0000
  H   H157      1.0  0.25788  0.38263  0.77257  1.0000
  C   C98       1.0  0.25451  0.39545  0.51973  1.0000
  H   H158      1.0  0.26927  0.22391  0.72032  1.0000
  H   H159      1.0  0.24512  0.42789  0.53715  1.0000
  H   H160      1.0  0.29760  0.19376  0.92803  1.0000
  H   H161      1.0  0.17262  0.31035  0.56456  1.0000
  C   C99       1.0  0.09680  0.22362  0.53358  1.0000
  C   C100      1.0  0.20320  0.31022  0.78004  1.0000
  H   H162      1.0  0.07210  0.24748  0.55031  1.0000
  H   H163      1.0  0.22867  0.22397  0.72299  1.0000
  C   C101      1.0  0.16565  0.14760  0.75563  1.0000
  C   C102      1.0  0.16855  0.16385  0.77989  1.0000
  C   C103      1.0  0.15878  0.18503  0.77537  1.0000
  C   C104      1.0  0.14614  0.19031  0.74650  1.0000
  C   C105      1.0  0.14287  0.17395  0.72248  1.0000
  C   C106      1.0  0.15247  0.15263  0.72718  1.0000
  H   H164      1.0  0.17826  0.16008  0.80223  1.0000
  H   H165      1.0  0.16110  0.19749  0.79432  1.0000
  H   H166      1.0  0.13310  0.17777  0.70020  1.0000
  H   H167      1.0  0.14996  0.14013  0.70839  1.0000
  H   H168      1.0  0.23895  0.21113  0.68583  1.0000
  C   C107      1.0  0.24439  0.01842  0.76523  1.0000
  C   C108      1.0  0.24902  0.02426  0.73160  1.0000
  H   H169      1.0  0.23828  0.17282  0.67708  1.0000
  H   H170      1.0  0.22902  0.33517  0.69364  1.0000
  H   H171      1.0  0.25281  0.04114  0.72542  1.0000
  H   H172      1.0  0.13621  0.30833  0.56359  1.0000
  C   C109      1.0  0.31289  0.35259  0.72828  1.0000
  C   C110      1.0  0.30550  0.33457  0.71019  1.0000
  H   H173      1.0  0.19691  0.04829  0.80184  1.0000
  H   H174      1.0  0.29422  0.33726  0.68928  1.0000
  H   H175      1.0  0.19630  0.02010  0.75521  1.0000
  C   C111      1.0  0.17949  0.29425  0.55584  1.0000
  C   C112      1.0  0.30509  0.16069  0.78996  1.0000
  C   C113      1.0  0.31038  0.18268  0.78294  1.0000
  H   H176      1.0  0.28241  0.18174  0.97735  1.0000
  H   H177      1.0  0.20326  0.30701  0.80775  1.0000
  H   H178      1.0  0.29870  0.19332  0.76957  1.0000
  C   C114      1.0  0.23470  0.16904  0.70413  1.0000
  C   C115      1.0  0.23714  0.08962  0.96154  1.0000
  C   C116      1.0  0.23155  0.11194  0.95661  1.0000
  H   H179      1.0  0.22448  0.14282  0.98161  1.0000
  H   H180      1.0  0.23929  0.07895  0.93992  1.0000
  C   C117      1.0  0.16630  0.48399  0.75980  1.0000
  H   H181      1.0  0.16756  0.01706  0.76149  1.0000
  C   C118      1.0  0.15685  0.06251  0.74832  1.0000
  H   H182      1.0  0.12787  0.04418  0.73135  1.0000
  C   C119      1.0  0.18063  0.43005  0.71227  1.0000
  C   C120      1.0  0.19642  0.06217  0.73503  1.0000
  H   H183      1.0  0.16889  0.46320  0.66989  1.0000
  H   H184      1.0  0.19816  0.45874  0.66933  1.0000
  H   H185      1.0  0.33453  0.20816  0.78778  1.0000
  C   C121      1.0  0.12975  0.30083  0.54023  1.0000
  H   H186      1.0  0.16085  0.07175  0.77163  1.0000
  C   C122      1.0  0.08048  0.24020  0.52866  1.0000
  C   C123      1.0  0.17109  0.03794  0.70367  1.0000
  C   C124      1.0  0.27187  0.16730  0.97390  1.0000
  H   H187      1.0  0.18017  0.28241  0.57735  1.0000
  H   H188      1.0  0.30713  0.18131  0.85810  1.0000
  H   H189      1.0  0.15652  0.02719  0.70603  1.0000
  C   C125      1.0  0.14069  0.26421  0.56152  1.0000
  C   C126      1.0  0.13484  0.05079  0.75492  1.0000
  H   H190      1.0  0.14944  0.23260  0.53689  1.0000
  H   H191      1.0  0.33363  0.36270  0.76919  1.0000
  N   N9        1.0  0.17629  0.04798  0.73729  1.0000
  C   C127      1.0  0.24922  0.00812  0.70594  1.0000
  H   H192      1.0  0.24371  0.06363  0.99814  1.0000
  C   C128      1.0  0.18973  0.02311  0.68807  1.0000
  H   H193      1.0  0.15837  0.44985  0.75781  1.0000
  H   H194      1.0  0.20095  0.49634  0.69928  1.0000
  C   C129      1.0  0.00256  0.23960  0.78020  1.0000
  H   H195      1.0  0.21209  0.05208  0.73552  1.0000
  H   H196      1.0  0.00782  0.23163  0.80351  1.0000
  N   N10       1.0  0.28439  0.16297  0.91121  1.0000
  C   C130      1.0  0.28048  0.15212  0.94526  1.0000
  C   C131      1.0  0.28915  0.14462  0.88647  1.0000
  C   C132      1.0  0.26322  0.17523  0.90125  1.0000
  H   H197      1.0  0.13645  0.03753  0.77426  1.0000
  H   H198      1.0  0.31653  0.17099  0.93103  1.0000
  H   H199      1.0  0.11989  0.20127  0.50855  1.0000
  C   C133      1.0  0.26246  0.18593  0.86573  1.0000
  C   C134      1.0  0.31266  0.31302  0.71925  1.0000
  H   H200      1.0  0.26847  0.13863  0.94310  1.0000
  H   H201      1.0  0.29600  0.14400  0.95492  1.0000
  H   H202      1.0  0.29086  0.15067  0.86023  1.0000
  H   H203      1.0  0.27475  0.13351  0.88547  1.0000
  H   H204      1.0  0.24893  0.16403  0.90294  1.0000
  H   H205      1.0  0.25938  0.18892  0.91902  1.0000
  H   H206      1.0  0.30673  0.29916  0.70524  1.0000
  H   H207      1.0  0.18853  0.02363  0.66005  1.0000
  H   H208      1.0  0.16331  0.42736  0.66357  1.0000
  H   H209      1.0  0.12241  0.06307  0.76476  1.0000
  H   H210      1.0  0.28368  0.30854  0.81435  1.0000
  H   H211      1.0  0.16563  0.05065  0.68474  1.0000
  H   H212      1.0  0.30788  0.11959  0.91657  1.0000
  H   H213      1.0  0.12311  0.25946  0.56516  1.0000
  H   H214      1.0  0.27406  0.19969  0.86337  1.0000
  H   H215      1.0  0.24556  0.19326  0.86175  1.0000
  H   H216      1.0  0.26518  0.17394  0.84505  1.0000
  C   C135      1.0  0.22888  0.12554  0.98512  1.0000
  C   C136      1.0  0.32061  0.14706  0.80683  1.0000
  H   H217      1.0  0.19917  0.21001  0.77543  1.0000
  H   H218      1.0  0.25115  0.16476  0.71546  1.0000
  H   H219      1.0  0.18572  0.31215  0.77142  1.0000
  H   H220      1.0  0.21899  0.14185  0.73196  1.0000
  H   H221      1.0  0.23382  0.37212  0.79279  1.0000
  N   N11       1.0  0.24007  0.32837  0.76294  1.0000
  C   C137      1.0  0.19753  0.19581  0.67112  1.0000
  C   C138      1.0  0.24820  0.41766  0.51526  1.0000
  H   H222      1.0  0.28143  0.30287  0.77042  1.0000
  H   H223      1.0  0.24500  0.30174  0.79919  1.0000
  H   H224      1.0  0.20529  0.14919  0.69275  1.0000
  C   C139      1.0  0.24922  0.35056  0.75379  1.0000
  H   H225      1.0  0.16879  0.47996  0.78700  1.0000
  C   C140      1.0  0.22345  0.18399  0.75912  1.0000
  H   H226      1.0  0.18241  0.08853  0.70167  1.0000
  H   H227      1.0  0.28532  0.33080  0.78479  1.0000
  H   H228      1.0  0.26616  0.34881  0.74271  1.0000
  H   H229      1.0  0.13210  0.31388  0.52067  1.0000
  C   C141      1.0  0.18351  0.03641  0.79926  1.0000
  H   H230      1.0  0.20351  0.18119  0.65675  1.0000
  H   H231      1.0  0.23915  0.35872  0.73353  1.0000
  C   C142      1.0  0.22155  0.14759  0.70562  1.0000
  C   C143      1.0  0.32727  0.30923  0.74644  1.0000
  C   C144      1.0  0.27691  0.31513  0.79010  1.0000
  H   H232      1.0  0.21000  0.29539  0.76715  1.0000
  H   H233      1.0  0.17948  0.19798  0.66587  1.0000
  H   H234      1.0  0.24215  0.29568  0.74048  1.0000
  H   H235      1.0  0.24787  0.32817  0.81648  1.0000
  C   C145      1.0  0.25154  0.31834  0.79337  1.0000
  N   N12       1.0  0.22402  0.18868  0.72160  1.0000
  H   H236      1.0  0.23128  0.13433  0.69256  1.0000
  H   H237      1.0  0.26110  0.31430  0.72346  1.0000
  C   C146      1.0  0.25047  0.36735  0.78272  1.0000
  C   C147      1.0  0.24374  0.31330  0.73311  1.0000
  H   H238      1.0  0.21210  0.17036  0.76495  1.0000
  H   H239      1.0  0.21100  0.31371  0.70817  1.0000
  H   H240      1.0  0.26149  0.36149  0.80344  1.0000
  C   C148      1.0  0.22847  0.31784  0.70251  1.0000
  C   C149      1.0  0.21576  0.33143  0.77136  1.0000
  H   H241      1.0  0.23995  0.17791  0.76822  1.0000
  H   H242      1.0  0.21339  0.34235  0.79359  1.0000
  H   H243      1.0  0.18975  0.17941  0.71803  1.0000
  C   C150      1.0  0.20056  0.19289  0.70962  1.0000
  H   H244      1.0  0.31628  0.20420  0.88122  1.0000
  H   H245      1.0  0.20667  0.34049  0.75100  1.0000
  H   H246      1.0  0.19309  0.20805  0.72117  1.0000
  H   H247      1.0  0.23408  0.30731  0.68108  1.0000
  H   H248      1.0  0.20556  0.21081  0.66138  1.0000
  C   C151      1.0  0.21594  0.20339  0.78188  1.0000
  H   H249      1.0  0.21509  0.19737  0.80847  1.0000
  C   C152      1.0  0.20715  0.44455  0.77087  1.0000
  C   C153      1.0  0.23734  0.20872  0.71366  1.0000
  H   H250      1.0  0.26173  0.20700  0.75539  1.0000
  H   H251      1.0  0.22784  0.21695  0.78120  1.0000
  H   H252      1.0  0.27162  0.19470  0.71642  1.0000
  C   C154      1.0  0.26126  0.20827  0.72744  1.0000
  H   H253      1.0  0.20975  0.42654  0.76718  1.0000
  H   H254      1.0  0.19577  0.42302  0.69952  1.0000
  H   H255      1.0  0.19270  0.44762  0.78780  1.0000
  C   C155      1.0  0.18079  0.02947  0.76222  1.0000
  H   H256      1.0  0.21176  0.08868  0.70661  1.0000
  H   H257      1.0  0.19692  0.29700  0.54792  1.0000
  H   H258      1.0  0.09730  0.28486  0.53254  1.0000
  H   H259      1.0  0.31699  0.12996  0.81163  1.0000
  H   H260      1.0  0.21883  0.45073  0.72043  1.0000
  C   C156      1.0  0.16054  0.42365  0.69079  1.0000
  H   H261      1.0  0.20871  0.47426  0.74128  1.0000
  C   C157      1.0  0.15456  0.24251  0.55875  1.0000
  H   H262      1.0  0.17262  0.24531  0.55752  1.0000
  C   C158      1.0  0.31515  0.18595  0.88181  1.0000
  C   C159      1.0  0.20487  0.45684  0.73668  1.0000
  C   C160      1.0  0.16334  0.46270  0.73914  1.0000
  C   C161      1.0  0.10464  0.29833  0.54691  1.0000
  C   C162      1.0  0.25721  0.48611  0.73517  1.0000
  H   H263      1.0  0.15854  0.40552  0.69266  1.0000
  H   H264      1.0  0.16791  0.04345  0.81023  1.0000
  N   N13       1.0  0.18308  0.45438  0.71870  1.0000
  H   H265      1.0  0.20023  0.06845  0.68018  1.0000
  H   H266      1.0  0.27201  0.15776  0.99805  1.0000
  H   H267      1.0  0.15156  0.23230  0.58169  1.0000
  H   H268      1.0  0.32513  0.13995  0.89604  1.0000
  H   H269      1.0  0.14497  0.27224  0.58569  1.0000
  H   H270      1.0  0.25303  0.01290  0.68018  1.0000
  C   C163      1.0  0.16659  0.28554  0.52538  1.0000
  H   H271      1.0  0.22213  0.45035  0.78397  1.0000
  C   C164      1.0  0.24896  0.49192  0.70319  1.0000
  H   H272      1.0  0.33257  0.17938  0.88129  1.0000
  C   C165      1.0  0.19748  0.07772  0.70394  1.0000
  H   H273      1.0  0.10141  0.29535  0.57426  1.0000
  H   H274      1.0  0.14476  0.43153  0.69963  1.0000
  H   H275      1.0  0.17909  0.42067  0.73645  1.0000
  C   C166      1.0  0.30331  0.17854  0.91466  1.0000
  H   H276      1.0  0.18839  0.02168  0.81469  1.0000
  H   H277      1.0  0.11851  0.26045  0.50646  1.0000
  H   H278      1.0  0.19753  0.07276  0.75776  1.0000
  H   H279      1.0  0.15320  0.07558  0.72906  1.0000
  H   H280      1.0  0.14870  0.46555  0.72245  1.0000
  H   H281      1.0  0.25435  0.17274  0.96971  1.0000
  C   C167      1.0  0.23970  0.08100  0.99462  1.0000
  H   H282      1.0  0.20657  0.02864  0.69389  1.0000
  C   C168      1.0  0.31004  0.13009  0.89374  1.0000
  H   H283      1.0  0.31290  0.11863  0.87230  1.0000
  C   C169      1.0  0.18646  0.49104  0.68483  1.0000
  H   H284      1.0  0.17964  0.49478  0.75103  1.0000
  H   H285      1.0  0.09549  0.31363  0.53891  1.0000
  C   C170      1.0  0.32780  0.34883  0.75510  1.0000
  C   C171      1.0  0.33075  0.19115  0.79316  1.0000
  H   H286      1.0  0.16765  0.29836  0.50518  1.0000
  C   C172      1.0  0.10737  0.21422  0.50505  1.0000
  H   H287      1.0  0.17620  0.27103  0.51535  1.0000
  C   C173      1.0  0.13398  0.26914  0.50080  1.0000
  H   H288      1.0  0.18848  0.00575  0.69700  1.0000
  H   H289      1.0  0.15066  0.49415  0.75876  1.0000
  H   H290      1.0  0.25799  0.99823  0.55895  1.0000
  H   H291      1.0  0.18914  0.49683  0.65841  1.0000
  H   H292      1.0  0.26651  0.49768  0.78452  1.0000
  Fe  Fe25      1.0  0.25882  0.89467  0.30994  1.0000
  S   S49       1.0  0.23561  0.87794  0.34604  1.0000
  S   S50       1.0  0.29254  0.88224  0.29006  1.0000
  Fe  Fe26      1.0  0.22483  0.93166  0.29181  1.0000
  S   S51       1.0  0.19879  0.91695  0.32610  1.0000
  S   S52       1.0  0.21895  0.95994  0.25305  1.0000
  Fe  Fe27      1.0  0.22650  0.91210  0.36411  1.0000
  S   S53       1.0  0.21770  0.92201  0.41860  1.0000
  Fe  Fe28      1.0  0.20949  0.88362  0.30590  1.0000
  S   S54       1.0  0.18803  0.85341  0.29762  1.0000
  S   S55       1.0  0.25185  0.92877  0.33075  1.0000
  S   S56       1.0  0.23333  0.89841  0.26897  1.0000
  Fe  Fe29      1.0  0.11516  0.78500  0.16645  1.0000
  S   S57       1.0  0.10250  0.76519  0.21030  1.0000
  S   S58       1.0  0.13511  0.81639  0.17138  1.0000
  Fe  Fe30      1.0  0.09251  0.75594  0.11354  1.0000
  S   S59       1.0  0.07785  0.73465  0.15480  1.0000
  S   S60       1.0  0.08488  0.74374  0.06000  1.0000
  Fe  Fe31      1.0  0.06952  0.76581  0.18333  1.0000
  S   S61       1.0  0.03751  0.77925  0.20954  1.0000
  Fe  Fe32      1.0  0.11176  0.73574  0.17828  1.0000
  S   S62       1.0  0.12790  0.70458  0.20068  1.0000
  S   S63       1.0  0.08189  0.78715  0.14036  1.0000
  S   S64       1.0  0.12678  0.75543  0.13607  1.0000
  Fe  Fe33      1.0  0.26956  0.60093  0.11260  1.0000
  S   S65       1.0  0.23360  0.59564  0.12477  1.0000
  S   S66       1.0  0.28474  0.59361  0.06058  1.0000
  Fe  Fe34      1.0  0.27924  0.61888  0.18392  1.0000
  S   S67       1.0  0.24356  0.61539  0.19930  1.0000
  S   S68       1.0  0.29881  0.63032  0.22960  1.0000
  Fe  Fe35      1.0  0.24614  0.58184  0.17496  1.0000
  S   S69       1.0  0.23234  0.55338  0.20714  1.0000
  Fe  Fe36      1.0  0.23473  0.62929  0.14837  1.0000
  S   S70       1.0  0.21360  0.65955  0.13375  1.0000
  S   S71       1.0  0.28212  0.58488  0.16128  1.0000
  S   S72       1.0  0.27035  0.63503  0.13434  1.0000
  C   C174      1.0  0.27129  0.59972  0.02135  1.0000
  C   C175      1.0  0.24987  0.60926  0.01999  1.0000
  H   H293      1.0  0.31155  0.91332  0.21342  1.0000
  H   H294      1.0  0.24109  0.61311  0.04324  1.0000
  H   H295      1.0  0.26196  0.54137  0.28291  1.0000
  H   H296      1.0  0.08570  0.66787  0.10354  1.0000
  C   C176      1.0  0.26250  0.51729  0.20478  1.0000
  C   C177      1.0  0.24272  0.52633  0.21822  1.0000
  C   C178      1.0  0.29473  0.52856  0.29163  1.0000
  H   H297      1.0  0.14751  0.66708  0.12432  1.0000
  H   H298      1.0  0.27170  0.52659  0.18619  1.0000
  C   C179      1.0  0.10121  0.68169  0.02996  1.0000
  C   C180      1.0  0.09203  0.75386  0.01898  1.0000
  H   H299      1.0  0.21567  0.52055  0.25287  1.0000
  C   C181      1.0  0.09626  0.67638  0.12181  1.0000
  H   H300      1.0  0.11012  0.78165  0.03594  1.0000
  N   N14       1.0  0.12927  0.67825  0.07992  1.0000
  C   C182      1.0  0.15300  0.69305  0.18436  1.0000
  C   C183      1.0  0.16489  0.70374  0.15890  1.0000
  C   C184      1.0  0.18379  0.69339  0.14443  1.0000
  C   C185      1.0  0.19111  0.67235  0.15540  1.0000
  C   C186      1.0  0.17978  0.66195  0.18176  1.0000
  C   C187      1.0  0.16075  0.67229  0.19616  1.0000
  H   H301      1.0  0.15931  0.71980  0.14989  1.0000
  H   H302      1.0  0.19263  0.70160  0.12425  1.0000
  H   H303      1.0  0.18526  0.64570  0.19033  1.0000
  H   H304      1.0  0.15165  0.66393  0.21593  1.0000
  H   H305      1.0  0.31701  0.65234  0.28638  1.0000
  H   H306      1.0  0.31116  0.53453  0.29892  1.0000
  H   H307      1.0  0.02454  0.73349  0.22454  1.0000
  C   C188      1.0  0.17387  0.84333  0.26183  1.0000
  C   C189      1.0  0.17256  0.85500  0.23121  1.0000
  C   C190      1.0  0.16082  0.84638  0.20377  1.0000
  C   C191      1.0  0.15039  0.82596  0.20645  1.0000
  C   C192      1.0  0.15195  0.81417  0.23695  1.0000
  C   C193      1.0  0.16355  0.82285  0.26446  1.0000
  H   H308      1.0  0.18037  0.87077  0.22876  1.0000
  H   H309      1.0  0.15972  0.85567  0.18031  1.0000
  H   H310      1.0  0.14406  0.79844  0.23946  1.0000
  H   H311      1.0  0.16438  0.81371  0.28806  1.0000
  C   C194      1.0  0.22677  0.91096  0.45820  1.0000
  H   H312      1.0  0.27165  0.99601  0.18447  1.0000
  C   C195      1.0  0.24662  0.89862  0.46155  1.0000
  C   C196      1.0  0.01344  0.76737  0.22853  1.0000
  H   H313      1.0  0.25653  0.89485  0.43931  1.0000
  H   H314      1.0  0.31727  0.55542  0.24150  1.0000
  H   H315      1.0  0.30247  0.98160  0.24331  1.0000
  H   H316      1.0  0.11287  0.85638  0.30753  1.0000
  C   C197      1.0  0.21425  0.91590  0.48753  1.0000
  C   C198      1.0  0.31780  0.65206  0.23183  1.0000
  H   H317      1.0  0.29100  0.55853  0.34031  1.0000
  H   H318      1.0  0.17528  0.66010  0.07821  1.0000
  C   C199      1.0  0.30017  0.84856  0.33670  1.0000
  C   C200      1.0  0.30583  0.85767  0.30534  1.0000
  C   C201      1.0  0.14133  0.66039  0.10019  1.0000
  C   C202      1.0  0.30050  0.94256  0.27677  1.0000
  H   H319      1.0  0.28787  0.85688  0.35247  1.0000
  C   C203      1.0  0.14638  0.69363  0.06581  1.0000
  H   H320      1.0  0.24110  0.99115  0.29791  1.0000
  H   H321      1.0  0.26666  0.58268  0.24443  1.0000
  C   C204      1.0  0.10452  0.77270  0.01421  1.0000
  C   C205      1.0  0.13827  0.71688  0.05453  1.0000
  H   H322      1.0  0.12903  0.65933  0.03389  1.0000
  H   H323      1.0  0.23081  0.59393  0.26615  1.0000
  C   C206      1.0  0.31069  0.82886  0.34799  1.0000
  H   H324      1.0  0.09825  0.79629  0.28055  1.0000
  H   H325      1.0  0.10748  0.65300  0.06166  1.0000
  H   H326      1.0  0.29800  0.51587  0.27198  1.0000
  C   C207      1.0  0.30538  0.57751  0.28228  1.0000
  C   C208      1.0  0.31271  0.92456  0.19124  1.0000
  C   C209      1.0  0.11384  0.69044  0.10400  1.0000
  H   H327      1.0  0.15690  0.64075  0.05878  1.0000
  C   C210      1.0  0.28716  0.99603  0.19942  1.0000
  H   H328      1.0  0.03978  0.81571  0.26203  1.0000
  C   C211      1.0  0.28285  0.94103  0.24886  1.0000
  H   H329      1.0  0.23476  0.84744  0.28357  1.0000
  H   H330      1.0  0.10995  0.68813  0.00728  1.0000
  N   N15       1.0  0.07865  0.84108  0.24062  1.0000
  C   C212      1.0  0.09025  0.85338  0.21246  1.0000
  C   C213      1.0  0.08526  0.85168  0.27328  1.0000
  C   C214      1.0  0.05396  0.84419  0.23546  1.0000
  C   C215      1.0  0.08552  0.81701  0.23871  1.0000
  C   C216      1.0  0.08371  0.84759  0.17604  1.0000
  C   C217      1.0  0.11023  0.84983  0.28177  1.0000
  C   C218      1.0  0.03857  0.83398  0.26227  1.0000
  C   C219      1.0  0.08200  0.80261  0.27082  1.0000
  H   H331      1.0  0.08751  0.87154  0.21505  1.0000
  H   H332      1.0  0.10854  0.85045  0.21366  1.0000
  H   H333      1.0  0.07630  0.84509  0.29546  1.0000
  H   H334      1.0  0.08043  0.86957  0.27294  1.0000
  H   H335      1.0  0.04938  0.86209  0.23354  1.0000
  H   H336      1.0  0.04888  0.83668  0.21123  1.0000
  H   H337      1.0  0.07675  0.80901  0.21761  1.0000
  H   H338      1.0  0.10345  0.81520  0.23197  1.0000
  H   H339      1.0  0.08468  0.82963  0.17164  1.0000
  H   H340      1.0  0.06694  0.85430  0.16953  1.0000
  H   H341      1.0  0.09560  0.85516  0.15806  1.0000
  H   H342      1.0  0.13232  0.72686  0.07629  1.0000
  C   C220      1.0  0.27903  0.54684  0.27713  1.0000
  H   H343      1.0  0.28704  0.52051  0.31401  1.0000
  H   H344      1.0  0.30622  0.82199  0.37237  1.0000
  H   H345      1.0  0.07279  0.81058  0.29178  1.0000
  C   C221      1.0  0.32382  0.65985  0.26381  1.0000
  C   C222      1.0  0.30864  0.94890  0.20061  1.0000
  H   H346      1.0  0.10470  0.70434  0.09163  1.0000
  H   H347      1.0  0.02109  0.83835  0.25563  1.0000
  H   H348      1.0  0.30176  0.99422  0.18239  1.0000
  H   H349      1.0  0.29764  0.59851  0.34301  1.0000
  C   C223      1.0  0.26768  0.95256  0.19301  1.0000
  H   H350      1.0  0.26878  0.60501  0.33404  1.0000
  H   H351      1.0  0.19885  0.92541  0.48522  1.0000
  H   H352      1.0  0.12045  0.85981  0.26430  1.0000
  C   C224      1.0  0.25638  0.93008  0.19154  1.0000
  H   H353      1.0  0.27005  0.60275  0.27579  1.0000
  H   H354      1.0  0.23521  0.56610  0.27926  1.0000
  H   H355      1.0  0.26224  0.56292  0.33439  1.0000
  H   H356      1.0  0.07252  0.78785  0.26407  1.0000
  C   C225      1.0  0.28740  0.97854  0.22813  1.0000
  H   H357      1.0  0.16812  0.63556  0.09985  1.0000
  N   N16       1.0  0.28673  0.95473  0.21741  1.0000
  H   H358      1.0  0.26650  0.94578  0.26045  1.0000
  C   C226      1.0  0.16143  0.64875  0.08272  1.0000
  H   H359      1.0  0.08730  0.67159  0.02128  1.0000
  H   H360      1.0  0.24570  0.92775  0.21415  1.0000
  H   H361      1.0  0.12992  0.64710  0.10781  1.0000
  N   N17       1.0  0.24569  0.81312  0.28646  1.0000
  C   C227      1.0  0.25020  0.83716  0.28015  1.0000
  C   C228      1.0  0.23545  0.81131  0.32133  1.0000
  C   C229      1.0  0.22949  0.80617  0.25978  1.0000
  C   C230      1.0  0.26746  0.80033  0.28351  1.0000
  C   C231      1.0  0.25982  0.84298  0.24494  1.0000
  C   C232      1.0  0.25081  0.81624  0.35121  1.0000
  C   C233      1.0  0.21514  0.78615  0.26790  1.0000
  C   C234      1.0  0.26745  0.77567  0.29321  1.0000
  H   H362      1.0  0.15934  0.69649  0.08506  1.0000
  H   H363      1.0  0.26207  0.84339  0.29879  1.0000
  H   H364      1.0  0.22913  0.79468  0.32658  1.0000
  H   H365      1.0  0.22053  0.82251  0.32340  1.0000
  H   H366      1.0  0.21731  0.81989  0.25390  1.0000
  H   H367      1.0  0.23827  0.80259  0.23549  1.0000
  H   H368      1.0  0.27381  0.80088  0.25705  1.0000
  H   H369      1.0  0.28083  0.80826  0.29801  1.0000
  H   H370      1.0  0.24898  0.83800  0.22401  1.0000
  H   H371      1.0  0.26120  0.86113  0.24288  1.0000
  H   H372      1.0  0.25383  0.96441  0.19943  1.0000
  H   H373      1.0  0.24159  0.81353  0.37526  1.0000
  H   H374      1.0  0.26577  0.80516  0.35182  1.0000
  H   H375      1.0  0.25579  0.83360  0.35133  1.0000
  H   H376      1.0  0.20227  0.79038  0.28724  1.0000
  H   H377      1.0  0.22500  0.77147  0.27615  1.0000
  H   H378      1.0  0.20601  0.78164  0.24475  1.0000
  H   H379      1.0  0.26341  0.76553  0.27100  1.0000
  H   H380      1.0  0.25617  0.77180  0.31443  1.0000
  H   H381      1.0  0.28427  0.77057  0.30235  1.0000
  H   H382      1.0  0.29647  0.93084  0.29750  1.0000
  H   H383      1.0  0.10391  0.66440  0.13996  1.0000
  H   H384      1.0  0.11658  0.83252  0.28186  1.0000
  H   H385      1.0  0.26563  0.95924  0.47791  1.0000
  H   H386      1.0  0.24521  0.92994  0.16932  1.0000
  H   H387      1.0  0.04118  0.84030  0.28804  1.0000
  N   N18       1.0  0.25689  0.69323  0.22691  1.0000
  C   C235      1.0  0.27977  0.70256  0.22983  1.0000
  C   C236      1.0  0.25607  0.68132  0.19365  1.0000
  C   C237      1.0  0.25416  0.67665  0.25524  1.0000
  C   C238      1.0  0.23980  0.71191  0.22968  1.0000
  C   C239      1.0  0.28557  0.71256  0.26428  1.0000
  C   C240      1.0  0.26265  0.69496  0.16219  1.0000
  C   C241      1.0  0.23196  0.66474  0.25691  1.0000
  C   C242      1.0  0.21747  0.70906  0.21149  1.0000
  H   H388      1.0  0.29274  0.68972  0.22421  1.0000
  H   H389      1.0  0.28230  0.71582  0.21065  1.0000
  H   H390      1.0  0.23939  0.67491  0.18881  1.0000
  H   H391      1.0  0.26730  0.66637  0.19420  1.0000
  H   H392      1.0  0.26772  0.66377  0.25407  1.0000
  H   H393      1.0  0.25567  0.68453  0.28034  1.0000
  H   H394      1.0  0.23587  0.71539  0.25671  1.0000
  H   H395      1.0  0.24642  0.72759  0.21940  1.0000
  H   H396      1.0  0.27225  0.72388  0.27387  1.0000
  H   H397      1.0  0.28937  0.69945  0.28334  1.0000
  H   H398      1.0  0.30095  0.72212  0.26143  1.0000
  H   H399      1.0  0.28100  0.69576  0.15992  1.0000
  H   H400      1.0  0.25674  0.68671  0.13907  1.0000
  H   H401      1.0  0.25530  0.71191  0.16246  1.0000
  H   H402      1.0  0.22734  0.65717  0.23271  1.0000
  H   H403      1.0  0.21836  0.67593  0.26601  1.0000
  H   H404      1.0  0.23343  0.65105  0.27571  1.0000
  H   H405      1.0  0.21949  0.70986  0.18362  1.0000
  H   H406      1.0  0.20580  0.72282  0.21848  1.0000
  H   H407      1.0  0.20923  0.69360  0.21827  1.0000
  C   C243      1.0  0.11703  0.66719  0.05191  1.0000
  H   H408      1.0  0.27690  0.83602  0.24146  1.0000
  H   H409      1.0  0.30235  0.58002  0.22693  1.0000
  H   H410      1.0  0.27286  0.95704  0.16680  1.0000
  C   C244      1.0  0.26584  0.58518  0.27227  1.0000
  H   H411      1.0  0.08510  0.68737  0.13700  1.0000
  H   H412      1.0  0.15525  0.68606  0.04380  1.0000
  H   H413      1.0  0.15247  0.72576  0.04343  1.0000
  C   C245      1.0  0.28048  0.59241  0.34472  1.0000
  H   H414      1.0  0.27312  0.98267  0.24502  1.0000
  C   C246      1.0  0.23100  0.51383  0.24229  1.0000
  H   H415      1.0  0.31069  0.95853  0.17678  1.0000
  C   C247      1.0  0.24122  0.58300  0.28267  1.0000
  H   H416      1.0  0.28166  0.92324  0.24309  1.0000
  H   H417      1.0  0.30637  0.59562  0.28624  1.0000
  H   H418      1.0  0.27640  0.59063  0.37204  1.0000
  H   H419      1.0  0.24456  0.97973  0.47033  1.0000
  H   H420      1.0  0.09304  0.69557  0.04347  1.0000
  C   C248      1.0  0.32673  0.66193  0.20288  1.0000
  H   H421      1.0  0.27986  0.54633  0.24904  1.0000
  H   H422      1.0  0.31734  0.93766  0.26765  1.0000
  H   H423      1.0  0.23799  0.58830  0.30903  1.0000
  N   N19       1.0  0.28226  0.56981  0.28993  1.0000
  H   H424      1.0  0.26802  0.91577  0.18954  1.0000
  C   C249      1.0  0.27865  0.56978  0.32763  1.0000
  H   H425      1.0  0.32995  0.58171  0.24232  1.0000
  H   H426      1.0  0.26969  0.88272  0.49611  1.0000
  C   C250      1.0  0.31401  0.57323  0.24609  1.0000
  H   H427      1.0  0.21242  0.99129  0.19888  1.0000
  H   H428      1.0  0.12356  0.69842  0.12411  1.0000
  H   H429      1.0  0.12531  0.71674  0.03501  1.0000
  H   H430      1.0  0.32227  0.65612  0.17811  1.0000
  C   C251      1.0  0.32234  0.84700  0.28557  1.0000
  C   C252      1.0  0.22607  0.98831  0.24903  1.0000
  H   H431      1.0  0.30140  0.91949  0.17102  1.0000
  H   H432      1.0  0.30050  0.95914  0.28831  1.0000
  C   C253      1.0  0.01132  0.74460  0.23300  1.0000
  H   H433      1.0  0.31777  0.57010  0.30009  1.0000
  H   H434      1.0  0.32986  0.92243  0.18100  1.0000
  H   H435      1.0  0.32693  0.85400  0.26135  1.0000
  C   C254      1.0  0.25400  0.89170  0.49386  1.0000
  C   C255      1.0  0.32714  0.81810  0.32827  1.0000
  H   H436      1.0  0.32266  0.95358  0.21697  1.0000
  C   C256      1.0  0.25695  0.97381  0.48930  1.0000
  H   H437      1.0  0.26875  0.98720  0.49315  1.0000
  C   C257      1.0  0.33294  0.82726  0.29693  1.0000
  Fe  Fe37      1.0  0.20765  0.89024  0.67694  1.0000
  S   S73       1.0  0.23172  0.90280  0.71489  1.0000
  S   S74       1.0  0.17348  0.88126  0.69698  1.0000
  Fe  Fe38      1.0  0.24069  0.89508  0.61774  1.0000
  S   S75       1.0  0.26719  0.90699  0.65260  1.0000
  S   S76       1.0  0.25268  0.88907  0.56334  1.0000
  Fe  Fe39      1.0  0.25648  0.88021  0.68826  1.0000
  S   S77       1.0  0.27520  0.85353  0.71836  1.0000
  Fe  Fe40      1.0  0.24012  0.92874  0.67604  1.0000
  S   S78       1.0  0.24522  0.96632  0.67952  1.0000
  S   S79       1.0  0.23195  0.86671  0.65210  1.0000
  S   S80       1.0  0.21408  0.91774  0.63938  1.0000
  Fe  Fe41      1.0  0.12241  0.77321  0.78596  1.0000
  S   S81       1.0  0.09989  0.74802  0.76383  1.0000
  S   S82       1.0  0.15217  0.78578  0.75583  1.0000
  Fe  Fe42      1.0  0.10239  0.76738  0.85799  1.0000
  S   S83       1.0  0.07825  0.74237  0.84065  1.0000
  S   S84       1.0  0.10874  0.77970  0.91161  1.0000
  Fe  Fe43      1.0  0.10736  0.72812  0.81099  1.0000
  S   S85       1.0  0.11547  0.69151  0.81637  1.0000
  Fe  Fe44      1.0  0.07242  0.76434  0.79475  1.0000
  S   S86       1.0  0.03882  0.77737  0.77331  1.0000
  S   S87       1.0  0.13159  0.75189  0.83088  1.0000
  S   S88       1.0  0.09480  0.79077  0.81444  1.0000
  Fe  Fe45      1.0  0.28118  0.62304  0.80639  1.0000
  S   S89       1.0  0.25893  0.61130  0.76561  1.0000
  S   S90       1.0  0.31488  0.63849  0.79729  1.0000
  Fe  Fe46      1.0  0.24828  0.61043  0.86378  1.0000
  S   S91       1.0  0.22375  0.59768  0.82609  1.0000
  S   S92       1.0  0.23693  0.61485  0.91892  1.0000
  Fe  Fe47      1.0  0.25342  0.58160  0.79930  1.0000
  S   S93       1.0  0.25874  0.54466  0.78603  1.0000
  Fe  Fe48      1.0  0.23140  0.62815  0.79561  1.0000
  S   S94       1.0  0.21054  0.65480  0.76917  1.0000
  S   S95       1.0  0.27738  0.59271  0.83921  1.0000
  S   S96       1.0  0.25415  0.64159  0.83430  1.0000
  H   H438      1.0  0.23730  0.72205  0.78238  1.0000
  C   C258      1.0  0.25448  0.52484  0.75351  1.0000
  C   C259      1.0  0.24620  0.53064  0.72154  1.0000
  H   H439      1.0  0.32592  0.60784  0.69958  1.0000
  H   H440      1.0  0.29658  0.86642  0.61064  1.0000
  H   H441      1.0  0.24180  0.54769  0.71597  1.0000
  H   H442      1.0  0.28934  0.59209  0.70201  1.0000
  C   C260      1.0  0.14188  0.68137  0.80316  1.0000
  C   C261      1.0  0.14949  0.66036  0.81401  1.0000
  C   C262      1.0  0.17084  0.65226  0.80484  1.0000
  C   C263      1.0  0.18437  0.66484  0.78376  1.0000
  C   C264      1.0  0.17664  0.68575  0.77273  1.0000
  C   C265      1.0  0.15566  0.69415  0.78284  1.0000
  H   H443      1.0  0.13890  0.65036  0.82970  1.0000
  H   H444      1.0  0.17655  0.63605  0.81322  1.0000
  H   H445      1.0  0.18680  0.69544  0.75598  1.0000
  H   H446      1.0  0.14993  0.71032  0.77427  1.0000
  H   H447      1.0  0.29894  0.58745  0.99140  1.0000
  C   C266      1.0  0.01347  0.76615  0.75877  1.0000
  H   H448      1.0  0.02244  0.73207  0.76795  1.0000
  H   H449      1.0  0.26105  0.81715  0.56865  1.0000
  C   C267      1.0  0.25078  0.60881  0.95784  1.0000
  C   C268      1.0  0.27224  0.59935  0.95916  1.0000
  C   C269      1.0  0.23799  0.71295  0.75810  1.0000
  H   H450      1.0  0.28099  0.59545  0.93590  1.0000
  C   C270      1.0  0.10953  0.78022  0.98120  1.0000
  C   C271      1.0  0.10222  0.76901  0.95250  1.0000
  C   C272      1.0  0.08997  0.74997  0.95723  1.0000
  H   H451      1.0  0.11900  0.79497  0.97788  1.0000
  H   H452      1.0  0.08417  0.74120  0.93548  1.0000
  C   C273      1.0  0.16679  0.85436  0.71114  1.0000
  C   C274      1.0  0.18029  0.83592  0.70339  1.0000
  C   C275      1.0  0.17505  0.81498  0.71636  1.0000
  C   C276      1.0  0.15651  0.81222  0.73766  1.0000
  C   C277      1.0  0.14283  0.83060  0.74507  1.0000
  C   C278      1.0  0.14789  0.85153  0.73168  1.0000
  H   H453      1.0  0.19477  0.83779  0.68744  1.0000
  H   H454      1.0  0.18563  0.80085  0.71024  1.0000
  H   H455      1.0  0.12849  0.82873  0.76134  1.0000
  H   H456      1.0  0.13730  0.86567  0.73773  1.0000
  C   C279      1.0  0.24476  0.98589  0.71330  1.0000
  C   C280      1.0  0.24004  0.98007  0.74690  1.0000
  H   H457      1.0  0.23663  0.96311  0.75317  1.0000
  H   H458      1.0  0.00294  0.78613  0.82053  1.0000
  C   C281      1.0  0.31269  0.65325  0.73046  1.0000
  H   H459      1.0  0.32990  0.79203  0.70953  1.0000
  H   H460      1.0  0.29879  0.64256  0.72758  1.0000
  H   H461      1.0  0.31144  0.66541  0.67895  1.0000
  C   C282      1.0  0.31987  0.78810  0.60043  1.0000
  C   C283      1.0  0.30045  0.84115  0.70402  1.0000
  H   H462      1.0  0.21070  0.96814  0.57064  1.0000
  H   H463      1.0  0.14527  0.70534  0.96878  1.0000
  H   H464      1.0  0.23755  0.93765  0.57232  1.0000
  H   H465      1.0  0.32493  0.77199  0.58920  1.0000
  H   H466      1.0  0.28771  0.78777  0.57650  1.0000
  C   C284      1.0  0.27727  0.98561  0.60036  1.0000
  C   C285      1.0  0.24153  0.89674  0.52318  1.0000
  H   H467      1.0  0.17062  0.68882  0.85548  1.0000
  H   H468      1.0  0.21156  0.91260  0.54201  1.0000
  C   C286      1.0  0.16136  0.72174  0.92454  1.0000
  N   N20       1.0  0.22315  0.84824  0.79545  1.0000
  C   C287      1.0  0.23988  0.86630  0.79460  1.0000
  C   C288      1.0  0.20321  0.85643  0.77566  1.0000
  C   C289      1.0  0.23347  0.82860  0.77743  1.0000
  C   C290      1.0  0.21759  0.84274  0.83185  1.0000
  C   C291      1.0  0.26246  0.86092  0.81150  1.0000
  C   C292      1.0  0.19253  0.87853  0.78744  1.0000
  C   C293      1.0  0.22002  0.80745  0.77745  1.0000
  C   C294      1.0  0.19437  0.83344  0.83921  1.0000
  H   H469      1.0  0.24345  0.87140  0.76804  1.0000
  H   H470      1.0  0.23319  0.88136  0.80740  1.0000
  H   H471      1.0  0.18993  0.84416  0.77564  1.0000
  H   H472      1.0  0.20775  0.85873  0.74849  1.0000
  H   H473      1.0  0.23716  0.83295  0.75053  1.0000
  H   H474      1.0  0.24967  0.82350  0.78867  1.0000
  H   H475      1.0  0.23010  0.83069  0.84233  1.0000
  H   H476      1.0  0.21867  0.85759  0.84806  1.0000
  H   H477      1.0  0.27159  0.87644  0.81421  1.0000
  H   H478      1.0  0.26065  0.85355  0.83707  1.0000
  H   H479      1.0  0.27317  0.85005  0.79541  1.0000
  H   H480      1.0  0.17542  0.88026  0.77724  1.0000
  H   H481      1.0  0.19151  0.87986  0.81531  1.0000
  H   H482      1.0  0.20185  0.89264  0.77713  1.0000
  H   H483      1.0  0.22787  0.79555  0.75948  1.0000
  H   H484      1.0  0.20273  0.81029  0.76909  1.0000
  H   H485      1.0  0.22025  0.79936  0.80273  1.0000
  H   H486      1.0  0.18091  0.84603  0.83535  1.0000
  H   H487      1.0  0.19347  0.82830  0.86622  1.0000
  H   H488      1.0  0.19060  0.81882  0.82409  1.0000
  C   C295      1.0  0.28592  0.82165  0.62531  1.0000
  H   H489      1.0  0.32509  0.83398  0.60658  1.0000
  C   C296      1.0  0.00454  0.78325  0.90730  1.0000
  H   H490      1.0  0.10678  0.69076  0.89768  1.0000
  H   H491      1.0  0.25935  0.70817  0.69481  1.0000
  H   H492      1.0  0.29875  0.57520  0.77105  1.0000
  H   H493      1.0  0.25929  0.70647  0.82242  1.0000
  C   C297      1.0  0.03356  0.79693  0.86780  1.0000
  C   C298      1.0  0.22584  0.72779  0.73179  1.0000
  H   H494      1.0  0.14236  0.67477  0.88744  1.0000
  C   C299      1.0  0.27577  0.72600  0.74962  1.0000
  H   H495      1.0  0.27571  0.57203  0.72669  1.0000
  H   H496      1.0  0.23463  0.95290  0.51627  1.0000
  H   H497      1.0  0.27355  0.73566  0.77327  1.0000
  C   C300      1.0  0.29172  0.93652  0.57094  1.0000
  H   H498      1.0  0.28062  0.69017  0.70959  1.0000
  H   H499      1.0  0.30323  0.94916  0.57964  1.0000
  C   C301      1.0  0.18841  0.66452  0.90524  1.0000
  H   H500      1.0  0.29807  0.56340  0.70054  1.0000
  H   H501      1.0  0.06699  0.80406  0.88338  1.0000
  C   C302      1.0  0.27463  0.82912  0.56693  1.0000
  C   C303      1.0  0.31989  0.66624  0.70294  1.0000
  C   C304      1.0  0.30593  0.81928  0.71359  1.0000
  H   H502      1.0  0.27934  0.83823  0.63286  1.0000
  H   H503      1.0  0.30167  0.53501  0.73889  1.0000
  C   C305      1.0  0.30728  0.58156  0.74800  1.0000
  H   H504      1.0  0.31131  0.86966  0.67648  1.0000
  C   C306      1.0  0.00366  0.74136  0.86214  1.0000
  H   H505      1.0  0.33298  0.56521  0.69263  1.0000
  H   H506      1.0  0.17106  0.49950  0.69411  1.0000
  C   C307      1.0  0.26002  0.50244  0.75999  1.0000
  C   C308      1.0  0.26325  0.69578  0.71500  1.0000
  H   H507      1.0  0.20883  0.73185  0.74141  1.0000
  H   H508      1.0  0.30874  0.79989  0.55198  1.0000
  H   H509      1.0  0.01458  0.76095  0.58556  1.0000
  H   H510      1.0  0.02825  0.81433  0.87244  1.0000
  H   H511      1.0  0.23408  0.74367  0.72764  1.0000
  H   H512      1.0  0.25142  0.66963  0.68321  1.0000
  H   H513      1.0  0.02789  0.78681  0.64998  1.0000
  H   H514      1.0  0.32132  0.58635  0.81342  1.0000
  H   H515      1.0  0.25309  0.94991  0.60387  1.0000
  C   C309      1.0  0.00961  0.74352  0.75911  1.0000
  C   C310      1.0  0.16938  0.70444  0.86977  1.0000
  H   H516      1.0  0.30722  0.70593  0.75381  1.0000
  H   H517      1.0  0.26428  0.80638  0.66207  1.0000
  C   C311      1.0  0.14232  0.68765  0.90738  1.0000
  H   H518      1.0  0.01246  0.73889  0.65720  1.0000
  C   C312      1.0  0.27981  0.83135  0.52875  1.0000
  H   H519      1.0  0.23648  0.99134  0.79844  1.0000
  H   H520      1.0  0.01450  0.77761  0.95964  1.0000
  H   H521      1.0  0.28248  0.92932  0.59238  1.0000
  C   C313      1.0  0.22145  0.90869  0.51980  1.0000
  C   C314      1.0  0.23972  0.61373  0.98848  1.0000
  H   H522      1.0  0.14044  0.67825  0.93148  1.0000
  H   H523      1.0  0.04943  0.79699  0.91782  1.0000
  H   H524      1.0  0.17669  0.68166  0.94942  1.0000
  C   C315      1.0  0.30657  0.86216  0.58787  1.0000
  C   C316      1.0  0.32342  0.65426  0.76164  1.0000
  H   H525      1.0  0.17736  0.73042  0.92414  1.0000
  H   H526      1.0  0.14973  0.73348  0.91119  1.0000
  H   H527      1.0  0.31049  0.73462  0.75571  1.0000
  N   N21       1.0  0.16371  0.70006  0.90636  1.0000
  C   C317      1.0  0.30175  0.79922  0.57812  1.0000
  H   H528      1.0  0.19389  0.71717  0.83495  1.0000
  C   C318      1.0  0.26976  0.98396  0.56307  1.0000
  H   H529      1.0  0.22375  0.71932  0.70735  1.0000
  C   C319      1.0  0.12082  0.70177  0.90245  1.0000
  C   C320      1.0  0.19103  0.71666  0.86276  1.0000
  H   H530      1.0  0.01150  0.72456  0.86132  1.0000
  H   H531      1.0  0.03946  0.76293  0.62809  1.0000
  C   C321      1.0  0.31283  0.83735  0.58614  1.0000
  H   H532      1.0  0.26655  0.84471  0.57603  1.0000
  H   H533      1.0  0.14329  0.73455  0.96866  1.0000
  H   H534      1.0  0.12191  0.71316  0.88051  1.0000
  C   C322      1.0  0.24873  0.67566  0.70939  1.0000
  H   H535      1.0  0.32201  0.87169  0.58903  1.0000
  H   H536      1.0  0.07527  0.72786  0.99365  1.0000
  H   H537      1.0  0.30699  0.59983  0.75079  1.0000
  H   H538      1.0  0.30476  0.72199  0.71556  1.0000
  H   H539      1.0  0.28441  0.98720  0.54662  1.0000
  C   C323      1.0  0.30086  0.72174  0.74310  1.0000
  C   C324      1.0  0.26763  0.80533  0.63443  1.0000
  C   C325      1.0  0.05357  0.79286  0.89120  1.0000
  H   H540      1.0  0.26824  0.93122  0.53152  1.0000
  H   H541      1.0  0.30221  0.92284  0.56037  1.0000
  C   C326      1.0  0.26921  0.68909  0.77560  1.0000
  H   H542      1.0  0.19729  0.66753  0.88101  1.0000
  C   C327      1.0  0.22399  0.96885  0.58988  1.0000
  H   H543      1.0  0.28834  0.70918  0.81075  1.0000
  C   C328      1.0  0.27407  0.69806  0.81105  1.0000
  H   H544      1.0  0.22757  0.69837  0.76255  1.0000
  H   H545      1.0  0.27883  0.68401  0.82798  1.0000
  H   H546      1.0  0.25660  0.67620  0.77915  1.0000
  H   H547      1.0  0.23077  0.67982  0.71208  1.0000
  H   H548      1.0  0.18977  0.73404  0.87119  1.0000
  C   C329      1.0  0.24358  0.51434  0.69661  1.0000
  C   C330      1.0  0.01560  0.76868  0.93524  1.0000
  H   H549      1.0  0.23717  0.51913  0.67205  1.0000
  N   N22       1.0  0.26158  0.70596  0.74955  1.0000
  H   H550      1.0  0.17395  0.65410  0.90064  1.0000
  H   H551      1.0  0.15582  0.71412  0.85721  1.0000
  C   C331      1.0  0.27632  0.94558  0.54292  1.0000
  H   H552      1.0  0.11652  0.71147  0.92533  1.0000
  H   H553      1.0  0.03990  0.79644  0.84123  1.0000
  H   H554      1.0  0.19708  0.69579  0.92640  1.0000
  N   N23       1.0  0.33097  0.57279  0.74651  1.0000
  H   H555      1.0  0.04068  0.76464  0.67309  1.0000
  C   C332      1.0  0.24410  0.95379  0.58015  1.0000
  C   C333      1.0  0.18175  0.68625  0.92321  1.0000
  N   N24       1.0  0.25903  0.96286  0.55287  1.0000
  H   H556      1.0  0.28426  0.67977  0.76699  1.0000
  H   H557      1.0  0.16939  0.72060  0.97872  1.0000
  H   H558      1.0  0.27036  0.73784  0.72947  1.0000
  H   H559      1.0  0.32256  0.83462  0.56245  1.0000
  H   H560      1.0  0.29465  0.81025  0.72953  1.0000
  H   H561      1.0  0.06073  0.77591  0.88956  1.0000
  H   H562      1.0  0.28764  0.95199  0.52304  1.0000
  C   C334      1.0  0.08495  0.74246  0.99028  1.0000
  H   H563      1.0  0.20014  0.65476  0.92151  1.0000
  H   H564      1.0  0.27273  0.78801  0.62917  1.0000
  H   H565      1.0  0.25175  0.80967  0.62168  1.0000
  H   H566      1.0  0.00625  0.75338  0.93939  1.0000
  H   H567      1.0  0.03337  0.76441  0.93132  1.0000
  N   N25       1.0  0.01437  0.78169  0.87212  1.0000
  H   H568      1.0  0.32338  0.51546  0.74709  1.0000
  C   C335      1.0  0.15453  0.72028  0.96228  1.0000
  H   H569      1.0  0.20572  0.70811  0.87407  1.0000
  C   C336      1.0  0.29231  0.57684  0.71729  1.0000
  H   H570      1.0  0.32543  0.54710  0.78389  1.0000
  H   H571      1.0  0.25331  0.66178  0.72666  1.0000
  C   C337      1.0  0.03011  0.76863  0.65078  1.0000
  H   H572      1.0  0.31386  0.78457  0.62644  1.0000
  H   H573      1.0  0.00441  0.80064  0.91613  1.0000
  H   H574      1.0  0.03009  0.75843  0.83770  1.0000
  C   C338      1.0  0.02199  0.75855  0.86308  1.0000
  C   C339      1.0  0.31521  0.85274  0.68363  1.0000
  C   C340      1.0  0.33242  0.54899  0.75792  1.0000
  H   H575      1.0  0.03501  0.75193  0.88028  1.0000
  H   H576      1.0  0.30002  0.81799  0.64249  1.0000
  H   H577      1.0  0.22861  0.98616  0.59367  1.0000
  C   C341      1.0  0.28239  0.59483  0.99072  1.0000
  H   H578      1.0  0.23241  0.98116  0.52713  1.0000
  H   H579      1.0  0.29753  0.86787  0.56492  1.0000
  N   N26       1.0  0.29376  0.82184  0.58904  1.0000
  H   H580      1.0  0.26829  0.84399  0.51747  1.0000
  H   H581      1.0  0.22313  0.62099  0.98785  1.0000
  C   C342      1.0  0.32587  0.80891  0.70229  1.0000
  H   H582      1.0  0.26465  0.99493  0.61561  1.0000
  C   C343      1.0  0.31990  0.53228  0.73670  1.0000
  H   H583      1.0  0.21674  0.96300  0.61412  1.0000
  H   H584      1.0  0.00706  0.73427  0.59953  1.0000
  H   H585      1.0  0.29668  0.83716  0.52327  1.0000
  C   C344      1.0  0.00794  0.75676  0.65499  1.0000
  C   C345      1.0  0.24468  0.96747  0.52222  1.0000
  H   H586      1.0  0.27770  0.81542  0.51571  1.0000
  H   H587      1.0  0.28131  0.96980  0.61327  1.0000
  H   H588      1.0  0.32522  0.53197  0.70985  1.0000
  C   C346      1.0  0.23996  0.99618  0.77258  1.0000
  H   H589      1.0  0.29250  0.99545  0.60134  1.0000
  Fe  Fe49      1.0  0.60623  0.23046  0.32084  1.0000
  S   S97       1.0  0.62924  0.25738  0.33383  1.0000
  S   S98       1.0  0.61761  0.19481  0.31255  1.0000
  Fe  Fe50      1.0  0.56511  0.26194  0.31715  1.0000
  S   S99       1.0  0.58563  0.29115  0.33112  1.0000
  S   S100      1.0  0.52734  0.26751  0.30960  1.0000
  Fe  Fe51      1.0  0.61124  0.27768  0.29432  1.0000
  S   S101      1.0  0.62587  0.29609  0.24888  1.0000
  Fe  Fe52      1.0  0.60196  0.26851  0.37008  1.0000
  S   S102      1.0  0.61444  0.27840  0.42237  1.0000
  S   S103      1.0  0.58984  0.24973  0.27847  1.0000
  S   S104      1.0  0.57981  0.24030  0.35892  1.0000
  Fe  Fe53      1.0  0.39024  0.25279  0.11320  1.0000
  S   S105      1.0  0.40772  0.23058  0.15094  1.0000
  S   S106      1.0  0.38888  0.23833  0.05974  1.0000
  Fe  Fe54      1.0  0.37309  0.28299  0.17053  1.0000
  S   S107      1.0  0.38939  0.26247  0.21199  1.0000
  C   C347      1.0  0.33821  0.19179  0.19544  1.0000
  Fe  Fe55      1.0  0.41938  0.26090  0.17714  1.0000
  S   S108      1.0  0.45693  0.25841  0.18922  1.0000
  Fe  Fe56      1.0  0.37694  0.23354  0.18280  1.0000
  S   S109      1.0  0.36487  0.20133  0.20545  1.0000
  S   S110      1.0  0.40380  0.28326  0.13688  1.0000
  S   S111      1.0  0.35873  0.25398  0.14406  1.0000
  H   H590      1.0  0.61757  0.22500  0.22495  1.0000
  H   H591      1.0  0.57610  0.33291  0.27814  1.0000
  C   C348      1.0  0.66175  0.31865  0.27428  1.0000
  C   C349      1.0  0.63513  0.21916  0.22216  1.0000
  H   H592      1.0  0.64364  0.24917  0.24617  1.0000
  H   H593      1.0  0.58889  0.34813  0.49087  1.0000
  C   C350      1.0  0.35228  0.39124  0.20762  1.0000
  C   C351      1.0  0.33742  0.32481  0.21172  1.0000
  H   H594      1.0  0.39427  0.28393  0.03540  1.0000
  H   H595      1.0  0.36767  0.38594  0.19393  1.0000
  H   H596      1.0  0.66265  0.18390  0.40448  1.0000
  H   H597      1.0  0.56143  0.36347  0.19517  1.0000
  C   C352      1.0  0.56383  0.28504  0.20784  1.0000
  C   C353      1.0  0.64908  0.31353  0.24608  1.0000
  H   H598      1.0  0.64010  0.22180  0.19545  1.0000
  H   H599      1.0  0.54892  0.29226  0.25591  1.0000
  N   N27       1.0  0.55803  0.32378  0.23355  1.0000
  H   H600      1.0  0.36380  0.42340  0.21741  1.0000
  C   C354      1.0  0.56196  0.29941  0.23977  1.0000
  H   H601      1.0  0.63542  0.19968  0.48476  1.0000
  C   C355      1.0  0.60273  0.27397  0.46328  1.0000
  H   H602      1.0  0.35120  0.17360  0.03760  1.0000
  C   C356      1.0  0.58085  0.26741  0.46806  1.0000
  H   H603      1.0  0.34551  0.45057  0.24743  1.0000
  H   H604      1.0  0.57060  0.26443  0.44631  1.0000
  C   C357      1.0  0.50811  0.26480  0.27567  1.0000
  C   C358      1.0  0.48607  0.27279  0.27995  1.0000
  C   C359      1.0  0.47027  0.27133  0.25381  1.0000
  C   C360      1.0  0.47623  0.26163  0.22293  1.0000
  C   C361      1.0  0.49829  0.25368  0.21863  1.0000
  C   C362      1.0  0.51410  0.25521  0.24474  1.0000
  H   H605      1.0  0.48117  0.28028  0.30369  1.0000
  H   H606      1.0  0.45346  0.27760  0.25765  1.0000
  H   H607      1.0  0.50317  0.24611  0.19494  1.0000
  H   H608      1.0  0.53084  0.24875  0.24104  1.0000
  C   C363      1.0  0.64524  0.18550  0.32015  1.0000
  C   C364      1.0  0.65187  0.16382  0.31166  1.0000
  H   H609      1.0  0.63975  0.15274  0.30192  1.0000
  C   C365      1.0  0.66099  0.19963  0.33285  1.0000
  C   C366      1.0  0.34742  0.17908  0.10328  1.0000
  H   H610      1.0  0.38160  0.18980  0.09178  1.0000
  H   H611      1.0  0.35825  0.30688  0.24704  1.0000
  H   H612      1.0  0.36257  0.19895  0.04616  1.0000
  H   H613      1.0  0.53845  0.32677  0.18809  1.0000
  C   C367      1.0  0.34502  0.31918  0.24408  1.0000
  H   H614      1.0  0.66402  0.26905  0.27874  1.0000
  C   C368      1.0  0.57691  0.33151  0.21145  1.0000
  H   H615      1.0  0.59012  0.35962  0.18429  1.0000
  H   H616      1.0  0.51645  0.30835  0.25204  1.0000
  H   H617      1.0  0.36774  0.20515  0.12522  1.0000
  H   H618      1.0  0.58295  0.36568  0.22691  1.0000
  C   C369      1.0  0.61573  0.27784  0.49195  1.0000
  H   H619      1.0  0.64544  0.31841  0.19227  1.0000
  H   H620      1.0  0.59323  0.32650  0.22264  1.0000
  H   H621      1.0  0.51402  0.30144  0.20786  1.0000
  C   C370      1.0  0.54204  0.33010  0.29400  1.0000
  H   H622      1.0  0.56276  0.26742  0.21531  1.0000
  C   C371      1.0  0.51619  0.31505  0.22602  1.0000
  C   C372      1.0  0.57754  0.35656  0.20436  1.0000
  C   C373      1.0  0.64965  0.23178  0.24694  1.0000
  H   H623      1.0  0.52514  0.33597  0.28666  1.0000
  C   C374      1.0  0.55935  0.33576  0.26672  1.0000
  H   H624      1.0  0.63547  0.20124  0.22824  1.0000
  H   H625      1.0  0.50077  0.32546  0.22401  1.0000
  C   C375      1.0  0.36984  0.18875  0.11337  1.0000
  H   H626      1.0  0.55034  0.28878  0.18961  1.0000
  C   C376      1.0  0.53632  0.32904  0.21588  1.0000
  N   N28       1.0  0.44311  0.19928  0.24919  1.0000
  C   C377      1.0  0.45582  0.21278  0.27404  1.0000
  C   C378      1.0  0.42213  0.21236  0.24092  1.0000
  C   C379      1.0  0.45716  0.19686  0.21761  1.0000
  C   C380      1.0  0.43873  0.17707  0.26505  1.0000
  C   C381      1.0  0.47964  0.20450  0.28233  1.0000
  C   C382      1.0  0.40696  0.21805  0.27143  1.0000
  C   C383      1.0  0.44721  0.18409  0.18818  1.0000
  C   C384      1.0  0.41881  0.16440  0.25119  1.0000
  H   H627      1.0  0.45704  0.23005  0.26478  1.0000
  H   H628      1.0  0.44689  0.21397  0.29872  1.0000
  H   H629      1.0  0.41176  0.20401  0.22233  1.0000
  H   H630      1.0  0.42628  0.22822  0.22823  1.0000
  H   H631      1.0  0.46162  0.21338  0.20763  1.0000
  H   H632      1.0  0.47316  0.18803  0.22315  1.0000
  H   H633      1.0  0.45378  0.16603  0.26312  1.0000
  H   H634      1.0  0.43541  0.17894  0.29266  1.0000
  H   H635      1.0  0.48580  0.21385  0.30426  1.0000
  H   H636      1.0  0.48043  0.18676  0.28924  1.0000
  H   H637      1.0  0.49126  0.20787  0.26110  1.0000
  H   H638      1.0  0.40427  0.20368  0.28825  1.0000
  H   H639      1.0  0.41369  0.23177  0.28623  1.0000
  H   H640      1.0  0.39041  0.22380  0.26212  1.0000
  H   H641      1.0  0.43093  0.19096  0.17987  1.0000
  H   H642      1.0  0.44611  0.16630  0.19442  1.0000
  H   H643      1.0  0.45853  0.18528  0.16596  1.0000
  H   H644      1.0  0.42306  0.14645  0.25152  1.0000
  H   H645      1.0  0.41383  0.16858  0.22504  1.0000
  H   H646      1.0  0.40412  0.16642  0.26815  1.0000
  H   H647      1.0  0.37781  0.17778  0.13270  1.0000
  H   H648      1.0  0.54608  0.33886  0.31762  1.0000
  H   H649      1.0  0.58023  0.28680  0.19526  1.0000
  H   H650      1.0  0.57658  0.32364  0.18617  1.0000
  H   H651      1.0  0.55730  0.35387  0.26287  1.0000
  H   H652      1.0  0.34700  0.22489  0.08281  1.0000
  C   C385      1.0  0.33825  0.46628  0.20005  1.0000
  C   C386      1.0  0.39261  0.27335  0.01376  1.0000
  H   H653      1.0  0.33857  0.38222  0.19645  1.0000
  H   H654      1.0  0.65606  0.21621  0.34000  1.0000
  H   H655      1.0  0.60794  0.20840  0.49603  1.0000
  H   H656      1.0  0.65679  0.25642  0.17626  1.0000
  C   C387      1.0  0.34631  0.19087  0.04417  1.0000
  H   H657      1.0  0.57751  0.29650  0.25436  1.0000
  H   H658      1.0  0.53134  0.34670  0.21940  1.0000
  H   H659      1.0  0.33766  0.17697  0.12705  1.0000
  H   H660      1.0  0.35144  0.42091  0.17730  1.0000
  C   C388      1.0  0.33570  0.32976  0.27268  1.0000
  H   H661      1.0  0.54218  0.31235  0.30064  1.0000
  C   C389      1.0  0.38981  0.25074  0.01870  1.0000
  S   S112      1.0  0.34895  0.31268  0.17470  1.0000
  H   H662      1.0  0.35137  0.41318  0.27498  1.0000
  H   H663      1.0  0.63268  0.28287  0.48857  1.0000
  H   H664      1.0  0.33891  0.21969  0.01178  1.0000
  C   C390      1.0  0.34917  0.41655  0.20451  1.0000
  H   H665      1.0  0.64527  0.22603  0.27292  1.0000
  H   H666      1.0  0.34400  0.48178  0.21139  1.0000
  H   H667      1.0  0.34177  0.32537  0.29762  1.0000
  H   H668      1.0  0.35140  0.16211  0.09422  1.0000
  H   H669      1.0  0.65735  0.31212  0.29891  1.0000
  H   H670      1.0  0.34616  0.15816  0.21005  1.0000
  H   H671      1.0  0.66281  0.27076  0.21471  1.0000
  C   C391      1.0  0.65507  0.32228  0.21430  1.0000
  H   H672      1.0  0.66004  0.16364  0.43664  1.0000
  H   H673      1.0  0.35192  0.45955  0.18392  1.0000
  H   H674      1.0  0.35437  0.38570  0.23426  1.0000
  C   C392      1.0  0.33506  0.20188  0.01322  1.0000
  Fe  Fe57      1.0  0.58734  0.26740  0.62422  1.0000
  S   S113      1.0  0.58664  0.23700  0.65740  1.0000
  S   S114      1.0  0.57287  0.26632  0.57072  1.0000
  Fe  Fe58      1.0  0.60940  0.29460  0.68005  1.0000
  S   S115      1.0  0.60991  0.26609  0.71684  1.0000
  S   S116      1.0  0.62767  0.32719  0.68212  1.0000
  Fe  Fe59      1.0  0.62135  0.24516  0.67286  1.0000
  S   S117      1.0  0.65465  0.22632  0.66808  1.0000
  Fe  Fe60      1.0  0.57471  0.26014  0.69885  1.0000
  S   S118      1.0  0.54724  0.24876  0.73575  1.0000
  S   S119      1.0  0.62246  0.27400  0.63692  1.0000
  S   S120      1.0  0.57363  0.29018  0.66475  1.0000
  Fe  Fe61      1.0  0.38803  0.26454  0.85971  1.0000
  S   S121      1.0  0.41115  0.23779  0.83988  1.0000
  S   S122      1.0  0.39251  0.28107  0.91097  1.0000
  Fe  Fe62      1.0  0.36278  0.26881  0.79200  1.0000
  S   S123      1.0  0.38421  0.24202  0.76838  1.0000
  H   H675      1.0  0.38445  0.34490  0.69364  1.0000
  Fe  Fe63      1.0  0.37985  0.22407  0.81785  1.0000
  S   S124      1.0  0.37186  0.18779  0.82402  1.0000
  Fe  Fe64      1.0  0.41352  0.25820  0.79197  1.0000
  S   S125      1.0  0.44304  0.27068  0.76007  1.0000
  S   S126      1.0  0.35674  0.24977  0.84034  1.0000
  S   S127      1.0  0.39198  0.28599  0.81308  1.0000
  H   H676      1.0  0.59674  0.16913  0.57547  1.0000
  H   H677      1.0  0.35589  0.29183  0.69253  1.0000
  H   H678      1.0  0.64319  0.35182  0.57567  1.0000
  C   C393      1.0  0.57202  0.26522  0.50107  1.0000
  C   C394      1.0  0.37125  0.29163  0.67670  1.0000
  H   H679      1.0  0.63824  0.15699  0.57926  1.0000
  C   C395      1.0  0.64904  0.18259  0.68764  1.0000
  H   H680      1.0  0.39588  0.33757  0.74816  1.0000
  C   C396      1.0  0.64117  0.33847  0.71776  1.0000
  C   C397      1.0  0.63054  0.34019  0.74925  1.0000
  C   C398      1.0  0.64006  0.35235  0.77544  1.0000
  H   H681      1.0  0.63306  0.42559  0.71233  1.0000
  H   H682      1.0  0.61451  0.33295  0.75300  1.0000
  H   H683      1.0  0.63126  0.35420  0.79925  1.0000
  C   C399      1.0  0.51805  0.25461  0.74091  1.0000
  C   C400      1.0  0.50695  0.27196  0.72384  1.0000
  C   C401      1.0  0.48404  0.27635  0.72972  1.0000
  C   C402      1.0  0.47171  0.26338  0.75242  1.0000
  C   C403      1.0  0.48273  0.24589  0.76926  1.0000
  C   C404      1.0  0.50571  0.24168  0.76370  1.0000
  H   H684      1.0  0.51610  0.28216  0.70637  1.0000
  H   H685      1.0  0.47588  0.29002  0.71665  1.0000
  H   H686      1.0  0.47363  0.23565  0.78668  1.0000
  H   H687      1.0  0.51401  0.22819  0.77705  1.0000
  H   H688      1.0  0.39357  0.26542  0.65679  1.0000
  H   H689      1.0  0.61964  0.14701  0.61101  1.0000
  H   H690      1.0  0.42513  0.31950  0.84361  1.0000
  H   H691      1.0  0.62367  0.34494  0.52372  1.0000
  C   C405      1.0  0.39122  0.26886  0.95211  1.0000
  C   C406      1.0  0.38836  0.24624  0.95705  1.0000
  H   H692      1.0  0.38711  0.26237  0.70159  1.0000
  H   H693      1.0  0.38678  0.23566  0.93539  1.0000
  C   C407      1.0  0.60700  0.27531  0.52492  1.0000
  C   C408      1.0  0.58497  0.26927  0.52971  1.0000
  C   C409      1.0  0.64246  0.23136  0.57532  1.0000
  H   H694      1.0  0.61725  0.27825  0.54654  1.0000
  H   H695      1.0  0.37747  0.30334  0.74039  1.0000
  H   H696      1.0  0.42032  0.32853  0.72451  1.0000
  H   H697      1.0  0.43486  0.28996  0.64868  1.0000
  C   C410      1.0  0.36330  0.33756  0.65241  1.0000
  H   H698      1.0  0.43940  0.30326  0.68745  1.0000
  H   H699      1.0  0.63837  0.39864  0.72975  1.0000
  H   H700      1.0  0.63754  0.16860  0.62135  1.0000
  C   C411      1.0  0.45338  0.24832  0.89926  1.0000
  H   H701      1.0  0.56675  0.32140  0.55816  1.0000
  C   C412      1.0  0.42658  0.29473  0.67283  1.0000
  C   C413      1.0  0.38068  0.26779  0.67668  1.0000
  H   H702      1.0  0.60630  0.32200  0.52795  1.0000
  C   C414      1.0  0.66264  0.19814  0.67233  1.0000
  H   H703      1.0  0.59295  0.35644  0.63906  1.0000
  H   H704      1.0  0.60026  0.22787  0.54800  1.0000
  H   H705      1.0  0.35727  0.35504  0.65351  1.0000
  H   H706      1.0  0.65374  0.22767  0.55374  1.0000
  H   H707      1.0  0.63963  0.04561  0.79186  1.0000
  H   H708      1.0  0.61177  0.37645  0.57261  1.0000
  C   C415      1.0  0.60799  0.33944  0.53584  1.0000
  H   H709      1.0  0.56294  0.34011  0.59376  1.0000
  H   H710      1.0  0.63832  0.30145  0.58240  1.0000
  H   H711      1.0  0.35999  0.33127  0.70567  1.0000
  C   C416      1.0  0.40657  0.32311  0.74102  1.0000
  H   H712      1.0  0.58429  0.36756  0.57846  1.0000
  H   H713      1.0  0.45187  0.32545  0.86034  1.0000
  N   N29       1.0  0.46795  0.28234  0.86662  1.0000
  C   C417      1.0  0.48407  0.28778  0.83851  1.0000
  C   C418      1.0  0.44516  0.28991  0.85511  1.0000
  C   C419      1.0  0.46825  0.25758  0.87097  1.0000
  C   C420      1.0  0.47505  0.29347  0.89868  1.0000
  C   C421      1.0  0.50811  0.27870  0.84265  1.0000
  C   C422      1.0  0.44295  0.31424  0.84356  1.0000
  C   C423      1.0  0.37373  0.33104  0.68674  1.0000
  C   C424      1.0  0.45662  0.29959  0.92472  1.0000
  H   H714      1.0  0.47798  0.28179  0.81387  1.0000
  H   H715      1.0  0.48537  0.30594  0.83527  1.0000
  H   H716      1.0  0.43243  0.28733  0.87494  1.0000
  H   H717      1.0  0.43979  0.27976  0.83350  1.0000
  H   H718      1.0  0.46358  0.24962  0.84681  1.0000
  H   H719      1.0  0.48518  0.25103  0.87701  1.0000
  H   H720      1.0  0.48775  0.28303  0.91214  1.0000
  H   H721      1.0  0.48349  0.30916  0.89287  1.0000
  H   H722      1.0  0.50938  0.26080  0.83706  1.0000
  H   H723      1.0  0.65653  0.01969  0.75037  1.0000
  H   H724      1.0  0.51480  0.28190  0.86811  1.0000
  C   C425      1.0  0.39338  0.28230  0.98066  1.0000
  H   H725      1.0  0.40197  0.28929  0.72834  1.0000
  H   H726      1.0  0.45283  0.23013  0.89665  1.0000
  N   N30       1.0  0.38659  0.30926  0.68811  1.0000
  H   H727      1.0  0.41415  0.31647  0.76467  1.0000
  H   H728      1.0  0.36707  0.25654  0.67058  1.0000
  H   H729      1.0  0.61880  0.17513  0.52803  1.0000
  H   H730      1.0  0.46444  0.30549  0.94819  1.0000
  H   H731      1.0  0.44619  0.28564  0.93212  1.0000
  H   H732      1.0  0.51897  0.28687  0.82376  1.0000
  H   H733      1.0  0.37536  0.33620  0.63120  1.0000
  N   N31       1.0  0.60923  0.34100  0.57402  1.0000
  C   C426      1.0  0.65034  0.05150  0.77085  1.0000
  C   C427      1.0  0.60175  0.36369  0.58559  1.0000
  H   H734      1.0  0.59878  0.32295  0.61862  1.0000
  H   H735      1.0  0.59996  0.18431  0.61334  1.0000
  H   H736      1.0  0.42255  0.27920  0.68594  1.0000
  H   H737      1.0  0.65837  0.06649  0.77971  1.0000
  H   H738      1.0  0.46043  0.25140  0.92456  1.0000
  H   H739      1.0  0.65673  0.45267  0.80188  1.0000
  H   H740      1.0  0.64441  0.18602  0.54016  1.0000
  H   H741      1.0  0.56649  0.19355  0.56788  1.0000
  C   C428      1.0  0.40660  0.31060  0.66500  1.0000
  H   H742      1.0  0.59058  0.22086  0.58857  1.0000
  C   C429      1.0  0.39271  0.30512  0.72461  1.0000
  H   H743      1.0  0.64628  0.14862  0.70367  1.0000
  H   H744      1.0  0.34846  0.32774  0.64716  1.0000
  C   C430      1.0  0.58958  0.35326  0.51776  1.0000
  C   C431      1.0  0.59598  0.32323  0.59085  1.0000
  H   H745      1.0  0.65171  0.45290  0.68680  1.0000
  C   C432      1.0  0.34113  0.15546  0.81676  1.0000
  C   C433      1.0  0.60884  0.17881  0.58986  1.0000
  C   C434      1.0  0.64522  0.31647  0.57093  1.0000
  H   H746      1.0  0.43599  0.25465  0.89820  1.0000
  H   H747      1.0  0.59340  0.37105  0.51774  1.0000
  H   H748      1.0  0.41332  0.32751  0.66571  1.0000
  H   H749      1.0  0.56289  0.31107  0.59969  1.0000
  C   C435      1.0  0.63291  0.21022  0.59051  1.0000
  H   H750      1.0  0.40173  0.30797  0.63825  1.0000
  H   H751      1.0  0.63276  0.18763  0.69700  1.0000
  H   H752      1.0  0.60163  0.30667  0.58211  1.0000
  C   C436      1.0  0.66063  0.36242  0.77097  1.0000
  C   C437      1.0  0.65677  0.16053  0.69147  1.0000
  C   C438      1.0  0.57076  0.32443  0.58497  1.0000
  H   H753      1.0  0.55497  0.26044  0.50439  1.0000
  H   H754      1.0  0.44558  0.31325  0.91545  1.0000
  H   H755      1.0  0.39558  0.29981  0.97719  1.0000
  H   H756      1.0  0.62540  0.21463  0.61548  1.0000
  H   H757      1.0  0.65278  0.23920  0.59476  1.0000
  C   C439      1.0  0.62653  0.19057  0.53652  1.0000
  C   C440      1.0  0.60304  0.36800  0.62396  1.0000
  H   H758      1.0  0.44920  0.31619  0.81722  1.0000
  H   H759      1.0  0.36569  0.29473  0.65030  1.0000
  H   H760      1.0  0.64922  0.45909  0.74563  1.0000
  H   H761      1.0  0.63488  0.33674  0.61215  1.0000
  C   C441      1.0  0.34627  0.17757  0.81007  1.0000
  H   H762      1.0  0.35311  0.14479  0.82963  1.0000
  C   C442      1.0  0.64298  0.41621  0.73135  1.0000
  C   C443      1.0  0.57583  0.20288  0.54843  1.0000
  N   N32       1.0  0.61625  0.19846  0.56942  1.0000
  H   H763      1.0  0.34611  0.32459  0.78528  1.0000
  H   H764      1.0  0.64766  0.19942  0.59618  1.0000
  H   H765      1.0  0.38568  0.21975  0.99356  1.0000
  H   H766      1.0  0.62036  0.36753  0.63329  1.0000
  H   H767      1.0  0.63832  0.42171  0.75719  1.0000
  C   C444      1.0  0.59623  0.21355  0.56415  1.0000
  H   H768      1.0  0.59620  0.38483  0.62917  1.0000
  C   C445      1.0  0.38770  0.23727  0.99013  1.0000
  H   H769      1.0  0.62941  0.24369  0.56833  1.0000
  C   C446      1.0  0.62735  0.16209  0.60068  1.0000
  H   H770      1.0  0.63912  0.05592  0.74951  1.0000
  H   H771      1.0  0.57285  0.35114  0.52871  1.0000
  C   C447      1.0  0.63323  0.33758  0.58419  1.0000
  H   H772      1.0  0.66291  0.31665  0.57863  1.0000
  C   C448      1.0  0.66178  0.34851  0.71325  1.0000
  H   H773      1.0  0.66229  0.04661  0.69592  1.0000
  H   H774      1.0  0.64503  0.31519  0.54299  1.0000
  C   C449      1.0  0.66734  0.45573  0.74906  1.0000
  H   H775      1.0  0.56434  0.21610  0.53866  1.0000
  H   H776      1.0  0.58034  0.19181  0.52719  1.0000
  H   H777      1.0  0.34152  0.19382  0.98988  1.0000
  C   C450      1.0  0.66701  0.03281  0.76089  1.0000
  H   H778      1.0  0.63123  0.22316  0.51100  1.0000
  C   C451      1.0  0.62511  0.20655  0.50577  1.0000
  C   C452      1.0  0.66816  0.41783  0.72500  1.0000
  C   C453      1.0  0.33493  0.32726  0.76425  1.0000
  S   S128      1.0  0.33496  0.28168  0.75736  1.0000
  Fe  Fe65      1.0  0.41576  0.75901  0.29991  1.0000
  S   S129      1.0  0.41168  0.72299  0.31006  1.0000
  S   S130      1.0  0.44690  0.77318  0.27442  1.0000
  Fe  Fe66      1.0  0.36793  0.77050  0.32597  1.0000
  S   S131      1.0  0.36126  0.73473  0.33677  1.0000
  C   C454      1.0  0.64219  0.83371  0.17853  1.0000
  Fe  Fe67      1.0  0.39551  0.73363  0.35945  1.0000
  S   S132      1.0  0.40327  0.71532  0.40911  1.0000
  Fe  Fe68      1.0  0.37779  0.72764  0.28674  1.0000
  S   S133      1.0  0.36717  0.70842  0.24029  1.0000
  S   S134      1.0  0.40161  0.76952  0.35080  1.0000
  S   S135      1.0  0.38240  0.76355  0.27452  1.0000
  Fe  Fe69      1.0  0.57473  0.74648  0.18958  1.0000
  S   S136      1.0  0.58397  0.72319  0.14674  1.0000
  S   S137      1.0  0.54270  0.73857  0.22004  1.0000
  Fe  Fe70      1.0  0.62015  0.76941  0.18368  1.0000
  S   S138      1.0  0.63140  0.74717  0.14173  1.0000
  S   S139      1.0  0.64852  0.79049  0.20210  1.0000
  Fe  Fe71      1.0  0.59749  0.75292  0.11969  1.0000
  S   S140      1.0  0.59726  0.76611  0.06489  1.0000
  Fe  Fe72      1.0  0.61740  0.71950  0.17224  1.0000
  S   S141      1.0  0.63857  0.68756  0.17455  1.0000
  S   S142      1.0  0.58642  0.77670  0.16087  1.0000
  S   S143      1.0  0.60789  0.74119  0.21584  1.0000
  C   C455      1.0  0.64709  0.93205  0.22699  1.0000
  H   H779      1.0  0.65494  0.94262  0.27756  1.0000
  H   H780      1.0  0.66638  0.81991  0.02175  1.0000
  H   H781      1.0  0.62538  0.83819  0.10983  1.0000
  H   H782      1.0  0.34317  0.68304  0.29166  1.0000
  H   H783      1.0  0.45230  0.73063  0.43742  1.0000
  C   C456      1.0  0.59362  0.75359  0.02471  1.0000
  H   H784      1.0  0.34874  0.68655  0.18344  1.0000
  C   C457      1.0  0.41086  0.75583  0.49039  1.0000
  C   C458      1.0  0.64980  0.85497  0.17053  1.0000
  H   H785      1.0  0.58235  0.72250  0.04366  1.0000
  H   H786      1.0  0.64731  0.77431  0.03201  1.0000
  H   H787      1.0  0.65026  0.79416  0.12052  1.0000
  H   H788      1.0  0.65443  0.96385  0.24627  1.0000
  C   C459      1.0  0.58595  0.73219  0.02128  1.0000
  H   H789      1.0  0.65595  0.91715  0.21745  1.0000
  H   H790      1.0  0.46516  0.80914  0.35949  1.0000
  H   H791      1.0  0.61611  0.81010  0.11411  1.0000
  C   C460      1.0  0.65530  0.78965  0.09425  1.0000
  C   C461      1.0  0.63196  0.81748  0.06493  1.0000
  C   C462      1.0  0.61819  0.82420  0.09639  1.0000
  C   C463      1.0  0.65243  0.67647  0.21073  1.0000
  C   C464      1.0  0.40379  0.72624  0.45088  1.0000
  C   C465      1.0  0.40212  0.71175  0.47876  1.0000
  C   C466      1.0  0.40771  0.74848  0.45698  1.0000
  H   H792      1.0  0.39922  0.69450  0.47442  1.0000
  H   H793      1.0  0.40911  0.75986  0.43591  1.0000
  H   H794      1.0  0.63818  0.69970  0.24602  1.0000
  C   C467      1.0  0.64961  0.68578  0.24273  1.0000
  H   H795      1.0  0.34559  0.81915  0.28153  1.0000
  C   C468      1.0  0.51619  0.74872  0.23508  1.0000
  C   C469      1.0  0.50267  0.73450  0.25407  1.0000
  C   C470      1.0  0.48153  0.74158  0.26634  1.0000
  C   C471      1.0  0.47357  0.76314  0.25999  1.0000
  C   C472      1.0  0.48712  0.77738  0.24119  1.0000
  C   C473      1.0  0.50820  0.77025  0.22875  1.0000
  H   H796      1.0  0.50863  0.71782  0.25923  1.0000
  H   H797      1.0  0.47151  0.73039  0.28089  1.0000
  H   H798      1.0  0.48125  0.79409  0.23604  1.0000
  H   H799      1.0  0.51829  0.78145  0.21429  1.0000
  N   N33       1.0  0.47569  0.75451  0.38380  1.0000
  C   C474      1.0  0.48304  0.74542  0.41771  1.0000
  C   C475      1.0  0.49488  0.75204  0.35926  1.0000
  C   C476      1.0  0.45638  0.74218  0.37030  1.0000
  C   C477      1.0  0.46847  0.77832  0.38816  1.0000
  C   C478      1.0  0.46461  0.74292  0.44471  1.0000
  C   C479      1.0  0.51446  0.76732  0.36511  1.0000
  C   C480      1.0  0.46037  0.71707  0.36651  1.0000
  C   C481      1.0  0.46249  0.79132  0.35553  1.0000
  H   H800      1.0  0.49162  0.72902  0.41505  1.0000
  H   H801      1.0  0.49564  0.75612  0.42902  1.0000
  H   H802      1.0  0.48936  0.75448  0.33268  1.0000
  H   H803      1.0  0.50195  0.73488  0.35983  1.0000
  H   H804      1.0  0.44128  0.74489  0.38633  1.0000
  H   H805      1.0  0.45158  0.74869  0.34485  1.0000
  H   H806      1.0  0.45332  0.77958  0.40439  1.0000
  H   H807      1.0  0.48092  0.78772  0.40236  1.0000
  H   H808      1.0  0.45596  0.75881  0.45052  1.0000
  C   C482      1.0  0.65626  0.78670  0.01689  1.0000
  H   H809      1.0  0.47217  0.73679  0.46868  1.0000
  H   H810      1.0  0.52774  0.76337  0.34626  1.0000
  H   H811      1.0  0.50963  0.78494  0.36119  1.0000
  H   H812      1.0  0.52178  0.76489  0.39054  1.0000
  H   H813      1.0  0.44461  0.70950  0.35914  1.0000
  H   H814      1.0  0.46539  0.70884  0.39049  1.0000
  H   H815      1.0  0.47273  0.71321  0.34634  1.0000
  H   H816      1.0  0.44490  0.78914  0.34860  1.0000
  H   H817      1.0  0.47302  0.78689  0.33351  1.0000
  C   C483      1.0  0.34172  0.67922  0.20599  1.0000
  N   N34       1.0  0.43199  0.72401  0.18594  1.0000
  C   C484      1.0  0.42923  0.71757  0.22263  1.0000
  C   C485      1.0  0.43850  0.74783  0.18417  1.0000
  C   C486      1.0  0.44987  0.71012  0.16894  1.0000
  C   C487      1.0  0.41030  0.72054  0.16832  1.0000
  C   C488      1.0  0.42650  0.69273  0.23003  1.0000
  C   C489      1.0  0.42004  0.76497  0.19290  1.0000
  C   C490      1.0  0.47303  0.71067  0.18534  1.0000
  C   C491      1.0  0.40952  0.72699  0.13043  1.0000
  H   H818      1.0  0.44339  0.72306  0.23796  1.0000
  H   H819      1.0  0.41440  0.72621  0.23376  1.0000
  H   H820      1.0  0.44535  0.75225  0.15889  1.0000
  H   H821      1.0  0.45237  0.75082  0.20178  1.0000
  H   H822      1.0  0.44498  0.69262  0.16732  1.0000
  H   H823      1.0  0.45213  0.71551  0.14216  1.0000
  H   H824      1.0  0.40595  0.70286  0.16942  1.0000
  H   H825      1.0  0.39607  0.72885  0.18173  1.0000
  H   H826      1.0  0.42425  0.69027  0.25768  1.0000
  H   H827      1.0  0.41152  0.68622  0.21804  1.0000
  H   H828      1.0  0.44136  0.68266  0.22268  1.0000
  H   H829      1.0  0.41281  0.76184  0.21819  1.0000
  H   H830      1.0  0.42730  0.78159  0.19368  1.0000
  H   H831      1.0  0.40674  0.76561  0.17365  1.0000
  H   H832      1.0  0.48466  0.69943  0.17138  1.0000
  H   H833      1.0  0.47290  0.70496  0.21204  1.0000
  H   H834      1.0  0.48010  0.72735  0.18386  1.0000
  H   H835      1.0  0.41448  0.71269  0.11443  1.0000
  H   H836      1.0  0.42016  0.74092  0.12374  1.0000
  H   H837      1.0  0.39234  0.73253  0.12380  1.0000
  H   H838      1.0  0.63210  0.92617  0.24046  1.0000
  C   C492      1.0  0.65719  0.81706  0.18921  1.0000
  H   H839      1.0  0.62469  0.83035  0.17717  1.0000
  H   H840      1.0  0.63137  0.83148  0.04654  1.0000
  H   H841      1.0  0.63806  0.86779  0.16263  1.0000
  H   H842      1.0  0.64249  0.77802  0.08621  1.0000
  H   H843      1.0  0.60125  0.82954  0.08824  1.0000
  N   N35       1.0  0.65554  0.80983  0.07165  1.0000
  H   H844      1.0  0.62267  0.80429  0.05241  1.0000
  H   H845      1.0  0.41475  0.77286  0.49465  1.0000
  C   C493      1.0  0.34779  0.68697  0.23797  1.0000
  S   S144      1.0  0.33926  0.79308  0.34390  1.0000
  C   C494      1.0  0.33861  0.67730  0.26690  1.0000
  H   H846      1.0  0.64070  0.94196  0.20521  1.0000
  C   C495      1.0  0.66171  0.67719  0.27052  1.0000
  C   C496      1.0  0.66037  0.94656  0.25126  1.0000
  H   H847      1.0  0.65032  0.85800  0.07382  1.0000
  H   H848      1.0  0.65951  0.68468  0.29508  1.0000
  C   C497      1.0  0.66714  0.65815  0.20708  1.0000
  H   H849      1.0  0.66281  0.82893  0.11604  1.0000
  C   C498      1.0  0.66668  0.80494  0.03822  1.0000
  C   C499      1.0  0.66735  0.85059  0.07345  1.0000
  H   H850      1.0  0.66809  0.74396  0.20527  1.0000
  Fe  Fe73      1.0  0.40164  0.74466  0.61192  1.0000
  S   S145      1.0  0.41411  0.76885  0.64976  1.0000
  S   S146      1.0  0.41698  0.75052  0.55918  1.0000
  Fe  Fe74      1.0  0.37197  0.72338  0.66691  1.0000
  S   S147      1.0  0.38267  0.74648  0.70772  1.0000
  H   H851      1.0  0.34789  0.59681  0.82235  1.0000
  Fe  Fe75      1.0  0.37863  0.77292  0.66726  1.0000
  C   C500      1.0  0.40451  0.71926  0.51223  1.0000
  Fe  Fe76      1.0  0.41753  0.74068  0.68670  1.0000
  S   S148      1.0  0.44874  0.72970  0.71713  1.0000
  S   S149      1.0  0.36603  0.75032  0.62765  1.0000
  S   S150      1.0  0.40681  0.71597  0.64790  1.0000
  Fe  Fe77      1.0  0.61747  0.76942  0.82235  1.0000
  S   S151      1.0  0.62436  0.73584  0.84544  1.0000
  S   S152      1.0  0.64393  0.79344  0.83815  1.0000
  Fe  Fe78      1.0  0.57071  0.75650  0.79882  1.0000
  S   S153      1.0  0.57488  0.72262  0.82129  1.0000
  S   S154      1.0  0.53859  0.77026  0.77382  1.0000
  Fe  Fe79      1.0  0.58988  0.73859  0.86670  1.0000
  S   S155      1.0  0.58145  0.72428  0.91896  1.0000
  Fe  Fe80      1.0  0.60927  0.72241  0.79852  1.0000
  S   S156      1.0  0.61942  0.68925  0.77533  1.0000
  S   S157      1.0  0.58334  0.77277  0.84604  1.0000
  S   S158      1.0  0.60461  0.75575  0.77330  1.0000
  C   C501      1.0  0.64554  0.68204  0.75720  1.0000
  H   H852      1.0  0.60744  0.68896  0.84869  1.0000
  C   C502      1.0  0.65786  0.67847  0.58955  1.0000
  H   H853      1.0  0.35872  0.56821  0.71199  1.0000
  H   H854      1.0  0.57623  0.70701  0.98652  1.0000
  H   H855      1.0  0.64299  0.69302  0.84944  1.0000
  C   C503      1.0  0.34075  0.82062  0.68219  1.0000
  H   H856      1.0  0.58764  0.66803  0.84727  1.0000
  C   C504      1.0  0.64954  0.66028  0.74626  1.0000
  H   H857      1.0  0.63507  0.69982  0.64093  1.0000
  H   H858      1.0  0.64741  0.80971  0.76781  1.0000
  C   C505      1.0  0.62087  0.65504  0.85754  1.0000
  C   C506      1.0  0.34858  0.68136  0.73733  1.0000
  H   H859      1.0  0.47783  0.68953  0.64405  1.0000
  H   H860      1.0  0.36233  0.69224  0.74029  1.0000
  C   C507      1.0  0.65914  0.81821  0.78318  1.0000
  C   C508      1.0  0.52871  0.74149  0.88297  1.0000
  H   H861      1.0  0.54745  0.79522  0.90174  1.0000
  H   H862      1.0  0.64829  0.63319  0.59956  1.0000
  C   C509      1.0  0.47388  0.74142  0.73154  1.0000
  C   C510      1.0  0.49060  0.72735  0.74534  1.0000
  C   C511      1.0  0.51064  0.73572  0.75765  1.0000
  C   C512      1.0  0.51423  0.75842  0.75671  1.0000
  C   C513      1.0  0.49760  0.77246  0.74259  1.0000
  C   C514      1.0  0.47764  0.76406  0.72998  1.0000
  H   H863      1.0  0.48797  0.70981  0.74669  1.0000
  H   H864      1.0  0.52321  0.72460  0.76811  1.0000
  H   H865      1.0  0.50008  0.79004  0.74172  1.0000
  H   H866      1.0  0.46500  0.77517  0.71966  1.0000
  C   C515      1.0  0.59509  0.75703  0.96274  1.0000
  C   C516      1.0  0.58699  0.73580  0.95930  1.0000
  H   H867      1.0  0.49545  0.74260  0.95582  1.0000
  H   H868      1.0  0.59875  0.76675  0.94041  1.0000
  H   H869      1.0  0.62232  0.65073  0.83020  1.0000
  S   S159      1.0  0.34488  0.69768  0.67135  1.0000
  C   C517      1.0  0.40923  0.74132  0.51828  1.0000
  H   H870      1.0  0.48177  0.76999  0.91214  1.0000
  H   H871      1.0  0.40359  0.70777  0.53323  1.0000
  S   S160      1.0  0.36621  0.80880  0.66753  1.0000
  H   H872      1.0  0.63662  0.64837  0.74895  1.0000
  C   C518      1.0  0.64197  0.66539  0.90872  1.0000
  C   C519      1.0  0.49648  0.77731  0.83873  1.0000
  C   C520      1.0  0.66316  0.66561  0.55659  1.0000
  H   H873      1.0  0.52513  0.73522  0.82883  1.0000
  C   C521      1.0  0.52008  0.72787  0.85341  1.0000
  H   H874      1.0  0.52732  0.71085  0.85520  1.0000
  H   H875      1.0  0.51397  0.78354  0.93640  1.0000
  N   N36       1.0  0.48283  0.73430  0.61407  1.0000
  C   C522      1.0  0.46640  0.75107  0.62815  1.0000
  C   C523      1.0  0.47022  0.71423  0.60407  1.0000
  C   C524      1.0  0.49449  0.74326  0.58329  1.0000
  C   C525      1.0  0.49989  0.72884  0.64078  1.0000
  C   C526      1.0  0.47559  0.77379  0.63692  1.0000
  C   C527      1.0  0.46336  0.69883  0.63333  1.0000
  C   C528      1.0  0.47914  0.75167  0.55452  1.0000
  C   C529      1.0  0.51781  0.71121  0.63111  1.0000
  H   H876      1.0  0.45234  0.75403  0.61046  1.0000
  H   H877      1.0  0.45862  0.74467  0.65162  1.0000
  H   H878      1.0  0.47971  0.70397  0.58547  1.0000
  H   H879      1.0  0.45461  0.71917  0.59059  1.0000
  H   H880      1.0  0.50558  0.75684  0.59018  1.0000
  H   H881      1.0  0.50577  0.73038  0.57209  1.0000
  H   H882      1.0  0.50921  0.74371  0.64747  1.0000
  H   H883      1.0  0.49197  0.72402  0.66523  1.0000
  H   H884      1.0  0.46169  0.78455  0.64635  1.0000
  H   H885      1.0  0.48790  0.77272  0.65760  1.0000
  H   H886      1.0  0.48266  0.78230  0.61460  1.0000
  C   C530      1.0  0.33766  0.68060  0.70629  1.0000
  H   H887      1.0  0.35492  0.60851  0.71064  1.0000
  N   N37       1.0  0.64341  0.65998  0.87153  1.0000
  H   H888      1.0  0.46821  0.73863  0.54535  1.0000
  C   C531      1.0  0.65816  0.63960  0.86703  1.0000
  H   H889      1.0  0.46874  0.76620  0.56218  1.0000
  H   H890      1.0  0.53288  0.71913  0.62094  1.0000
  H   H891      1.0  0.51214  0.69931  0.61224  1.0000
  H   H892      1.0  0.52242  0.70132  0.65395  1.0000
  C   C532      1.0  0.34135  0.57507  0.71184  1.0000
  H   H893      1.0  0.55363  0.78755  0.94440  1.0000
  C   C533      1.0  0.59811  0.76593  0.99520  1.0000
  H   H894      1.0  0.34690  0.59839  0.67053  1.0000
  H   H895      1.0  0.64602  0.65675  0.64893  1.0000
  C   C534      1.0  0.34159  0.66813  0.76474  1.0000
  H   H896      1.0  0.34327  0.60391  0.76438  1.0000
  C   C535      1.0  0.51431  0.77883  0.86640  1.0000
  H   H897      1.0  0.60389  0.78254  0.99744  1.0000
  C   C536      1.0  0.49137  0.75510  0.90336  1.0000
  H   H898      1.0  0.53070  0.77941  0.85316  1.0000
  H   H899      1.0  0.35011  0.66893  0.78867  1.0000
  H   H900      1.0  0.63997  0.67636  0.59566  1.0000
  C   C537      1.0  0.48939  0.73710  0.93097  1.0000
  H   H901      1.0  0.50195  0.72576  0.85379  1.0000
  H   H902      1.0  0.47966  0.78148  0.84883  1.0000
  C   C538      1.0  0.34216  0.59888  0.69772  1.0000
  N   N38       1.0  0.51470  0.76120  0.89378  1.0000
  H   H903      1.0  0.49642  0.76105  0.82643  1.0000
  H   H904      1.0  0.48195  0.74923  0.88140  1.0000
  H   H905      1.0  0.49807  0.72148  0.92364  1.0000
  H   H906      1.0  0.45171  0.68653  0.62371  1.0000
  C   C539      1.0  0.60269  0.67328  0.86072  1.0000
  H   H907      1.0  0.53255  0.73008  0.90453  1.0000
  C   C540      1.0  0.54797  0.78112  0.91979  1.0000
  H   H908      1.0  0.47158  0.73334  0.93452  1.0000
  C   C541      1.0  0.52515  0.77064  0.92493  1.0000
  H   H909      1.0  0.56075  0.76881  0.91165  1.0000
  H   H910      1.0  0.64585  0.62051  0.91115  1.0000
  H   H911      1.0  0.52779  0.75771  0.94479  1.0000
  H   H912      1.0  0.49993  0.78963  0.81851  1.0000
  H   H913      1.0  0.51150  0.79549  0.87758  1.0000
  H   H914      1.0  0.61371  0.64056  0.87052  1.0000
  H   H915      1.0  0.34696  0.85185  0.65804  1.0000
  H   H916      1.0  0.65600  0.61848  0.63702  1.0000
  H   H917      1.0  0.54543  0.74672  0.87477  1.0000
  H   H918      1.0  0.45471  0.70794  0.65384  1.0000
  H   H919      1.0  0.59768  0.67603  0.88744  1.0000
  H   H920      1.0  0.62240  0.68910  0.93886  1.0000
  C   C542      1.0  0.58249  0.72345  0.98878  1.0000
  C   C543      1.0  0.64855  0.69847  0.65981  1.0000
  H   H921      1.0  0.36282  0.58149  0.76741  1.0000
  H   H922      1.0  0.64410  0.68667  0.68020  1.0000
  H   H923      1.0  0.66391  0.60554  0.88306  1.0000
  C   C544      1.0  0.66306  0.65326  0.63915  1.0000
  C   C545      1.0  0.66240  0.69725  0.75393  1.0000
  H   H924      1.0  0.62758  0.69952  0.89774  1.0000
  C   C546      1.0  0.66123  0.63170  0.61930  1.0000
  H   H925      1.0  0.65943  0.69623  0.58276  1.0000
  H   H926      1.0  0.65481  0.67278  0.82348  1.0000
  C   C547      1.0  0.66061  0.81333  0.81778  1.0000
  H   H927      1.0  0.48946  0.75697  0.53272  1.0000
  H   H928      1.0  0.64736  0.66236  0.54347  1.0000
  C   C548      1.0  0.63502  0.68938  0.91821  1.0000
  C   C549      1.0  0.65356  0.67793  0.85038  1.0000
  C   C550      1.0  0.34483  0.58596  0.77035  1.0000
  H   H929      1.0  0.35011  0.54316  0.75924  1.0000
  H   H930      1.0  0.63609  0.61121  0.87042  1.0000
  H   H931      1.0  0.63017  0.65431  0.92179  1.0000
  H   H932      1.0  0.65957  0.71401  0.76245  1.0000
  C   C551      1.0  0.33925  0.58381  0.80835  1.0000
  H   H933      1.0  0.64932  0.69818  0.92864  1.0000
  H   H934      1.0  0.65834  0.66201  0.92096  1.0000
  H   H935      1.0  0.34515  0.56772  0.81899  1.0000
  C   C552      1.0  0.65022  0.61821  0.88412  1.0000
  H   H936      1.0  0.66069  0.63596  0.83961  1.0000
  H   H937      1.0  0.64962  0.71476  0.67222  1.0000
  H   H938      1.0  0.64441  0.79404  0.99823  1.0000
  C   C553      1.0  0.33541  0.84262  0.67326  1.0000
  H   H939      1.0  0.33504  0.79798  0.60169  1.0000
  Fe  Fe81      1.0  0.78521  0.11521  0.32075  1.0000
  S   S161      1.0  0.75786  0.11812  0.28293  1.0000
  S   S162      1.0  0.82012  0.12762  0.31077  1.0000
  Fe  Fe82      1.0  0.75459  0.09453  0.37472  1.0000
  S   S163      1.0  0.72527  0.09593  0.33927  1.0000
  S   S164      1.0  0.74762  0.08090  0.42796  1.0000
  Fe  Fe83      1.0  0.74952  0.08336  0.29921  1.0000
  S   S165      1.0  0.74253  0.05940  0.25565  1.0000
  Fe  Fe84      1.0  0.73634  0.13009  0.32608  1.0000
  S   S166      1.0  0.71870  0.16391  0.32735  1.0000
  S   S167      1.0  0.77810  0.07992  0.33545  1.0000
  S   S168      1.0  0.76443  0.12909  0.36332  1.0000
  Fe  Fe85      1.0  0.72425  0.37775  0.19144  1.0000
  S   S169      1.0  0.75949  0.38726  0.20194  1.0000
  C   C554      1.0  0.68596  0.34139  0.23897  1.0000
  Fe  Fe86      1.0  0.72666  0.39770  0.11940  1.0000
  S   S170      1.0  0.76169  0.40818  0.12584  1.0000
  S   S171      1.0  0.70790  0.40367  0.06994  1.0000
  Fe  Fe87      1.0  0.76755  0.37470  0.14986  1.0000
  S   S172      1.0  0.79350  0.34960  0.13037  1.0000
  Fe  Fe88      1.0  0.75035  0.42012  0.17751  1.0000
  S   S173      1.0  0.76375  0.45279  0.19766  1.0000
  S   S174      1.0  0.73286  0.36358  0.14061  1.0000
  S   S175      1.0  0.71467  0.41138  0.16986  1.0000
  Fe  Fe89      1.0  0.87864  0.21393  0.18344  1.0000
  S   S176      1.0  0.89159  0.23443  0.22567  1.0000
  S   S177      1.0  0.85096  0.18886  0.18744  1.0000
  Fe  Fe90      1.0  0.90474  0.23940  0.12880  1.0000
  S   S178      1.0  0.91943  0.26154  0.16786  1.0000
  S   S179      1.0  0.91609  0.24825  0.07491  1.0000
  Fe  Fe91      1.0  0.92520  0.23109  0.19977  1.0000
  S   S180      1.0  0.95735  0.22014  0.22785  1.0000
  Fe  Fe92      1.0  0.88495  0.26330  0.19036  1.0000
  S   S181      1.0  0.86976  0.29594  0.20879  1.0000
  S   S182      1.0  0.91251  0.20851  0.15926  1.0000
  S   S183      1.0  0.87006  0.24321  0.14962  1.0000
  C   C555      1.0  0.90565  0.24073  0.03469  1.0000
  C   C556      1.0  0.88977  0.22458  0.03109  1.0000
  C   C557      1.0  0.86021  0.30435  0.01722  1.0000
  H   H940      1.0  0.88348  0.21615  0.05324  1.0000
  C   C558      1.0  0.82899  0.33571  0.05197  1.0000
  C   C559      1.0  0.98794  0.25408  0.23135  1.0000
  C   C560      1.0  0.98315  0.23210  0.23874  1.0000
  H   H941      1.0  0.73401  0.07020  0.49568  1.0000
  C   C561      1.0  0.73059  0.48326  0.21920  1.0000
  H   H942      1.0  0.97558  0.26461  0.21907  1.0000
  H   H943      1.0  0.73110  0.47527  0.37710  1.0000
  C   C562      1.0  0.72016  0.40299  0.02873  1.0000
  H   H944      1.0  0.81234  0.02098  0.21219  1.0000
  H   H945      1.0  0.73444  0.44949  0.01261  1.0000
  H   H946      1.0  0.75403  0.40072  0.04557  1.0000
  H   H947      1.0  0.77037  0.47869  0.07123  1.0000
  C   C563      1.0  0.81318  0.33439  0.15487  1.0000
  C   C564      1.0  0.82498  0.34410  0.18084  1.0000
  C   C565      1.0  0.84204  0.33200  0.19752  1.0000
  C   C566      1.0  0.84747  0.31016  0.18836  1.0000
  C   C567      1.0  0.83511  0.30024  0.16324  1.0000
  C   C568      1.0  0.81811  0.31235  0.14648  1.0000
  H   H948      1.0  0.82155  0.36117  0.18722  1.0000
  H   H949      1.0  0.85147  0.33978  0.21705  1.0000
  H   H950      1.0  0.83875  0.28325  0.15669  1.0000
  H   H951      1.0  0.80885  0.30467  0.12668  1.0000
  C   C569      1.0  0.75330  0.47824  0.21532  1.0000
  H   H952      1.0  0.89110  0.28667  0.05652  1.0000
  H   H953      1.0  0.71860  0.47126  0.21206  1.0000
  H   H954      1.0  0.73551  0.19190  0.41734  1.0000
  H   H955      1.0  0.67712  0.12287  0.42299  1.0000
  H   H956      1.0  0.87386  0.33802  0.01220  1.0000
  C   C570      1.0  0.82793  0.14568  0.27725  1.0000
  C   C571      1.0  0.81378  0.15070  0.25017  1.0000
  C   C572      1.0  0.82107  0.16402  0.22308  1.0000
  C   C573      1.0  0.84234  0.17305  0.22311  1.0000
  C   C574      1.0  0.85633  0.16840  0.25052  1.0000
  C   C575      1.0  0.84923  0.15459  0.27721  1.0000
  H   H957      1.0  0.79730  0.14418  0.24996  1.0000
  H   H958      1.0  0.81012  0.16749  0.20201  1.0000
  H   H959      1.0  0.87277  0.17507  0.25084  1.0000
  H   H960      1.0  0.86034  0.15081  0.29797  1.0000
  C   C576      1.0  0.74320  0.40191  0.02390  1.0000
  C   C577      1.0  0.75511  0.09200  0.46763  1.0000
  C   C578      1.0  0.76997  0.10917  0.47026  1.0000
  H   H961      1.0  0.78981  0.48858  0.12266  1.0000
  H   H962      1.0  0.77747  0.11592  0.44762  1.0000
  C   C579      1.0  0.69009  0.17106  0.32609  1.0000
  H   H963      1.0  0.71197  0.49399  0.06746  1.0000
  C   C580      1.0  0.68639  0.24004  0.26970  1.0000
  H   H964      1.0  0.81355  0.05447  0.28733  1.0000
  H   H965      1.0  0.69552  0.20380  0.34433  1.0000
  H   H966      1.0  0.76911  0.45798  0.10332  1.0000
  H   H967      1.0  0.83812  0.06581  0.26817  1.0000
  C   C581      1.0  0.74674  0.03035  0.24931  1.0000
  H   H968      1.0  0.86111  0.10700  0.20865  1.0000
  H   H969      1.0  0.69627  0.46142  0.15191  1.0000
  C   C582      1.0  0.72797  0.49629  0.08080  1.0000
  H   H970      1.0  0.86862  0.25942  0.07503  1.0000
  H   H971      1.0  0.82809  0.28926  0.05693  1.0000
  H   H972      1.0  0.96387  0.24244  0.34574  1.0000
  H   H973      1.0  0.70778  0.49248  0.38579  1.0000
  H   H974      1.0  0.73087  0.47779  0.14650  1.0000
  H   H975      1.0  0.71420  0.45601  0.06235  1.0000
  C   C583      1.0  0.96360  0.22204  0.10110  1.0000
  H   H976      1.0  0.87684  0.28645  0.11781  1.0000
  C   C584      1.0  0.80336  0.03718  0.21420  1.0000
  H   H977      1.0  0.69030  0.26997  0.29832  1.0000
  C   C585      1.0  0.78028  0.10663  0.19395  1.0000
  H   H978      1.0  0.80774  0.33664  0.25674  1.0000
  H   H979      1.0  0.76292  0.10659  0.18470  1.0000
  H   H980      1.0  0.71457  0.20677  0.22211  1.0000
  C   C586      1.0  0.85279  0.26345  0.06209  1.0000
  C   C587      1.0  0.68171  0.23848  0.20727  1.0000
  C   C588      1.0  0.69682  0.14642  0.47163  1.0000
  H   H981      1.0  0.81530  0.32417  0.05609  1.0000
  H   H982      1.0  0.80443  0.09932  0.25817  1.0000
  H   H983      1.0  0.79281  0.07820  0.16720  1.0000
  H   H984      1.0  0.84862  0.09960  0.24770  1.0000
  H   H985      1.0  0.78971  0.11741  0.17651  1.0000
  H   H986      1.0  0.82378  0.35141  0.06441  1.0000
  H   H987      1.0  0.98240  0.24629  0.31002  1.0000
  H   H988      1.0  0.83531  0.05156  0.21907  1.0000
  H   H989      1.0  0.69991  0.24123  0.20722  1.0000
  C   C589      1.0  0.69467  0.17242  0.42327  1.0000
  H   H990      1.0  0.71723  0.14152  0.38976  1.0000
  C   C590      1.0  0.97756  0.23486  0.33058  1.0000
  C   C591      1.0  0.99301  0.25843  0.39292  1.0000
  H   H991      1.0  0.69832  0.44743  0.11254  1.0000
  H   H992      1.0  0.69465  0.18712  0.43998  1.0000
  C   C592      1.0  0.88592  0.30029  0.10648  1.0000
  C   C593      1.0  0.69228  0.11970  0.40786  1.0000
  H   H993      1.0  0.69560  0.49050  0.32462  1.0000
  H   H994      1.0  0.73337  0.03180  0.19887  1.0000
  H   H995      1.0  0.99565  0.18192  0.18806  1.0000
  H   H996      1.0  0.73563  0.45061  0.13365  1.0000
  H   H997      1.0  0.98134  0.26808  0.37640  1.0000
  H   H998      1.0  0.82382  0.05478  0.17874  1.0000
  H   H999      1.0  0.76050  0.27759  0.28491  1.0000
  C   C594      1.0  0.74362  0.99832  0.21187  1.0000
  H   H1000     1.0  0.99060  0.21437  0.36998  1.0000
  H   H1001     1.0  0.67961  0.14130  0.46777  1.0000
  H   H1002     1.0  0.84773  0.32633  0.09577  1.0000
  C   C595      1.0  0.73036  0.16227  0.44885  1.0000
  H   H1003     1.0  0.73969  0.47765  0.02092  1.0000
  H   H1004     1.0  0.69765  0.10225  0.41257  1.0000
  H   H1005     1.0  0.99615  0.20179  0.26082  1.0000
  H   H1006     1.0  0.86328  0.34023  0.06511  1.0000
  H   H1007     1.0  0.82305  0.08041  0.29959  1.0000
  C   C596      1.0  0.82113  0.06968  0.27728  1.0000
  H   H1008     1.0  0.98073  0.18507  0.12973  1.0000
  H   H1009     1.0  0.77196  0.32842  0.28957  1.0000
  C   C597      1.0  0.70522  0.19848  0.24257  1.0000
  H   H1010     1.0  0.96884  0.23982  0.16368  1.0000
  H   H1011     1.0  0.98540  0.27629  0.14480  1.0000
  C   C598      1.0  0.77153  0.49130  0.12086  1.0000
  C   C599      1.0  0.76236  0.47463  0.09582  1.0000
  H   H1012     1.0  0.85430  0.25954  0.03484  1.0000
  C   C600      1.0  0.70735  0.47840  0.33654  1.0000
  H   H1013     1.0  0.77988  0.11389  0.21945  1.0000
  H   H1014     1.0  0.74330  0.16644  0.39655  1.0000
  N   N39       1.0  0.85981  0.30519  0.05529  1.0000
  H   H1015     1.0  0.79631  0.03826  0.24010  1.0000
  C   C601      1.0  0.98101  0.26296  0.12720  1.0000
  C   C602      1.0  0.85031  0.09462  0.22083  1.0000
  H   H1016     1.0  0.76006  0.48511  0.34075  1.0000
  C   C603      1.0  0.82767  0.09543  0.20305  1.0000
  C   C604      1.0  0.70228  0.46302  0.12539  1.0000
  H   H1017     1.0  0.73167  0.28381  0.28926  1.0000
  H   H1018     1.0  0.72883  0.17349  0.47098  1.0000
  H   H1019     1.0  0.70248  0.17761  0.39900  1.0000
  H   H1020     1.0  0.77649  0.07224  0.20356  1.0000
  H   H1021     1.0  0.71856  0.47108  0.31702  1.0000
  C   C605      1.0  0.81953  0.05587  0.20616  1.0000
  H   H1022     1.0  0.84038  0.25215  0.07298  1.0000
  C   C606      1.0  0.79005  0.08284  0.19416  1.0000
  H   H1023     1.0  0.67768  0.34285  0.18616  1.0000
  H   H1024     1.0  0.82122  0.11257  0.20720  1.0000
  C   C607      1.0  0.98181  0.20013  0.14532  1.0000
  N   N40       1.0  0.70796  0.15364  0.43924  1.0000
  H   H1025     1.0  0.76094  0.02295  0.29799  1.0000
  H   H1026     1.0  0.90375  0.29722  0.11237  1.0000
  H   H1027     1.0  0.83098  0.33942  0.02463  1.0000
  H   H1028     1.0  0.67318  0.19634  0.22020  1.0000
  H   H1029     1.0  0.83080  0.09401  0.17532  1.0000
  C   C608      1.0  0.80541  0.08154  0.25159  1.0000
  H   H1030     1.0  0.86756  0.28830  0.00854  1.0000
  H   H1031     1.0  0.75681  0.34595  0.26236  1.0000
  H   H1032     1.0  0.70469  0.23826  0.26635  1.0000
  H   H1033     1.0  0.76037  0.17705  0.42895  1.0000
  H   H1034     1.0  0.67924  0.13998  0.30749  1.0000
  H   H1035     1.0  0.78611  0.49075  0.22179  1.0000
  H   H1036     1.0  0.88071  0.31586  0.11911  1.0000
  H   H1037     1.0  0.97064  0.22030  0.31797  1.0000
  H   H1038     1.0  0.75053  0.30271  0.30576  1.0000
  C   C609      1.0  0.75608  0.01628  0.27397  1.0000
  C   C610      1.0  0.88323  0.30172  0.06773  1.0000
  H   H1039     1.0  0.71054  0.11238  0.47468  1.0000
  H   H1040     1.0  0.97450  0.19623  0.06474  1.0000
  C   C611      1.0  0.74059  0.02115  0.21822  1.0000
  H   H1041     1.0  0.68245  0.23167  0.29408  1.0000
  N   N41       1.0  0.76753  0.31527  0.23887  1.0000
  C   C612      1.0  0.76244  0.32566  0.20481  1.0000
  C   C613      1.0  0.77125  0.33398  0.26292  1.0000
  C   C614      1.0  0.74719  0.30308  0.24980  1.0000
  C   C615      1.0  0.78750  0.29985  0.23504  1.0000
  C   C616      1.0  0.75746  0.30975  0.17571  1.0000
  C   C617      1.0  0.79243  0.34718  0.25657  1.0000
  H   H1042     1.0  0.79402  0.35942  0.27707  1.0000
  C   C618      1.0  0.80002  0.29268  0.26762  1.0000
  H   H1043     1.0  0.74801  0.33749  0.20666  1.0000
  H   H1044     1.0  0.77645  0.33558  0.19579  1.0000
  H   H1045     1.0  0.94836  0.22506  0.11666  1.0000
  H   H1046     1.0  0.92596  0.26389  0.00788  1.0000
  H   H1047     1.0  0.73235  0.31455  0.25002  1.0000
  H   H1048     1.0  0.74348  0.28992  0.23153  1.0000
  H   H1049     1.0  0.78279  0.28448  0.22212  1.0000
  H   H1050     1.0  0.80003  0.30735  0.21791  1.0000
  H   H1051     1.0  0.75633  0.31938  0.15173  1.0000
  H   H1052     1.0  0.77088  0.29713  0.17183  1.0000
  H   H1053     1.0  0.74120  0.30192  0.17908  1.0000
  H   H1054     1.0  0.70723  0.18039  0.23878  1.0000
  H   H1055     1.0  0.96449  0.23636  0.08338  1.0000
  H   H1056     1.0  0.79169  0.35673  0.23263  1.0000
  C   C619      1.0  0.74288  0.17507  0.42106  1.0000
  H   H1057     1.0  0.78954  0.03703  0.19580  1.0000
  N   N42       1.0  0.67439  0.22934  0.24110  1.0000
  H   H1058     1.0  0.80057  0.27440  0.26987  1.0000
  H   H1059     1.0  0.79295  0.29920  0.29144  1.0000
  H   H1060     1.0  0.81762  0.29768  0.26591  1.0000
  S   S184      1.0  0.70922  0.35877  0.23623  1.0000
  C   C620      1.0  0.71183  0.13501  0.41468  1.0000
  H   H1061     1.0  0.69729  0.46476  0.34671  1.0000
  H   H1062     1.0  0.85912  0.07843  0.21861  1.0000
  H   H1063     1.0  0.84208  0.28902  0.09593  1.0000
  H   H1064     1.0  0.78857  0.07526  0.25710  1.0000
  H   H1065     1.0  0.96888  0.23313  0.40717  1.0000
  C   C621      1.0  0.84486  0.28746  0.06833  1.0000
  C   C622      1.0  0.68334  0.19252  0.33540  1.0000
  N   N43       1.0  0.81096  0.07881  0.21453  1.0000
  C   C623      1.0  0.99954  0.21883  0.25501  1.0000
  H   H1066     1.0  0.76048  0.45609  0.03005  1.0000
  C   C624      1.0  0.68024  0.20492  0.24225  1.0000
  H   H1067     1.0  0.68968  0.33640  0.29272  1.0000
  N   N44       1.0  0.73745  0.47420  0.09245  1.0000
  C   C625      1.0  0.85087  0.32712  0.06801  1.0000
  H   H1068     1.0  0.69288  0.47692  0.11342  1.0000
  H   H1069     1.0  0.71274  0.20177  0.26752  1.0000
  C   C626      1.0  0.95940  0.20192  0.07867  1.0000
  C   C627      1.0  0.74799  0.29134  0.28450  1.0000
  C   C628      1.0  0.72755  0.46650  0.12551  1.0000
  H   H1070     1.0  0.94662  0.20663  0.05955  1.0000
  C   C629      1.0  0.68011  0.33242  0.27067  1.0000
  H   H1071     1.0  0.73809  0.44036  0.07508  1.0000
  C   C630      1.0  0.73241  0.45708  0.06626  1.0000
  H   H1072     1.0  0.72608  0.12419  0.42286  1.0000
  H   H1073     1.0  0.74186  0.14857  0.45703  1.0000
  C   C631      1.0  0.74250  0.46063  0.03066  1.0000
  H   H1074     1.0  0.99799  0.24108  0.16216  1.0000
  H   H1075     1.0  0.96357  0.26638  0.11926  1.0000
  C   C632      1.0  0.68184  0.26486  0.27491  1.0000
  H   H1076     1.0  0.84318  0.30456  0.00647  1.0000
  C   C633      1.0  0.98317  0.24051  0.14577  1.0000
  N   N45       1.0  0.98384  0.22049  0.12340  1.0000
  C   C634      1.0  0.91362  0.25142  0.00547  1.0000
  H   H1077     1.0  0.89384  0.31538  0.05894  1.0000
  H   H1078     1.0  0.67267  0.19699  0.26480  1.0000
  H   H1079     1.0  0.68749  0.12098  0.38079  1.0000
  C   C635      1.0  0.99738  0.22704  0.35270  1.0000
  C   C636      1.0  0.97918  0.24572  0.41902  1.0000
  H   H1080     1.0  0.95248  0.18814  0.09367  1.0000
  H   H1081     1.0  0.96609  0.20110  0.16041  1.0000
  H   H1082     1.0  0.96760  0.25751  0.43202  1.0000
  H   H1083     1.0  0.69513  0.16052  0.48943  1.0000
  C   C637      1.0  0.67338  0.33613  0.21072  1.0000
  H   H1084     1.0  0.67900  0.22619  0.18707  1.0000
  C   C638      1.0  0.70865  0.12722  0.49068  1.0000
  H   H1085     1.0  0.99203  0.26389  0.10471  1.0000
  H   H1086     1.0  0.68208  0.27016  0.18073  1.0000
  H   H1087     1.0  0.76491  0.48923  0.14680  1.0000
  H   H1088     1.0  0.68858  0.40543  0.00347  1.0000
  H   H1089     1.0  0.68888  0.27483  0.25400  1.0000
  C   C639      1.0  0.67027  0.16829  0.41450  1.0000
  C   C640      1.0  0.76850  0.49426  0.22482  1.0000
  H   H1090     1.0  0.74376  0.49617  0.30693  1.0000
  C   C641      1.0  0.74565  0.08337  0.49743  1.0000
  C   C642      1.0  0.72025  0.48858  0.36585  1.0000
  H   H1091     1.0  0.98985  0.23802  0.43881  1.0000
  C   C643      1.0  0.67422  0.15655  0.31479  1.0000
  C   C644      1.0  0.66993  0.26006  0.19479  1.0000
  H   H1092     1.0  0.66888  0.15617  0.39392  1.0000
  C   C645      1.0  0.00092  0.19495  0.17001  1.0000
  Fe  Fe93      1.0  0.76221  0.11101  0.62548  1.0000
  S   S185      1.0  0.73315  0.09013  0.63760  1.0000
  S   S186      1.0  0.77408  0.11937  0.57187  1.0000
  Fe  Fe94      1.0  0.77114  0.12043  0.70037  1.0000
  S   S187      1.0  0.74259  0.09957  0.71739  1.0000
  S   S188      1.0  0.78817  0.13677  0.74483  1.0000
  Fe  Fe95      1.0  0.75436  0.07478  0.67905  1.0000
  S   S189      1.0  0.75341  0.03685  0.68200  1.0000
  Fe  Fe96      1.0  0.72360  0.11633  0.67529  1.0000
  S   S190      1.0  0.68757  0.12622  0.68598  1.0000
  S   S191      1.0  0.78445  0.09429  0.66460  1.0000
  S   S192      1.0  0.75118  0.13859  0.66046  1.0000
  Fe  Fe97      1.0  0.70615  0.39051  0.81170  1.0000
  S   S193      1.0  0.73154  0.39278  0.77028  1.0000
  C   C646      1.0  0.77588  0.05179  0.59440  1.0000
  Fe  Fe98      1.0  0.73914  0.40359  0.86693  1.0000
  S   S194      1.0  0.76672  0.40682  0.82818  1.0000
  S   S195      1.0  0.75124  0.40725  0.92162  1.0000
  Fe  Fe99      1.0  0.74134  0.42452  0.79501  1.0000
  S   S196      1.0  0.75244  0.45347  0.76105  1.0000
  Fe  Fe100     1.0  0.75477  0.37527  0.80668  1.0000
  S   S197      1.0  0.77349  0.34381  0.79076  1.0000
  S   S198      1.0  0.71446  0.42332  0.83507  1.0000
  S   S199      1.0  0.72862  0.37102  0.84681  1.0000
  Fe  Fe101     1.0  0.92300  0.24420  0.81970  1.0000
  S   S200      1.0  0.90350  0.21424  0.83424  1.0000
  S   S201      1.0  0.96068  0.24015  0.80947  1.0000
  Fe  Fe102     1.0  0.88169  0.27481  0.82934  1.0000
  S   S202      1.0  0.85946  0.24712  0.84342  1.0000
  S   S203      1.0  0.87145  0.31119  0.83012  1.0000
  Fe  Fe103     1.0  0.88821  0.23515  0.87598  1.0000
  S   S204      1.0  0.88012  0.22184  0.92904  1.0000
  Fe  Fe104     1.0  0.87636  0.22845  0.80090  1.0000
  S   S205      1.0  0.86124  0.21088  0.75574  1.0000
  S   S206      1.0  0.90955  0.26392  0.86399  1.0000
  S   S207      1.0  0.89673  0.25742  0.78430  1.0000
  H   H1093     1.0  0.77459  0.36169  0.94868  1.0000
  C   C647      1.0  0.97360  0.25605  0.74566  1.0000
  C   C648      1.0  0.98002  0.24583  0.77607  1.0000
  H   H1094     1.0  0.68015  0.01184  0.70101  1.0000
  H   H1095     1.0  0.67197  0.40820  0.70173  1.0000
  H   H1096     1.0  0.95641  0.26072  0.74185  1.0000
  H   H1097     1.0  0.81286  0.34987  0.93030  1.0000
  C   C649      1.0  0.80092  0.33536  0.80155  1.0000
  C   C650      1.0  0.80733  0.31304  0.79800  1.0000
  C   C651      1.0  0.82878  0.30539  0.80700  1.0000
  C   C652      1.0  0.84415  0.32009  0.81928  1.0000
  C   C653      1.0  0.83781  0.34246  0.82270  1.0000
  C   C654      1.0  0.81627  0.35008  0.81390  1.0000
  H   H1098     1.0  0.79557  0.30157  0.78832  1.0000
  H   H1099     1.0  0.83347  0.28816  0.80408  1.0000
  H   H1100     1.0  0.84961  0.35398  0.83207  1.0000
  H   H1101     1.0  0.81166  0.36737  0.81609  1.0000
  C   C655      1.0  0.74364  0.48088  0.74879  1.0000
  H   H1102     1.0  0.94635  0.33616  0.72242  1.0000
  H   H1103     1.0  0.90577  0.14400  0.72616  1.0000
  H   H1104     1.0  0.74305  0.01650  0.88469  1.0000
  C   C656      1.0  0.89019  0.22971  0.96934  1.0000
  C   C657      1.0  0.90592  0.24602  0.97301  1.0000
  C   C658      1.0  0.70163  0.43977  0.72534  1.0000
  H   H1105     1.0  0.91236  0.25425  0.95079  1.0000
  H   H1106     1.0  0.78734  0.13035  0.50406  1.0000
  C   C659      1.0  0.73857  0.40476  0.96231  1.0000
  C   C660      1.0  0.71553  0.40523  0.96707  1.0000
  C   C661      1.0  0.69301  0.01746  0.71885  1.0000
  H   H1107     1.0  0.70473  0.40666  0.94537  1.0000
  H   H1108     1.0  0.77390  0.30622  0.94251  1.0000
  H   H1109     1.0  0.89850  0.15129  0.68397  1.0000
  C   C662      1.0  0.94640  0.29763  0.80632  1.0000
  H   H1110     1.0  0.93161  0.15513  0.76155  1.0000
  C   C663      1.0  0.80872  0.15720  0.74704  1.0000
  C   C664      1.0  0.81751  0.16733  0.71818  1.0000
  C   C665      1.0  0.83350  0.18372  0.72141  1.0000
  C   C666      1.0  0.84084  0.19029  0.75343  1.0000
  C   C667      1.0  0.83198  0.18022  0.78227  1.0000
  C   C668      1.0  0.81606  0.16377  0.77904  1.0000
  H   H1111     1.0  0.81205  0.16250  0.69340  1.0000
  H   H1112     1.0  0.84023  0.19139  0.69891  1.0000
  H   H1113     1.0  0.83746  0.18502  0.80707  1.0000
  H   H1114     1.0  0.80939  0.15607  0.80156  1.0000
  H   H1115     1.0  0.71221  0.00117  0.76030  1.0000
  H   H1116     1.0  0.69853  0.12255  0.51307  1.0000
  H   H1117     1.0  0.70763  0.06922  0.69331  1.0000
  N   N46       1.0  0.78237  0.33541  0.91312  1.0000
  H   H1118     1.0  0.70849  0.45652  0.72484  1.0000
  C   C669      1.0  0.79630  0.01972  0.61629  1.0000
  H   H1119     1.0  0.81466  0.33872  0.88888  1.0000
  C   C670      1.0  0.75606  0.01700  0.71562  1.0000
  C   C671      1.0  0.69148  0.16941  0.66430  1.0000
  H   H1120     1.0  0.83391  0.08212  0.58665  1.0000
  C   C672      1.0  0.75932  0.02299  0.74929  1.0000
  H   H1121     1.0  0.71743  0.00347  0.89541  1.0000
  H   H1122     1.0  0.73239  0.42667  0.70361  1.0000
  H   H1123     1.0  0.76108  0.04016  0.75551  1.0000
  C   C673      1.0  0.76604  0.10873  0.53212  1.0000
  C   C674      1.0  0.75078  0.09192  0.52943  1.0000
  N   N47       1.0  0.79697  0.03805  0.59013  1.0000
  H   H1124     1.0  0.74297  0.08547  0.55196  1.0000
  H   H1125     1.0  0.69428  0.20325  0.64822  1.0000
  H   H1126     1.0  0.78871  0.03410  0.50354  1.0000
  H   H1127     1.0  0.96259  0.28948  0.81284  1.0000
  H   H1128     1.0  0.68755  0.36756  0.73597  1.0000
  H   H1129     1.0  0.71002  0.40827  0.70006  1.0000
  N   N48       1.0  0.74143  0.19684  0.74210  1.0000
  C   C675      1.0  0.72202  0.18195  0.74767  1.0000
  C   C676      1.0  0.73220  0.22024  0.74194  1.0000
  C   C677      1.0  0.75687  0.19350  0.77172  1.0000
  C   C678      1.0  0.75289  0.19051  0.70934  1.0000
  C   C679      1.0  0.72774  0.15713  0.75224  1.0000
  C   C680      1.0  0.71469  0.22574  0.71458  1.0000
  C   C681      1.0  0.77729  0.20815  0.77288  1.0000
  C   C682      1.0  0.76728  0.20809  0.69186  1.0000
  H   H1130     1.0  0.71206  0.18721  0.77023  1.0000
  H   H1131     1.0  0.71038  0.18306  0.72597  1.0000
  H   H1132     1.0  0.74530  0.23250  0.73888  1.0000
  H   H1133     1.0  0.72439  0.22420  0.76690  1.0000
  H   H1134     1.0  0.74760  0.19591  0.79597  1.0000
  H   H1135     1.0  0.76379  0.17630  0.77253  1.0000
  H   H1136     1.0  0.76369  0.17548  0.71314  1.0000
  H   H1137     1.0  0.74035  0.18587  0.69028  1.0000
  H   H1138     1.0  0.73873  0.15069  0.73187  1.0000
  H   H1139     1.0  0.73538  0.15347  0.77719  1.0000
  H   H1140     1.0  0.71218  0.14776  0.75125  1.0000
  H   H1141     1.0  0.71804  0.07759  0.77450  1.0000
  H   H1142     1.0  0.69847  0.21842  0.72082  1.0000
  H   H1143     1.0  0.75399  0.03453  0.55928  1.0000
  H   H1144     1.0  0.78642  0.20447  0.79669  1.0000
  H   H1145     1.0  0.77294  0.22600  0.77323  1.0000
  H   H1146     1.0  0.78915  0.20421  0.75211  1.0000
  H   H1147     1.0  0.78265  0.19989  0.68175  1.0000
  H   H1148     1.0  0.77276  0.22154  0.70810  1.0000
  H   H1149     1.0  0.75857  0.21529  0.66949  1.0000
  C   C683      1.0  0.80019  0.37132  0.89115  1.0000
  H   H1150     1.0  0.72020  0.22038  0.68911  1.0000
  C   C684      1.0  0.93727  0.34566  0.74245  1.0000
  H   H1151     1.0  0.79537  0.32157  0.95969  1.0000
  H   H1152     1.0  0.93633  0.35193  0.81404  1.0000
  H   H1153     1.0  0.74002  0.05220  0.58872  1.0000
  C   C685      1.0  0.95245  0.36458  0.75222  1.0000
  H   H1154     1.0  0.94389  0.37662  0.76916  1.0000
  H   H1155     1.0  0.92254  0.35301  0.72924  1.0000
  C   C686      1.0  0.90304  0.36009  0.79560  1.0000
  C   C687      1.0  0.81741  0.00477  0.61914  1.0000
  C   C688      1.0  0.80563  0.29919  0.91995  1.0000
  H   H1156     1.0  0.75079  0.02640  0.60345  1.0000
  H   H1157     1.0  0.90400  0.37370  0.81407  1.0000
  C   C689      1.0  0.67169  0.36000  0.73987  1.0000
  H   H1158     1.0  0.81538  0.01920  0.55251  1.0000
  H   H1159     1.0  0.80849  0.28537  0.93818  1.0000
  C   C690      1.0  0.91179  0.31669  0.75939  1.0000
  H   H1160     1.0  0.83248  0.04312  0.58828  1.0000
  H   H1161     1.0  0.95718  0.37377  0.72893  1.0000
  H   H1162     1.0  0.81906  0.05345  0.62537  1.0000
  H   H1163     1.0  0.92726  0.14782  0.69424  1.0000
  H   H1164     1.0  0.96342  0.32677  0.79251  1.0000
  H   H1165     1.0  0.77200  0.48516  0.71609  1.0000
  H   H1166     1.0  0.93613  0.28474  0.79527  1.0000
  H   H1167     1.0  0.77014  0.40271  0.98763  1.0000
  C   C691      1.0  0.81699  0.05163  0.59750  1.0000
  N   N49       1.0  0.68531  0.03847  0.73620  1.0000
  H   H1168     1.0  0.79953  0.29185  0.89629  1.0000
  H   H1169     1.0  0.73588  0.35319  0.96159  1.0000
  H   H1170     1.0  0.69933  0.04698  0.66624  1.0000
  H   H1171     1.0  0.70645  0.43291  0.75050  1.0000
  H   H1172     1.0  0.75275  0.30164  0.89985  1.0000
  H   H1173     1.0  0.67413  0.02579  0.78475  1.0000
  H   H1174     1.0  0.89456  0.18294  0.72440  1.0000
  H   H1175     1.0  0.82200  0.30657  0.91522  1.0000
  H   H1176     1.0  0.70810  0.02020  0.70315  1.0000
  H   H1177     1.0  0.88684  0.35203  0.79890  1.0000
  H   H1178     1.0  0.77434  0.05765  0.62090  1.0000
  H   H1179     1.0  0.78650  0.32010  0.86373  1.0000
  N   N50       1.0  0.93052  0.33058  0.77104  1.0000
  H   H1180     1.0  0.79336  0.38321  0.90994  1.0000
  C   C692      1.0  0.68377  0.19138  0.66044  1.0000
  H   H1181     1.0  0.73738  0.32471  0.88091  1.0000
  H   H1182     1.0  0.90323  0.36809  0.77040  1.0000
  H   H1183     1.0  0.91250  0.17498  0.77898  1.0000
  C   C693      1.0  0.79890  0.02771  0.55565  1.0000
  C   C694      1.0  0.76592  0.35062  0.93108  1.0000
  H   H1184     1.0  0.67009  0.34749  0.68897  1.0000
  C   C695      1.0  0.67810  0.15390  0.68011  1.0000
  H   H1185     1.0  0.81349  0.07650  0.55583  1.0000
  C   C696      1.0  0.78856  0.31584  0.93525  1.0000
  C   C697      1.0  0.80334  0.34793  0.90650  1.0000
  C   C698      1.0  0.92915  0.17302  0.76660  1.0000
  C   C699      1.0  0.70162  0.06996  0.77180  1.0000
  H   H1186     1.0  0.78944  0.37169  0.86862  1.0000
  H   H1187     1.0  0.71381  0.48237  0.77889  1.0000
  C   C700      1.0  0.98953  0.26018  0.72006  1.0000
  H   H1188     1.0  0.71165  0.43236  0.67257  1.0000
  C   C701      1.0  0.75280  0.31426  0.87957  1.0000
  C   C702      1.0  0.75230  0.40301  0.99094  1.0000
  H   H1189     1.0  0.81660  0.37746  0.88304  1.0000
  C   C703      1.0  0.76027  0.00669  0.77510  1.0000
  H   H1190     1.0  0.68621  0.45592  0.79637  1.0000
  N   N51       1.0  0.67678  0.44087  0.72188  1.0000
  H   H1191     1.0  0.68522  0.07324  0.66463  1.0000
  H   H1192     1.0  0.76274  0.01158  0.80101  1.0000
  N   N52       1.0  0.92974  0.18631  0.73416  1.0000
  C   C704      1.0  0.91093  0.17880  0.71236  1.0000
  C   C705      1.0  0.92503  0.21027  0.74202  1.0000
  H   H1193     1.0  0.96360  0.17292  0.78479  1.0000
  C   C706      1.0  0.95142  0.18250  0.71535  1.0000
  C   C707      1.0  0.92241  0.22580  0.71109  1.0000
  H   H1194     1.0  0.78245  0.00849  0.61145  1.0000
  C   C708      1.0  0.97112  0.19683  0.72556  1.0000
  H   H1195     1.0  0.93104  0.29011  0.73372  1.0000
  H   H1196     1.0  0.93792  0.21722  0.75812  1.0000
  H   H1197     1.0  0.90950  0.21207  0.75729  1.0000
  H   H1198     1.0  0.91654  0.33198  0.82157  1.0000
  H   H1199     1.0  0.93583  0.22321  0.69213  1.0000
  H   H1200     1.0  0.95706  0.16491  0.71761  1.0000
  H   H1201     1.0  0.90598  0.22397  0.69904  1.0000
  H   H1202     1.0  0.92296  0.24316  0.71959  1.0000
  H   H1203     1.0  0.94897  0.18575  0.68782  1.0000
  C   C709      1.0  0.68029  0.47243  0.67765  1.0000
  C   C710      1.0  0.81717  0.07533  0.58310  1.0000
  H   H1204     1.0  0.95883  0.30898  0.75836  1.0000
  H   H1205     1.0  0.92046  0.31167  0.70560  1.0000
  H   H1206     1.0  0.97090  0.20255  0.75197  1.0000
  H   H1207     1.0  0.97267  0.21120  0.70817  1.0000
  H   H1208     1.0  0.71974  0.04851  0.73741  1.0000
  H   H1209     1.0  0.75256  0.30479  0.85565  1.0000
  C   C711      1.0  0.92255  0.34338  0.80152  1.0000
  H   H1210     1.0  0.67462  0.47234  0.74720  1.0000
  H   H1211     1.0  0.69427  0.06797  0.79743  1.0000
  C   C712      1.0  0.67647  0.05406  0.70918  1.0000
  H   H1212     1.0  0.73802  0.32793  0.93911  1.0000
  H   H1213     1.0  0.71162  0.24388  0.71337  1.0000
  C   C713      1.0  0.94667  0.17805  0.79333  1.0000
  C   C714      1.0  0.91097  0.15400  0.70398  1.0000
  H   H1214     1.0  0.79305  0.02660  0.64199  1.0000
  H   H1215     1.0  0.93887  0.30343  0.83039  1.0000
  H   H1216     1.0  0.90228  0.29192  0.72341  1.0000
  H   H1217     1.0  0.67684  0.40829  0.74536  1.0000
  H   H1218     1.0  0.91083  0.18758  0.68752  1.0000
  H   H1219     1.0  0.98434  0.26819  0.69674  1.0000
  C   C715      1.0  0.91703  0.30186  0.72876  1.0000
  C   C716      1.0  0.75417  0.04023  0.58583  1.0000
  H   H1220     1.0  0.77595  0.06711  0.57902  1.0000
  H   H1221     1.0  0.76886  0.34324  0.86385  1.0000
  C   C717      1.0  0.77350  0.32853  0.87940  1.0000
  H   H1222     1.0  0.75488  0.33220  0.97614  1.0000
  C   C718      1.0  0.71430  0.42591  0.69857  1.0000
  C   C719      1.0  0.70496  0.04752  0.75432  1.0000
  H   H1223     1.0  0.71073  0.03594  0.77458  1.0000
  H   H1224     1.0  0.90573  0.30604  0.78033  1.0000
  H   H1225     1.0  0.69171  0.08214  0.75685  1.0000
  H   H1226     1.0  0.76293  0.99935  0.92684  1.0000
  H   H1227     1.0  0.94620  0.19552  0.80105  1.0000
  C   C720      1.0  0.72386  0.49091  0.76056  1.0000
  C   C721      1.0  0.79636  0.04317  0.52456  1.0000
  H   H1228     1.0  0.98687  0.18706  0.72233  1.0000
  H   H1229     1.0  0.70778  0.16449  0.65504  1.0000
  C   C722      1.0  0.69336  0.06100  0.68198  1.0000
  H   H1230     1.0  0.69858  0.47099  0.67443  1.0000
  H   H1231     1.0  0.78516  0.05763  0.52859  1.0000
  H   H1232     1.0  0.75727  0.36170  0.91250  1.0000
  C   C723      1.0  0.88211  0.21914  0.99862  1.0000
  H   H1233     1.0  0.89708  0.32725  0.75233  1.0000
  H   H1234     1.0  0.96806  0.35838  0.76410  1.0000
  C   C724      1.0  0.74776  0.33999  0.95297  1.0000
  C   C725      1.0  0.95056  0.31651  0.78093  1.0000
  H   H1235     1.0  0.80544  0.08632  0.59718  1.0000
  H   H1236     1.0  0.86674  0.32563  0.97369  1.0000
  H   H1237     1.0  0.78698  0.01415  0.55287  1.0000
  H   H1238     1.0  0.89149  0.31614  0.99569  1.0000
  H   H1239     1.0  0.67367  0.42998  0.78895  1.0000
  H   H1240     1.0  0.73669  0.99937  0.94571  1.0000
  H   H1241     1.0  0.94318  0.16828  0.81657  1.0000
  H   H1242     1.0  0.67409  0.43837  0.66730  1.0000
  S   S208      1.0  0.67052  0.37969  0.80353  1.0000
  C   C726      1.0  0.87397  0.32204  0.99900  1.0000
  C   C727      1.0  0.75664  0.49262  0.72539  1.0000
  C   C728      1.0  0.73557  0.00058  0.89179  1.0000
  H   H1243     1.0  0.67610  0.48579  0.69572  1.0000
  H   H1244     1.0  0.83210  0.01404  0.62690  1.0000
  H   H1245     1.0  0.66952  0.06963  0.71988  1.0000
  H   H1246     1.0  0.81278  0.04891  0.51577  1.0000
  C   C729      1.0  0.77552  0.11733  0.50233  1.0000
  H   H1247     1.0  0.67350  0.47781  0.65277  1.0000
  C   C730      1.0  0.67137  0.44803  0.78595  1.0000
  C   C731      1.0  0.67004  0.45024  0.68788  1.0000
  H   H1248     1.0  0.86996  0.20649  0.99613  1.0000
  H   H1249     1.0  0.72506  0.13189  0.50039  1.0000
  C   C732      1.0  0.70642  0.40455  0.00010  1.0000
  Fe  Fe105     1.0  0.71822  0.89472  0.16397  1.0000
  S   S209      1.0  0.74451  0.87426  0.13777  1.0000
  S   S210      1.0  0.68150  0.88660  0.16240  1.0000
  Fe  Fe106     1.0  0.75157  0.92763  0.19154  1.0000
  S   S211      1.0  0.78054  0.90889  0.16749  1.0000
  S   S212      1.0  0.75648  0.95505  0.23085  1.0000
  Fe  Fe107     1.0  0.75880  0.90640  0.12128  1.0000
  S   S213      1.0  0.77635  0.90981  0.07000  1.0000
  Fe  Fe108     1.0  0.76442  0.87797  0.18531  1.0000
  S   S214      1.0  0.77980  0.84578  0.20555  1.0000
  S   S215      1.0  0.73089  0.92723  0.14406  1.0000
  S   S216      1.0  0.73699  0.89637  0.21264  1.0000
  Fe  Fe109     1.0  0.71931  0.62271  0.30710  1.0000
  S   S217      1.0  0.74460  0.61120  0.26824  1.0000
  S   S218      1.0  0.69323  0.65078  0.30206  1.0000
  Fe  Fe110     1.0  0.73843  0.59186  0.36317  1.0000
  S   S219      1.0  0.76476  0.57830  0.32776  1.0000
  S   S220      1.0  0.73912  0.57538  0.41569  1.0000
  Fe  Fe111     1.0  0.76913  0.61365  0.31111  1.0000
  S   S221      1.0  0.80451  0.62620  0.31289  1.0000
  Fe  Fe112     1.0  0.73830  0.57657  0.28806  1.0000
  S   S222      1.0  0.72812  0.54588  0.25774  1.0000
  S   S223      1.0  0.74434  0.62706  0.34877  1.0000
  S   S224      1.0  0.71146  0.58835  0.32460  1.0000
  Fe  Fe113     1.0  0.88766  0.76291  0.36257  1.0000
  S   S225      1.0  0.89626  0.73158  0.33418  1.0000
  S   S226      1.0  0.87711  0.76842  0.41795  1.0000
  Fe  Fe114     1.0  0.88137  0.78963  0.29647  1.0000
  S   S227      1.0  0.88971  0.76058  0.26367  1.0000
  S   S228      1.0  0.87251  0.82420  0.27685  1.0000
  Fe  Fe115     1.0  0.86816  0.74120  0.29938  1.0000
  S   S229      1.0  0.84077  0.72106  0.27619  1.0000
  Fe  Fe116     1.0  0.91755  0.75312  0.30014  1.0000
  S   S230      1.0  0.95090  0.73846  0.28028  1.0000
  S   S231      1.0  0.85812  0.77096  0.32949  1.0000
  S   S232      1.0  0.91067  0.78373  0.33110  1.0000
  C   C733      1.0  0.89025  0.76560  0.45800  1.0000
  C   C734      1.0  0.68439  0.73492  0.20426  1.0000
  C   C735      1.0  0.91132  0.75568  0.46203  1.0000
  C   C736      1.0  0.75138  0.50047  0.33148  1.0000
  H   H1250     1.0  0.92042  0.74972  0.44009  1.0000
  C   C737      1.0  0.97465  0.75024  0.26017  1.0000
  C   C738      1.0  0.97671  0.77301  0.25552  1.0000
  H   H1251     1.0  0.82963  0.87962  0.06282  1.0000
  H   H1252     1.0  0.70492  0.84639  0.18525  1.0000
  H   H1253     1.0  0.96353  0.78413  0.26407  1.0000
  H   H1254     1.0  0.75136  0.53370  0.38290  1.0000
  C   C739      1.0  0.73704  0.57449  0.48525  1.0000
  C   C740      1.0  0.73277  0.58712  0.45581  1.0000
  C   C741      1.0  0.71818  0.61673  0.49154  1.0000
  C   C742      1.0  0.72343  0.60837  0.45916  1.0000
  C   C743      1.0  0.92057  0.75322  0.49463  1.0000
  H   H1255     1.0  0.71992  0.61823  0.43677  1.0000
  C   C744      1.0  0.81250  0.65380  0.30578  1.0000
  C   C745      1.0  0.80170  0.66755  0.28210  1.0000
  C   C746      1.0  0.81025  0.68836  0.27405  1.0000
  C   C747      1.0  0.82927  0.69592  0.29021  1.0000
  C   C748      1.0  0.83950  0.68258  0.31495  1.0000
  C   C749      1.0  0.83139  0.66147  0.32220  1.0000
  H   H1256     1.0  0.78733  0.66175  0.26899  1.0000
  H   H1257     1.0  0.80232  0.69848  0.25472  1.0000
  H   H1258     1.0  0.85392  0.68830  0.32792  1.0000
  H   H1259     1.0  0.83986  0.65093  0.34050  1.0000
  C   C750      1.0  0.73852  0.51998  0.24162  1.0000
  C   C751      1.0  0.76122  0.51492  0.23784  1.0000
  H   H1260     1.0  0.70039  0.96008  0.31663  1.0000
  H   H1261     1.0  0.83846  0.87901  0.34842  1.0000
  H   H1262     1.0  0.77320  0.52705  0.24450  1.0000
  C   C752      1.0  0.87873  0.77329  0.48689  1.0000
  H   H1263     1.0  0.85061  0.85428  0.33242  1.0000
  C   C753      1.0  0.80518  0.84063  0.22702  1.0000
  C   C754      1.0  0.81114  0.81875  0.23575  1.0000
  C   C755      1.0  0.83157  0.81355  0.25136  1.0000
  C   C756      1.0  0.84637  0.83021  0.25818  1.0000
  C   C757      1.0  0.84039  0.85215  0.24969  1.0000
  C   C758      1.0  0.81983  0.85738  0.23433  1.0000
  H   H1264     1.0  0.79993  0.80567  0.23019  1.0000
  H   H1265     1.0  0.83597  0.79660  0.25775  1.0000
  H   H1266     1.0  0.85174  0.86514  0.25498  1.0000
  H   H1267     1.0  0.81538  0.87431  0.22798  1.0000
  C   C759      1.0  0.76468  0.90487  0.02966  1.0000
  H   H1268     1.0  0.83697  0.85077  0.45476  1.0000
  H   H1269     1.0  0.86535  0.68181  0.25141  1.0000
  H   H1270     1.0  0.73082  0.90388  0.04702  1.0000
  C   C760      1.0  0.67936  0.64961  0.23487  1.0000
  H   H1271     1.0  0.94365  0.68521  0.20285  1.0000
  C   C761      1.0  0.75290  0.98425  0.23659  1.0000
  H   H1272     1.0  0.66953  0.77738  0.00301  1.0000
  H   H1273     1.0  0.68219  0.76836  0.07321  1.0000
  H   H1274     1.0  0.76616  0.62647  0.48911  1.0000
  H   H1275     1.0  0.86771  0.87570  0.34841  1.0000
  C   C762      1.0  0.75907  0.99345  0.26764  1.0000
  H   H1276     1.0  0.69516  0.98806  0.30496  1.0000
  C   C763      1.0  0.67980  0.82190  0.19165  1.0000
  H   H1277     1.0  0.68982  0.89842  0.23389  1.0000
  H   H1278     1.0  0.81896  0.83621  0.34827  1.0000
  H   H1279     1.0  0.86087  0.82284  0.13616  1.0000
  H   H1280     1.0  0.90751  0.70102  0.18964  1.0000
  H   H1281     1.0  0.77919  0.52207  0.34484  1.0000
  H   H1282     1.0  0.69046  0.92801  0.29653  1.0000
  H   H1283     1.0  0.99087  0.71854  0.25221  1.0000
  H   H1284     1.0  0.83491  0.90226  0.14837  1.0000
  C   C764      1.0  0.68702  0.96195  0.18838  1.0000
  H   H1285     1.0  0.68753  0.54253  0.34169  1.0000
  H   H1286     1.0  0.88321  0.69351  0.49676  1.0000
  H   H1287     1.0  0.71839  0.70347  0.19467  1.0000
  H   H1288     1.0  0.91006  0.83396  0.35781  1.0000
  N   N53       1.0  0.82332  0.84939  0.11891  1.0000
  C   C765      1.0  0.82428  0.82778  0.13827  1.0000
  C   C766      1.0  0.79936  0.85424  0.11010  1.0000
  C   C767      1.0  0.83093  0.86713  0.14231  1.0000
  C   C768      1.0  0.83826  0.84745  0.08812  1.0000
  H   H1289     1.0  0.71063  0.63305  0.49374  1.0000
  C   C769      1.0  0.78758  0.83576  0.09137  1.0000
  C   C770      1.0  0.83178  0.89064  0.12749  1.0000
  C   C771      1.0  0.83199  0.86193  0.05698  1.0000
  H   H1290     1.0  0.81171  0.82782  0.15901  1.0000
  H   H1291     1.0  0.81991  0.81386  0.12168  1.0000
  H   H1292     1.0  0.79733  0.86945  0.09457  1.0000
  H   H1293     1.0  0.78953  0.85767  0.13349  1.0000
  H   H1294     1.0  0.82007  0.86788  0.16521  1.0000
  H   H1295     1.0  0.84800  0.86346  0.15161  1.0000
  H   H1296     1.0  0.85567  0.85116  0.09484  1.0000
  H   H1297     1.0  0.83914  0.83020  0.07869  1.0000
  H   H1298     1.0  0.73087  0.69945  0.28577  1.0000
  H   H1299     1.0  0.76623  0.98282  0.28705  1.0000
  C   C772      1.0  0.71499  0.72778  0.30796  1.0000
  C   C773      1.0  0.69018  0.97093  0.29974  1.0000
  H   H1300     1.0  0.78237  0.82274  0.10947  1.0000
  H   H1301     1.0  0.70479  0.54921  0.37690  1.0000
  C   C774      1.0  0.67753  0.77656  0.09729  1.0000
  H   H1302     1.0  0.84581  0.89213  0.10940  1.0000
  C   C775      1.0  0.69172  0.72935  0.24083  1.0000
  H   H1303     1.0  0.81603  0.89630  0.11559  1.0000
  C   C776      1.0  0.86518  0.69154  0.49276  1.0000
  H   H1304     1.0  0.66905  0.90099  0.26724  1.0000
  H   H1305     1.0  0.83987  0.81652  0.33290  1.0000
  N   N54       1.0  0.71403  0.71749  0.24473  1.0000
  C   C777      1.0  0.73272  0.51685  0.42129  1.0000
  C   C778      1.0  0.71561  0.70960  0.28097  1.0000
  C   C779      1.0  0.71476  0.69805  0.22107  1.0000
  C   C780      1.0  0.73174  0.73358  0.23555  1.0000
  H   H1306     1.0  0.69121  0.74528  0.25458  1.0000
  H   H1307     1.0  0.66933  0.65071  0.18247  1.0000
  C   C781      1.0  0.69487  0.96593  0.26211  1.0000
  C   C782      1.0  0.75612  0.72598  0.24115  1.0000
  C   C783      1.0  0.72331  0.50397  0.23207  1.0000
  H   H1308     1.0  0.72871  0.73938  0.30451  1.0000
  C   C784      1.0  0.74183  0.90292  0.02531  1.0000
  H   H1309     1.0  0.76266  0.53172  0.30926  1.0000
  C   C785      1.0  0.68745  0.84300  0.18322  1.0000
  H   H1310     1.0  0.73019  0.49990  0.43108  1.0000
  H   H1311     1.0  0.73063  0.73819  0.20832  1.0000
  H   H1312     1.0  0.72897  0.74966  0.24852  1.0000
  H   H1313     1.0  0.79810  0.82817  0.07128  1.0000
  H   H1314     1.0  0.69089  0.63579  0.23154  1.0000
  H   H1315     1.0  0.83404  0.82114  0.45979  1.0000
  H   H1316     1.0  0.74414  0.55800  0.48300  1.0000
  H   H1317     1.0  0.71205  0.94123  0.21205  1.0000
  H   H1318     1.0  0.69114  0.78701  0.10582  1.0000
  H   H1319     1.0  0.67572  0.76331  0.11662  1.0000
  C   C786      1.0  0.67248  0.85971  0.17278  1.0000
  H   H1320     1.0  0.68170  0.71993  0.18913  1.0000
  H   H1321     1.0  0.76297  0.71746  0.21846  1.0000
  H   H1322     1.0  0.75871  0.71533  0.26367  1.0000
  H   H1323     1.0  0.76625  0.74063  0.24594  1.0000
  H   H1324     1.0  0.76869  0.50850  0.11183  1.0000
  H   H1325     1.0  0.90675  0.83190  0.40257  1.0000
  H   H1326     1.0  0.76099  0.50642  0.39260  1.0000
  H   H1327     1.0  0.79419  0.63234  0.47444  1.0000
  H   H1328     1.0  0.85389  0.83517  0.48388  1.0000
  H   H1329     1.0  0.71713  0.71990  0.33326  1.0000
  H   H1330     1.0  0.71327  0.92557  0.26787  1.0000
  H   H1331     1.0  0.87969  0.71029  0.20168  1.0000
  H   H1332     1.0  0.70570  0.50764  0.23464  1.0000
  N   N55       1.0  0.90135  0.67887  0.25128  1.0000
  C   C787      1.0  0.87887  0.67128  0.24019  1.0000
  C   C788      1.0  0.90163  0.70340  0.24494  1.0000
  C   C789      1.0  0.90325  0.67445  0.28878  1.0000
  C   C790      1.0  0.91918  0.66626  0.23181  1.0000
  C   C791      1.0  0.87338  0.64714  0.24857  1.0000
  C   C792      1.0  0.89759  0.71088  0.20803  1.0000
  C   C793      1.0  0.92505  0.68080  0.30570  1.0000
  C   C794      1.0  0.94204  0.67717  0.22807  1.0000
  H   H1333     1.0  0.90238  0.72834  0.20503  1.0000
  H   H1334     1.0  0.87694  0.67316  0.21233  1.0000
  H   H1335     1.0  0.91733  0.71069  0.25289  1.0000
  H   H1336     1.0  0.88872  0.71191  0.26077  1.0000
  H   H1337     1.0  0.88941  0.68312  0.30253  1.0000
  H   H1338     1.0  0.90170  0.65662  0.29466  1.0000
  H   H1339     1.0  0.92207  0.64958  0.24324  1.0000
  H   H1340     1.0  0.91351  0.66336  0.20550  1.0000
  H   H1341     1.0  0.86941  0.64492  0.27584  1.0000
  H   H1342     1.0  0.85814  0.64279  0.23475  1.0000
  H   H1343     1.0  0.88684  0.63537  0.24082  1.0000
  H   H1344     1.0  0.71665  0.52602  0.41985  1.0000
  H   H1345     1.0  0.95535  0.66411  0.22883  1.0000
  H   H1346     1.0  0.67236  0.96988  0.30645  1.0000
  H   H1347     1.0  0.92884  0.69839  0.30205  1.0000
  H   H1348     1.0  0.93921  0.67012  0.29714  1.0000
  H   H1349     1.0  0.92344  0.67815  0.33344  1.0000
  H   H1350     1.0  0.69610  0.74583  0.19099  1.0000
  H   H1351     1.0  0.94612  0.68911  0.24784  1.0000
  N   N56       1.0  0.68538  0.94502  0.24851  1.0000
  H   H1352     1.0  0.73097  0.66668  0.20844  1.0000
  C   C795      1.0  0.69993  0.53570  0.35996  1.0000
  C   C796      1.0  0.77871  0.90360  0.00103  1.0000
  H   H1353     1.0  0.77868  0.61127  0.45569  1.0000
  H   H1354     1.0  0.79642  0.90509  0.00408  1.0000
  H   H1355     1.0  0.72575  0.66955  0.25242  1.0000
  C   C797      1.0  0.69359  0.94276  0.21255  1.0000
  H   H1356     1.0  0.68474  0.80103  0.04125  1.0000
  H   H1357     1.0  0.69151  0.80925  0.20031  1.0000
  C   C798      1.0  0.76961  0.51697  0.32257  1.0000
  H   H1358     1.0  0.74840  0.68377  0.23247  1.0000
  H   H1359     1.0  0.81487  0.80733  0.35140  1.0000
  H   H1360     1.0  0.71322  0.96578  0.25869  1.0000
  H   H1361     1.0  0.89613  0.85604  0.37982  1.0000
  H   H1362     1.0  0.69878  0.73690  0.30858  1.0000
  C   C799      1.0  0.72283  0.51372  0.10842  1.0000
  H   H1363     1.0  0.73925  0.50390  0.06185  1.0000
  H   H1364     1.0  0.77224  0.84273  0.07941  1.0000
  H   H1365     1.0  0.99729  0.79908  0.23669  1.0000
  H   H1366     1.0  0.84555  0.86055  0.03787  1.0000
  C   C800      1.0  0.84685  0.82111  0.15419  1.0000
  H   H1367     1.0  0.68847  0.98065  0.24782  1.0000
  H   H1368     1.0  0.74271  0.52535  0.44044  1.0000
  C   C801      1.0  0.99213  0.73615  0.24875  1.0000
  H   H1369     1.0  0.69819  0.69052  0.22007  1.0000
  N   N57       1.0  0.85716  0.83370  0.39509  1.0000
  C   C802      1.0  0.86408  0.83042  0.43153  1.0000
  C   C803      1.0  0.87654  0.82600  0.37349  1.0000
  C   C804      1.0  0.83777  0.81911  0.38882  1.0000
  C   C805      1.0  0.85078  0.85771  0.38936  1.0000
  C   C806      1.0  0.84594  0.83475  0.45862  1.0000
  C   C807      1.0  0.89848  0.83789  0.37907  1.0000
  C   C808      1.0  0.82762  0.82013  0.35318  1.0000
  C   C809      1.0  0.85216  0.86663  0.35252  1.0000
  H   H1370     1.0  0.87078  0.81334  0.43588  1.0000
  H   H1371     1.0  0.87788  0.84140  0.43790  1.0000
  H   H1372     1.0  0.87289  0.82728  0.34630  1.0000
  H   H1373     1.0  0.88007  0.80809  0.37776  1.0000
  H   H1374     1.0  0.84254  0.80154  0.39432  1.0000
  H   H1375     1.0  0.82366  0.82329  0.40604  1.0000
  H   H1376     1.0  0.83361  0.86124  0.39883  1.0000
  H   H1377     1.0  0.86176  0.86830  0.40440  1.0000
  C   C810      1.0  0.72019  0.52643  0.34013  1.0000
  H   H1378     1.0  0.84653  0.80354  0.16236  1.0000
  H   H1379     1.0  0.73060  0.54088  0.33465  1.0000
  H   H1380     1.0  0.81675  0.85628  0.04456  1.0000
  H   H1381     1.0  0.70187  0.69829  0.28691  1.0000
  H   H1382     1.0  0.69762  0.97634  0.19241  1.0000
  H   H1383     1.0  0.84987  0.83068  0.17744  1.0000
  H   H1384     1.0  0.85885  0.70465  0.47530  1.0000
  N   N58       1.0  0.73390  0.50823  0.35667  1.0000
  H   H1385     1.0  0.86332  0.67556  0.47976  1.0000
  H   H1386     1.0  0.86247  0.78110  0.48412  1.0000
  C   C811      1.0  0.73109  0.67870  0.22946  1.0000
  C   C812      1.0  0.68682  0.90286  0.26062  1.0000
  H   H1387     1.0  0.73266  0.51199  0.13181  1.0000
  H   H1388     1.0  0.68985  0.95664  0.16185  1.0000
  H   H1389     1.0  0.68626  0.82238  0.09098  1.0000
  C   C813      1.0  0.78225  0.61929  0.48017  1.0000
  H   H1390     1.0  0.72622  0.53035  0.09794  1.0000
  H   H1391     1.0  0.70486  0.51420  0.11498  1.0000
  H   H1392     1.0  0.67828  0.71951  0.25237  1.0000
  H   H1393     1.0  0.68819  0.92741  0.20066  1.0000
  C   C814      1.0  0.74565  0.51660  0.38747  1.0000
  C   C815      1.0  0.69475  0.92601  0.26935  1.0000
  H   H1394     1.0  0.78169  0.50895  0.30488  1.0000
  C   C816      1.0  0.67687  0.65928  0.26673  1.0000
  H   H1395     1.0  0.73789  0.95848  0.00137  1.0000
  H   H1396     1.0  0.73877  0.99164  0.18786  1.0000
  H   H1397     1.0  0.69630  0.89045  0.27602  1.0000
  C   C817      1.0  0.99597  0.78146  0.23996  1.0000
  H   H1398     1.0  0.76495  0.96509  0.01464  1.0000
  H   H1399     1.0  0.80561  0.59285  0.49209  1.0000
  H   H1400     1.0  0.67420  0.85089  0.04738  1.0000
  H   H1401     1.0  0.69095  0.52319  0.37462  1.0000
  H   H1402     1.0  0.67771  0.86154  0.08881  1.0000
  H   H1403     1.0  0.71443  0.52161  0.31466  1.0000
  C   C818      1.0  0.66836  0.82727  0.08937  1.0000
  H   H1404     1.0  0.93679  0.74531  0.49747  1.0000
  H   H1405     1.0  0.66932  0.96713  0.19084  1.0000
  Fe  Fe117     1.0  0.74802  0.89644  0.86896  1.0000
  S   S233      1.0  0.72572  0.91347  0.83062  1.0000
  S   S234      1.0  0.73468  0.89716  0.92345  1.0000
  Fe  Fe118     1.0  0.78072  0.88085  0.81298  1.0000
  S   S235      1.0  0.76098  0.89760  0.77140  1.0000
  S   S236      1.0  0.81117  0.85761  0.80874  1.0000
  Fe  Fe119     1.0  0.75687  0.92658  0.80696  1.0000
  S   S237      1.0  0.75870  0.96454  0.80185  1.0000
  Fe  Fe120     1.0  0.73139  0.88338  0.79868  1.0000
  S   S238      1.0  0.70514  0.86559  0.76898  1.0000
  S   S239      1.0  0.77901  0.91061  0.84696  1.0000
  S   S240      1.0  0.75127  0.86547  0.83835  1.0000
  Fe  Fe121     1.0  0.72499  0.63047  0.68331  1.0000
  S   S241      1.0  0.75087  0.60773  0.70684  1.0000
  S   S242      1.0  0.71238  0.66261  0.70728  1.0000
  Fe  Fe122     1.0  0.72846  0.60702  0.61396  1.0000
  S   S243      1.0  0.75433  0.58239  0.63289  1.0000
  S   S244      1.0  0.71518  0.61541  0.56103  1.0000
  Fe  Fe123     1.0  0.73336  0.58017  0.68067  1.0000
  S   S245      1.0  0.71991  0.55012  0.70990  1.0000
  Fe  Fe124     1.0  0.76975  0.61169  0.65782  1.0000
  S   S246      1.0  0.80637  0.61937  0.65095  1.0000
  S   S247      1.0  0.70627  0.60321  0.65976  1.0000
  S   S248      1.0  0.74520  0.63597  0.63620  1.0000
  Fe  Fe125     1.0  0.90364  0.75909  0.61602  1.0000
  S   S249      1.0  0.90569  0.72890  0.64960  1.0000
  S   S250      1.0  0.92072  0.75595  0.56420  1.0000
  Fe  Fe126     1.0  0.88016  0.78631  0.67208  1.0000
  S   S251      1.0  0.88133  0.75806  0.70931  1.0000
  S   S252      1.0  0.86188  0.81962  0.67809  1.0000
  Fe  Fe127     1.0  0.91669  0.75197  0.69058  1.0000
  S   S253      1.0  0.94647  0.73906  0.72241  1.0000
  Fe  Fe128     1.0  0.87058  0.73738  0.66547  1.0000
  S   S254      1.0  0.83848  0.71812  0.66810  1.0000
  S   S255      1.0  0.91621  0.78174  0.65605  1.0000
  S   S256      1.0  0.86789  0.76603  0.62902  1.0000
  C   C819      1.0  0.97201  0.75015  0.73635  1.0000
  H   H1406     1.0  0.78418  0.77740  0.69574  1.0000
  H   H1407     1.0  0.97323  0.81500  0.83264  1.0000
  C   C820      1.0  0.97581  0.77281  0.73627  1.0000
  H   H1408     1.0  0.68420  0.99158  0.75631  1.0000
  C   C821      1.0  0.71700  0.51203  0.74844  1.0000
  H   H1409     1.0  0.96283  0.78426  0.72798  1.0000
  C   C822      1.0  0.81546  0.64670  0.65674  1.0000
  C   C823      1.0  0.80040  0.66404  0.66380  1.0000
  C   C824      1.0  0.80790  0.68564  0.66741  1.0000
  C   C825      1.0  0.83054  0.69028  0.66418  1.0000
  C   C826      1.0  0.84569  0.67297  0.65699  1.0000
  C   C827      1.0  0.83814  0.65130  0.65317  1.0000
  H   H1410     1.0  0.78295  0.66080  0.66689  1.0000
  H   H1411     1.0  0.79604  0.69885  0.67309  1.0000
  H   H1412     1.0  0.86318  0.67626  0.65463  1.0000
  H   H1413     1.0  0.84996  0.63800  0.64788  1.0000
  C   C828      1.0  0.73001  0.52378  0.72503  1.0000
  C   C829      1.0  0.81719  0.62467  0.53579  1.0000
  H   H1414     1.0  0.67723  0.82093  0.86415  1.0000
  H   H1415     1.0  0.82626  0.72466  0.51261  1.0000
  H   H1416     1.0  0.79228  0.55991  0.53631  1.0000
  C   C830      1.0  0.98904  0.73563  0.74804  1.0000
  C   C831      1.0  0.83385  0.75118  0.54604  1.0000
  H   H1417     1.0  0.67807  0.68842  0.88817  1.0000
  C   C832      1.0  0.90892  0.76066  0.52353  1.0000
  C   C833      1.0  0.87562  0.71861  0.55389  1.0000
  H   H1418     1.0  0.87909  0.77713  0.54132  1.0000
  H   H1419     1.0  0.79814  0.78571  0.73293  1.0000
  C   C834      1.0  0.77190  0.64338  0.55106  1.0000
  H   H1420     1.0  0.99339  0.79809  0.67322  1.0000
  C   C835      1.0  0.89063  0.70102  0.57158  1.0000
  H   H1421     1.0  0.73527  0.57299  0.53999  1.0000
  C   C836      1.0  0.98648  0.78523  0.62204  1.0000
  C   C837      1.0  0.82469  0.84714  0.77187  1.0000
  C   C838      1.0  0.82227  0.85734  0.74017  1.0000
  C   C839      1.0  0.83358  0.84856  0.71171  1.0000
  C   C840      1.0  0.84716  0.82934  0.71445  1.0000
  C   C841      1.0  0.84911  0.81884  0.74599  1.0000
  C   C842      1.0  0.83809  0.82781  0.77454  1.0000
  H   H1422     1.0  0.81204  0.87221  0.73770  1.0000
  H   H1423     1.0  0.83199  0.85683  0.68747  1.0000
  H   H1424     1.0  0.85952  0.80410  0.74853  1.0000
  H   H1425     1.0  0.84004  0.81975  0.79891  1.0000
  C   C843      1.0  0.75515  0.97815  0.73403  1.0000
  C   C844      1.0  0.75817  0.98415  0.76776  1.0000
  H   H1426     1.0  0.75348  0.96095  0.72787  1.0000
  H   H1427     1.0  0.70876  0.96725  0.88817  1.0000
  H   H1428     1.0  0.80614  0.71027  0.59814  1.0000
  C   C845      1.0  0.69598  0.66811  0.61135  1.0000
  C   C846      1.0  0.68685  0.66914  0.72791  1.0000
  H   H1429     1.0  0.82856  0.76443  0.52799  1.0000
  C   C847      1.0  0.68960  0.84060  0.82279  1.0000
  H   H1430     1.0  0.99359  0.74328  0.83879  1.0000
  H   H1431     1.0  0.72998  0.78439  0.80794  1.0000
  H   H1432     1.0  0.70119  0.84917  0.83834  1.0000
  C   C848      1.0  0.67695  0.68484  0.86085  1.0000
  C   C849      1.0  0.74705  0.89906  0.96400  1.0000
  C   C850      1.0  0.76998  0.90051  0.96839  1.0000
  H   H1433     1.0  0.97011  0.76281  0.56592  1.0000
  H   H1434     1.0  0.78094  0.89966  0.94660  1.0000
  N   N59       1.0  0.76020  0.80740  0.76311  1.0000
  C   C851      1.0  0.77266  0.79650  0.79205  1.0000
  C   C852      1.0  0.76169  0.79213  0.73320  1.0000
  C   C853      1.0  0.73613  0.81177  0.77202  1.0000
  C   C854      1.0  0.77056  0.82912  0.75519  1.0000
  C   C855      1.0  0.77083  0.80817  0.82649  1.0000
  C   C856      1.0  0.78455  0.79041  0.71529  1.0000
  H   H1435     1.0  0.76739  0.77924  0.79606  1.0000
  H   H1436     1.0  0.79074  0.79512  0.78612  1.0000
  H   H1437     1.0  0.74909  0.79670  0.71374  1.0000
  H   H1438     1.0  0.75754  0.77503  0.74094  1.0000
  H   H1439     1.0  0.73430  0.82471  0.79171  1.0000
  H   H1440     1.0  0.78866  0.80599  0.70203  1.0000
  H   H1441     1.0  0.89303  0.68589  0.55638  1.0000
  H   H1442     1.0  0.78872  0.82705  0.75110  1.0000
  H   H1443     1.0  0.77887  0.82433  0.82585  1.0000
  H   H1444     1.0  0.75349  0.81021  0.83567  1.0000
  H   H1445     1.0  0.77991  0.79800  0.84570  1.0000
  H   H1446     1.0  0.72694  0.81882  0.74989  1.0000
  H   H1447     1.0  0.81333  0.64168  0.58468  1.0000
  C   C857      1.0  0.85204  0.69115  0.52642  1.0000
  H   H1448     1.0  0.76918  0.84028  0.77727  1.0000
  H   H1449     1.0  0.97254  0.78811  0.60410  1.0000
  H   H1450     1.0  0.77428  0.57388  0.56656  1.0000
  H   H1451     1.0  0.87560  0.73342  0.57024  1.0000
  H   H1452     1.0  0.81947  0.74798  0.56289  1.0000
  N   N60       1.0  0.85221  0.71210  0.54647  1.0000
  C   C858      1.0  0.81561  0.70226  0.57712  1.0000
  H   H1453     1.0  0.84169  0.72270  0.59660  1.0000
  C   C859      1.0  0.75000  0.51394  0.71376  1.0000
  H   H1454     1.0  0.75154  0.98953  0.68236  1.0000
  H   H1455     1.0  0.88437  0.72360  0.53032  1.0000
  H   H1456     1.0  0.83472  0.68693  0.52000  1.0000
  C   C860      1.0  0.84030  0.70832  0.57952  1.0000
  H   H1457     1.0  0.76377  0.60900  0.55524  1.0000
  H   H1458     1.0  0.74770  0.98637  0.99614  1.0000
  H   H1459     1.0  0.81284  0.63927  0.52001  1.0000
  H   H1460     1.0  0.79764  0.55753  0.58057  1.0000
  C   C861      1.0  0.67596  0.82457  0.83738  1.0000
  H   H1461     1.0  0.84846  0.69459  0.59394  1.0000
  H   H1462     1.0  0.88454  0.69681  0.59729  1.0000
  H   H1463     1.0  0.90736  0.70790  0.57484  1.0000
  C   C862      1.0  0.68292  0.69082  0.73926  1.0000
  H   H1464     1.0  0.69416  0.94848  0.91461  1.0000
  H   H1465     1.0  0.69579  0.70277  0.73643  1.0000
  H   H1466     1.0  0.75362  0.64473  0.54770  1.0000
  H   H1467     1.0  0.67148  0.83809  0.74185  1.0000
  H   H1468     1.0  0.69831  0.65353  0.59511  1.0000
  H   H1469     1.0  0.82317  0.58307  0.54827  1.0000
  H   H1470     1.0  0.70577  0.79669  0.78931  1.0000
  H   H1471     1.0  0.77803  0.58944  0.50697  1.0000
  H   H1472     1.0  0.85846  0.67691  0.54174  1.0000
  C   C863      1.0  0.72558  0.95765  0.93630  1.0000
  C   C864      1.0  0.72328  0.79150  0.78406  1.0000
  H   H1473     1.0  0.71560  0.96858  0.95344  1.0000
  H   H1474     1.0  0.75359  0.83205  0.70528  1.0000
  C   C865      1.0  0.78229  0.96409  0.88975  1.0000
  H   H1475     1.0  0.98632  0.71809  0.74848  1.0000
  H   H1476     1.0  0.74904  0.95644  0.87670  1.0000
  H   H1477     1.0  0.81385  0.68414  0.57959  1.0000
  C   C866      1.0  0.99637  0.78070  0.74734  1.0000
  H   H1478     1.0  0.74719  0.85402  0.73412  1.0000
  C   C867      1.0  0.75926  0.95556  0.89987  1.0000
  H   H1479     1.0  0.82108  0.99570  0.59546  1.0000
  H   H1480     1.0  0.77556  0.65390  0.57308  1.0000
  C   C868      1.0  0.67012  0.65381  0.73177  1.0000
  H   H1481     1.0  0.73853  0.99000  0.86951  1.0000
  H   H1482     1.0  0.77855  0.97077  0.95801  1.0000
  H   H1483     1.0  0.78169  0.98194  0.88349  1.0000
  H   H1484     1.0  0.96347  0.75689  0.66174  1.0000
  C   C869      1.0  0.96981  0.75013  0.63745  1.0000
  H   H1485     1.0  0.71534  0.89897  0.98959  1.0000
  C   C870      1.0  0.00031  0.75131  0.59491  1.0000
  C   C871      1.0  0.72257  0.60416  0.52096  1.0000
  C   C872      1.0  0.98362  0.75007  0.56544  1.0000
  C   C873      1.0  0.80695  0.58914  0.55892  1.0000
  C   C874      1.0  0.98823  0.81295  0.84870  1.0000
  H   H1486     1.0  0.68980  0.67222  0.85372  1.0000
  H   H1487     1.0  0.81033  0.59336  0.58573  1.0000
  H   H1488     1.0  0.98184  0.77855  0.84946  1.0000
  H   H1489     1.0  0.76119  0.93754  0.90528  1.0000
  N   N61       1.0  0.79821  0.60916  0.53949  1.0000
  N   N62       1.0  0.74815  0.96703  0.92945  1.0000
  H   H1490     1.0  0.72733  0.94155  0.94993  1.0000
  C   C875      1.0  0.82642  0.63341  0.56920  1.0000
  C   C876      1.0  0.70827  0.68715  0.59406  1.0000
  C   C877      1.0  0.76249  0.96225  0.96004  1.0000
  C   C878      1.0  0.67280  0.83431  0.76856  1.0000
  H   H1491     1.0  0.99901  0.79826  0.74720  1.0000
  H   H1492     1.0  0.95434  0.71893  0.64810  1.0000
  H   H1493     1.0  0.97727  0.81609  0.64666  1.0000
  H   H1494     1.0  0.83915  0.64577  0.56360  1.0000
  H   H1495     1.0  0.78188  0.61815  0.58652  1.0000
  H   H1496     1.0  0.97719  0.71610  0.61953  1.0000
  H   H1497     1.0  0.00084  0.76116  0.68008  1.0000
  C   C879      1.0  0.79170  0.56913  0.56044  1.0000
  H   H1498     1.0  0.80752  0.70791  0.55346  1.0000
  C   C880      1.0  0.73214  0.58300  0.51765  1.0000
  H   H1499     1.0  0.84751  0.75760  0.56125  1.0000
  C   C881      1.0  0.98012  0.79852  0.65397  1.0000
  H   H1500     1.0  0.67677  0.70745  0.63039  1.0000
  H   H1501     1.0  0.83477  0.62019  0.58442  1.0000
  H   H1502     1.0  0.97642  0.73346  0.56431  1.0000
  C   C882      1.0  0.97122  0.72487  0.64241  1.0000
  H   H1503     1.0  0.67299  0.63704  0.72339  1.0000
  C   C883      1.0  0.88802  0.77093  0.51942  1.0000
  H   H1504     1.0  0.79492  0.96039  0.90939  1.0000
  H   H1505     1.0  0.77375  0.85201  0.71270  1.0000
  H   H1506     1.0  0.76700  0.94438  0.96172  1.0000
  C   C884      1.0  0.76052  0.84242  0.72519  1.0000
  N   N63       1.0  0.99114  0.76086  0.62737  1.0000
  H   H1507     1.0  0.72291  0.77861  0.76442  1.0000
  H   H1508     1.0  0.76023  0.52263  0.69577  1.0000
  H   H1509     1.0  0.98155  0.72004  0.66453  1.0000
  C   C885      1.0  0.84112  0.73044  0.52608  1.0000
  H   H1510     1.0  0.70157  0.51945  0.75752  1.0000
  C   C886      1.0  0.77868  0.61902  0.55882  1.0000
  C   C887      1.0  0.71092  0.95303  0.90553  1.0000
  H   H1511     1.0  0.95637  0.75400  0.61897  1.0000
  C   C888      1.0  0.75407  0.99446  0.70823  1.0000
  C   C889      1.0  0.68803  0.84565  0.78831  1.0000
  C   C890      1.0  0.75236  0.96861  0.99473  1.0000
  H   H1512     1.0  0.71759  0.93862  0.89133  1.0000
  H   H1513     1.0  0.69877  0.69471  0.57286  1.0000
  H   H1514     1.0  0.71234  0.70001  0.61263  1.0000
  H   H1515     1.0  0.98340  0.81784  0.87472  1.0000
  H   H1516     1.0  0.98681  0.77848  0.90691  1.0000
  C   C891      1.0  0.73310  0.90014  0.99268  1.0000
  H   H1517     1.0  0.81465  0.99216  0.63919  1.0000
  H   H1518     1.0  0.78812  0.95560  0.86643  1.0000
  H   H1519     1.0  0.99263  0.75223  0.54107  1.0000
  H   H1520     1.0  0.67501  0.64224  0.87731  1.0000
  H   H1521     1.0  0.72433  0.68062  0.58370  1.0000
  H   H1522     1.0  0.70540  0.66365  0.63466  1.0000
  H   H1523     1.0  0.67723  0.62595  0.60813  1.0000
  H   H1524     1.0  0.68109  0.70017  0.84683  1.0000
  H   H1525     1.0  0.83131  0.61646  0.52197  1.0000
  H   H1526     1.0  0.85235  0.73611  0.50545  1.0000
  H   H1527     1.0  0.68322  0.68962  0.66476  1.0000
  H   H1528     1.0  0.96444  0.79299  0.66558  1.0000
  H   H1529     1.0  0.77937  0.65064  0.52817  1.0000
  C   C892      1.0  0.74642  0.99172  0.92466  1.0000
  H   H1530     1.0  0.70515  0.98365  0.72652  1.0000
  H   H1531     1.0  0.99262  0.74216  0.88464  1.0000
  C   C893      1.0  0.99680  0.78877  0.84681  1.0000
  H   H1532     1.0  0.67179  0.64943  0.55985  1.0000
  C   C894      1.0  0.67128  0.69230  0.64369  1.0000
  C   C895      1.0  0.79140  0.60158  0.50493  1.0000
  N   N64       1.0  0.67192  0.67282  0.62007  1.0000
  H   H1533     1.0  0.00059  0.82442  0.83817  1.0000
  H   H1534     1.0  0.67281  0.67583  0.53864  1.0000
  H   H1535     1.0  0.67354  0.64950  0.66169  1.0000
  C   C896      1.0  0.69886  0.99760  0.74227  1.0000
  H   H1536     1.0  0.00093  0.79326  0.60994  1.0000
