data_image0
_chemical_formula_structural       FeS2FeS2FeSFeS3H2CH2CFeS2FeS2FeSFeCS2C2H2SC6H7CH3CHFeC3H2C3H7C6H4C3H2CH2CH2SCNC8H14SH5CHFeHCHCSCH4C2H3CHCHC2H5NC9H9CH10NHCHSHNH3C2HCH10CSCHC2H3CH2CH4CHC3H2C2HNHC3H5CNHCH2CH3FeS2FeS2FeSFeS3CH3CSFeS2FeS2FeSFeCS2C2H2SC6H7CHCHCH2C3H2C2H3CH3C7H4CH5NC5HC2H2CH2CH3SCH3SNCH4CH3NH4CH4CHCFeH10CHCH4CH2SCH2CNHCH3C2HCSH2CHSH2C2H5CH3C2HCH6NC6HCHC2H4FeH2C2HC2H6C2HNFeS2FeSHFeSFeS3FeS2FeS2FeSFeS3FeS2FeS2FeSFeS4HC7H4C7H3C6H5C5H4C6H4C2HCH3CHCH2CHFeC3H13NH2CHCH2C2H3CH6CH6CH10CHC2H2CNCHC4H2CHC2HNH3CH3CH7C3H3NC8H15CHSCH6C2HC3H6SH3CH2CHCHC4HCH2CHSHNH4CH4CHFeHC2HFeS2FeSCFeSFeS3FeS2FeS2FeSFeCS2FeS2FeS2FeSFeS4NFeC6H4C6H4C6H4C5H5C6H4CH2CHCHCHC2H4C2HNHC2HC3H5C3NH4CHCHC4H2C2H4NH6CH3CHC3H3NH3SH7CHC2HSH2NC8H22SHCH4SHCH5CHCH5CHC2H3CHCH3C2HCH3NH7CH5CH3C2H4C2HCH2CH2CHCFeH4CHC2H8CSCHFe2S2FeS2FeSFeS3FeSHFeS2FeSFeS3FeSH2S2FeHFeSHSH2NSC6H4C6H3CHFeC3FeHC3HC2HCH2C7H2C6H4C2H3C2HCHC3H2NC4HC3H8CHCH4CH6SH8SH2CH6NHFeHCNC5H13NC4H3CSH6C2H5CHCH2NC2H2CSH4CHCH3CHC2H2CH4CH6CSH2CH2C2HNCSH4CH5C2H3C2H6CH5C3H2C2H2C2H2CHFeH2CHFeS2FeS2FeSFeS3FeS2FeS2FeSFeS3FeS2H2SFeHFeSHSH3SC6H4C2HC3SH3C3HC2HC3H2CH3SC5H4C6H4C2H3CHCH2C3H2NC8H20C2H2NH2CH2CH3NH2SH2CH2CH3C3H3CHCH4NC4HCNH9C3H3CNC2HC2HCH4CHC2H5CH2CH2SHCH3CHC2H3CNHCH2CSCSH5CHCH3C2H6CHC4H3C2H2CH4C2H6CH2CH2CHC2H3FeH2SHCHCH2FeHFeH2CH2CFeS2H2CHSHSCSFeCFeS2FeS2FeS2CSCFeHSFeSH2CHFeS2FeS2FeSFeS3C3H3C6H4C6H4CH4CH5S2C6H4CHCHCH2CHCH3CHC3H2CH3SH3C2HCH4SHCH2CH3NH4CNHCNC8H20SHCH3CH2CH2CH6CH5SCSHCH4C2HFeHNCH3CNCH2SC3HCH7FeH2NC8H7CH3CH2SC2NCH3CH6FeHCH3C2HC2HNH2C2H7FeHC2HCFeHCH7CHCSH2FeS2CFeH2SCSHSFeSFeS2FeS2FeS2CSHFeCSFeSH3SFeS2FeS2FeSFeS3C2H3C7H4C6H4C3H2CH6FeC6H4CHC3H3NCH5C6H6CH2CH3C2H2C3HCHNCH2CFeH6CHCH10CH4SCH5CH2C2H7C2HCH4CHNH4SCH2CHC2HCH2NHC2H2CH4NH2C2H3CH4FeCFeSCHNSHC2H4C2H2CHCHC2HCH6CH5C2H2CSH5CHNC4H2C4H5S2C2H5CH3CH4FeC2H9C2NFeHCHCHCHSHFeSCHFeHCHCH2SFeS2FeS2FeSFeHS2FeHSH2SC7H3C6H4C6H3C7H9NC8H11SHCH9CHCSNH3CHSH7FeHSHCH3C2H2C2HFeHSCNHNHCSCSH2C2NC4HSH4CH4CH7CHC2H4CH4C2HNC2H2CHSH2C2H7C2H4CHCH3S2HSH2FeC3H3SFeS2FeS2FeSFeHS2CS2H2CSHC6H2C6H4C8H2C6H4CH8CHSH5C2H3CHCHFeH3CH6CH2C2HCH4C2H11CHC3HSHFeC2SH6NC2HNHCHNC8H32N2H2CH3C2HC2HCSHFeHFeHSHCH2CH2SFeHCH2CH2SH2CFeS2FeS2FeS2FeSFeS3H2SC5NH4C6H4C6H5CH2CHNH8CHCH2C2FeH3FeC2HCH2CH3C2HCH2C2H4SCH12C2HCNH4SC2H6CH2CH2CH4C2H3CHCH4CHSHC2H2SHNHC2HCH4CHCHCH7CH4CH2SCSCFeS2FeS2FeS2FeSFeS3HCHC6H4C6H4C6H5CHC2H4SH2FeH6CH6C2H2C2H3CSH2CH4CH2CHNH6CH4NH4CH5SHC3HC3HCHCHSCH2CH4C2NC2H4FeC2H2FeHC2H3NH6CH2FeHS2HFeS2FeS2FeSFeS3H2CHSHCH2CHC3HC2H4C6H4C6H4C2H4C2HSHCH4CH2CH2SH2NH2CNC4HCH6CH7NC8H21CH4CSHCH4C2HCFeCHSHFeCSCHFeS2FeS2FeSFeS3CHC2SFeHCH3C4SCH4C6H4C6H4CHNH2CHC2HCSHC2H5CH2CH2SCH4NHCH3CHCH3CSHCH4CH2CHCH8NCHCH3CHCSH6SH2FeH2C2H2FeH3CHCHSHCSFeCHFeS3HFeS3HSFeHCFeS2FeS2C3H2CH4C2H3C6H4C6H4C6H6CHCH5SH2CSHNH3CH5FeHC3NHC3H5C2H12C3H2CNCH4CH2CSH5CHC2HCHC2H2CH5SHC2H4CH2SHNFeH3CHNH2C2H6CH6CH2SC2H2CFeHFeHSCH2SHFeS2FeS2FeH2FeS2CHFeS3HCHSHFeS2FeS2C3H5C3H4C6H4C6H4C6H4C2HSHCSCHCH4SH4CHC6H3NC5H7NH3SH3CHC2H6CHSC4H3CHCHC2H6C2HNH2NH2SCH3FeH15CH6C2H2C2FeHCHFeS2NS4Fe2SC2HNFeCSFeSCS2HFeHSH2SCSFe2S2FeS2FeSFeS3H3CHC6H4C6H4C6H3C3H2C7H8CH3C2HC3HCH2CH3NHC2H4NC8H26SH5CHCH4C2H3CNSH4CH5SH5CHCH2SH2SC2H6CHCHFeHCSH6CHCH3CH3CHCH3CH4C2HC2H2FeCH2CH3CH3CH2C4HC2HFeCH5CH7NCNH3C3H5C4H3C2SCHCH3FeSHCNC2FeH2FeS2CS4CFeS2H3FeS2FeSHS2CFeS3FeSHS2FeS2FeS2FeSFeS3H2CHC7H4C6H4C6H4CHCH2C6H7C2H3CFeH3CHCH5FeCNC2HCHSC2HC2HCH2Fe2CNC8H27NH6CHCH4CHC3H3NC2H2C2HCH7C2HNC8H9CH10NC8H20CHCH2C3FeH4CH2CHFeH5C2H4CH8SHCH2CHNCHCFeCFeS2FeS2FeSFeS3FeS2FeS2FeSFeS3HSFeSCH2FeS2CH2CH2S2HCHCHC7H4C6H4C3SC2H5CNHC6H5CHC3H4C6H5CH6C2H4C2H3CH2CH2CH4CHCH5SH7C2H3CH2C2HCH2CH2CH2CHCHC3HCNHC3H2C3H8CHCNCH6NCHC2HCH3CH14SH2CNC6H7FeH2C2HCH7CH4CH4CHNH4CHC2H4C2H2C2H2CH2C2NC2SH4NHCH3FeC4HCH4FeH2FeHSHCH3CH5CH4C3Fe2S2FeS2FeSFeS3FeS2FeS2FeSFeHS2CS2CH3FeHS2H4CS2HC3HC7H4C6H4C2HC3H5C2HC6H4CH2C2H2CH2C6H4C2H4CH5CH2CNCHSH2SC2NH3CHNC5HC2H7C2H5FeH3FeHNC8H22CHSH3C2H3CHCHC2H4FeCH2CHC4H9C2H2C2HCH2CHNH2NC2H2SH3C2HC3H6CHSCHCH4CH4CH6SH2C3NH2CH2SHNCHCFeH4CH16CH2FeS2FeS2FeSFeS3FeS2FeS2FeSFeS3FeS2FeH2FeSFeS3CHC2HC8H4C6HCH2CHCNC6H4C6H4C6H5C2H4C2HCHSHCFeCH3CH2SCH6CH6C3HNH6CHCH3C2H2C2H2C2HC3H3CHCHCH3CSH4CH2SHCHCH2CH5CH2CH2CHNCHCHC5H2CH4CHCH3CH6FeH4C3HSH3C4H4CH4CNH4NH3CHC2HNH2CH2NCH5CH2CH15CH5CFeHFeH2CHCFeS2FeS2FeSFeS3FeS2FeS2FeSFeS3FeS2H2CFeSFeS3CSHC2HC7H4C6H8C6H4C6H4C6H6C3H2C3H2SHC3H6NC8H20CHCH3CHCFeC2H5CH3CH2CHNC3HCH5CH2CH2CH5CH2CHSH2NH4NCHCH3CH4FeNCHSHNCH3CNHC2HC3H2SH3CH5CH4CHC2H5CH2C2H3CH2CH3C2HCH2CH2CHSH2C2H3FeS2FeS2FeSFeS3FeS2FeS2FeSFeS3NCH3C4SHCH4NHC2HCHC2HCH2C6H8C2HCH2CH4CH2CHCH2CSH4C2H4C6HCH11CHNC5HCH11C2HCH3CHCHC3H3CH2C3HCH2CH2CH3C3H7CH4NSHNH2SCHCH2CHCH2CH2C2H2FeH3C2H2CH2SH3CH2FeH2CHC2HC2HCH2CFeHFeS2FeS2FeSFeS3FeS2FeS2FeSFeCS2HCHSH2C6H4CH2C2HC2H4C7H4C2H2C2H2CH2CHC2H5CH2C2H3SHS2H2C2HCH4CHCH9CHNC5H12NC4H2NCH4CH3CH3CHC3H5CH2CHCSH9C2HCHCH2CNC2HSHSNH2CHC2H2C2HCH4CH4CH7SHCHC2H2SH8NHC2
_chemical_formula_sum              "Fe288 S576 H3456 C2016 N144"
_cell_length_a       91.0446
_cell_length_b       87.2057
_cell_length_c       41.3232
_cell_angle_alpha    91.2121
_cell_angle_beta     88.6722
_cell_angle_gamma    112.527

_space_group_name_H-M_alt    "P 1"
_space_group_IT_number       1

loop_
  _space_group_symop_operation_xyz
  'x, y, z'

loop_
  _atom_site_type_symbol
  _atom_site_label
  _atom_site_symmetry_multiplicity
  _atom_site_fract_x
  _atom_site_fract_y
  _atom_site_fract_z
  _atom_site_occupancy
  Fe  Fe1       1.0  0.05799  0.22665  0.29227  1.0000
  S   S1        1.0  0.04012  0.23868  0.29446  1.0000
  S   S2        1.0  0.06581  0.21612  0.24711  1.0000
  Fe  Fe2       1.0  0.06108  0.22727  0.36599  1.0000
  S   S3        1.0  0.04318  0.23925  0.37435  1.0000
  S   S4        1.0  0.07643  0.21839  0.39799  1.0000
  Fe  Fe3       1.0  0.02815  0.22153  0.33594  1.0000
  S   S5        1.0  0.00095  0.20795  0.32963  1.0000
  Fe  Fe4       1.0  0.05593  0.25543  0.33224  1.0000
  S   S6        1.0  0.06336  0.28337  0.33469  1.0000
  S   S7        1.0  0.04512  0.20837  0.33088  1.0000
  S   S8        1.0  0.07468  0.24478  0.32677  1.0000
  H   H1        1.0  0.20370  0.07519  0.30210  1.0000
  H   H2        1.0  0.18440  0.15116  0.15611  1.0000
  C   C1        1.0  0.18022  0.03747  0.22472  1.0000
  H   H3        1.0  0.18820  0.29123  0.49144  1.0000
  H   H4        1.0  0.18733  0.28246  0.06408  1.0000
  C   C2        1.0  0.19446  0.15190  0.21630  1.0000
  Fe  Fe5       1.0  0.15131  0.24913  0.05596  1.0000
  S   S9        1.0  0.14243  0.22304  0.03590  1.0000
  S   S10       1.0  0.16011  0.27035  0.02048  1.0000
  Fe  Fe6       1.0  0.13562  0.23766  0.12203  1.0000
  S   S11       1.0  0.12538  0.21083  0.10648  1.0000
  S   S12       1.0  0.13162  0.24882  0.17017  1.0000
  Fe  Fe7       1.0  0.14963  0.21590  0.08363  1.0000
  S   S13       1.0  0.15941  0.19506  0.08201  1.0000
  Fe  Fe8       1.0  0.11926  0.22008  0.06008  1.0000
  C   C3        1.0  0.08177  0.29721  0.24429  1.0000
  S   S14       1.0  0.16033  0.24253  0.10195  1.0000
  S   S15       1.0  0.12765  0.24643  0.07761  1.0000
  C   C4        1.0  0.17719  0.28886  0.02246  1.0000
  C   C5        1.0  0.18862  0.29189  0.04640  1.0000
  H   H5        1.0  0.16870  0.03043  0.23698  1.0000
  H   H6        1.0  0.09753  0.21047  0.43894  1.0000
  S   S16       1.0  0.09506  0.20778  0.03645  1.0000
  C   C6        1.0  0.20050  0.18284  0.12384  1.0000
  C   C7        1.0  0.19007  0.17232  0.10115  1.0000
  C   C8        1.0  0.17770  0.17636  0.08860  1.0000
  C   C9        1.0  0.17560  0.19101  0.09824  1.0000
  C   C10       1.0  0.18612  0.20160  0.12072  1.0000
  C   C11       1.0  0.19844  0.19751  0.13343  1.0000
  H   H7        1.0  0.19145  0.16101  0.09341  1.0000
  H   H8        1.0  0.16968  0.16807  0.07120  1.0000
  H   H9        1.0  0.18472  0.21290  0.12842  1.0000
  H   H10       1.0  0.15710  0.10995  0.17239  1.0000
  H   H11       1.0  0.08438  0.29139  0.22273  1.0000
  H   H12       1.0  0.10346  0.30653  0.39311  1.0000
  H   H13       1.0  0.18327  0.17464  0.19001  1.0000
  C   C12       1.0  0.10651  0.29825  0.37588  1.0000
  H   H14       1.0  0.16477  0.01487  0.31766  1.0000
  H   H15       1.0  0.11564  0.30349  0.27525  1.0000
  H   H16       1.0  0.17115  0.03395  0.29630  1.0000
  C   C13       1.0  0.20478  0.07943  0.00976  1.0000
  H   H17       1.0  0.11675  0.29575  0.38473  1.0000
  Fe  Fe9       1.0  0.20971  0.03082  0.38241  1.0000
  C   C14       1.0  0.07115  0.29490  0.29930  1.0000
  C   C15       1.0  0.17479  0.14824  0.17492  1.0000
  C   C16       1.0  0.07453  0.28746  0.27133  1.0000
  H   H18       1.0  0.16269  0.16251  0.20153  1.0000
  H   H19       1.0  0.07165  0.27421  0.27059  1.0000
  C   C17       1.0  0.08423  0.22624  0.43668  1.0000
  C   C18       1.0  0.08041  0.23844  0.45311  1.0000
  C   C19       1.0  0.09454  0.21995  0.45138  1.0000
  H   H20       1.0  0.17983  0.98959  0.41428  1.0000
  H   H21       1.0  0.07826  0.26071  0.04696  1.0000
  H   H22       1.0  0.12631  0.27907  0.44741  1.0000
  H   H23       1.0  0.07245  0.24333  0.44221  1.0000
  H   H24       1.0  0.19240  0.05053  0.26725  1.0000
  H   H25       1.0  0.15574  0.29606  0.16397  1.0000
  H   H26       1.0  0.09609  0.28622  0.37578  1.0000
  C   C20       1.0  0.11356  0.23946  0.19222  1.0000
  C   C21       1.0  0.10942  0.24861  0.21666  1.0000
  C   C22       1.0  0.09485  0.24167  0.23382  1.0000
  C   C23       1.0  0.08432  0.22548  0.22665  1.0000
  C   C24       1.0  0.08860  0.21626  0.20260  1.0000
  C   C25       1.0  0.10319  0.22317  0.18562  1.0000
  H   H27       1.0  0.11740  0.26122  0.22200  1.0000
  H   H28       1.0  0.09167  0.24889  0.25227  1.0000
  H   H29       1.0  0.08056  0.20371  0.19701  1.0000
  H   H30       1.0  0.10631  0.21594  0.16709  1.0000
  C   C26       1.0  0.98284  0.19825  0.35234  1.0000
  C   C27       1.0  0.98245  0.19630  0.38594  1.0000
  C   C28       1.0  0.17531  0.02470  0.30650  1.0000
  H   H31       1.0  0.17830  0.30249  0.10397  1.0000
  H   H32       1.0  0.99346  0.20092  0.39912  1.0000
  C   C29       1.0  0.13794  0.26467  0.47011  1.0000
  H   H33       1.0  0.16400  0.13994  0.16226  1.0000
  H   H34       1.0  0.96841  0.19360  0.30983  1.0000
  C   C30       1.0  0.18424  0.98506  0.36434  1.0000
  H   H35       1.0  0.12591  0.30534  0.46253  1.0000
  H   H36       1.0  0.11895  0.22706  0.26737  1.0000
  S   S17       1.0  0.19975  0.06693  0.47217  1.0000
  C   C31       1.0  0.18256  0.01660  0.28052  1.0000
  N   N1        1.0  0.09819  0.20159  0.30978  1.0000
  C   C32       1.0  0.09560  0.21758  0.31457  1.0000
  C   C33       1.0  0.08640  0.19092  0.28538  1.0000
  C   C34       1.0  0.11473  0.20479  0.29710  1.0000
  C   C35       1.0  0.09597  0.19321  0.34206  1.0000
  C   C36       1.0  0.10817  0.23123  0.33488  1.0000
  C   C37       1.0  0.06906  0.18276  0.29756  1.0000
  C   C38       1.0  0.11940  0.21456  0.26520  1.0000
  C   C39       1.0  0.09763  0.17622  0.34194  1.0000
  H   H37       1.0  0.09486  0.22312  0.29099  1.0000
  H   H38       1.0  0.08390  0.21517  0.32666  1.0000
  H   H39       1.0  0.08992  0.18090  0.27522  1.0000
  H   H40       1.0  0.08620  0.19832  0.26392  1.0000
  H   H41       1.0  0.12380  0.21138  0.31552  1.0000
  H   H42       1.0  0.11627  0.19286  0.29249  1.0000
  H   H43       1.0  0.10489  0.20112  0.35956  1.0000
  H   H44       1.0  0.08443  0.19190  0.35396  1.0000
  H   H45       1.0  0.12024  0.23535  0.32387  1.0000
  H   H46       1.0  0.10506  0.24235  0.33616  1.0000
  H   H47       1.0  0.10833  0.22741  0.36023  1.0000
  H   H48       1.0  0.06751  0.17293  0.31543  1.0000
  H   H49       1.0  0.06477  0.19203  0.30820  1.0000
  H   H50       1.0  0.06129  0.17684  0.27676  1.0000
  S   S18       1.0  0.20174  0.05246  0.38072  1.0000
  H   H51       1.0  0.11184  0.20766  0.24486  1.0000
  H   H52       1.0  0.13184  0.21641  0.25843  1.0000
  H   H53       1.0  0.11009  0.17782  0.34681  1.0000
  H   H54       1.0  0.09399  0.16914  0.31901  1.0000
  H   H55       1.0  0.08969  0.16830  0.36102  1.0000
  C   C40       1.0  0.96830  0.19212  0.33577  1.0000
  H   H56       1.0  0.17239  0.11970  0.14209  1.0000
  Fe  Fe10      1.0  0.21230  0.05894  0.43073  1.0000
  H   H57       1.0  0.17945  0.04900  0.21540  1.0000
  C   C41       1.0  0.16655  0.13622  0.23020  1.0000
  H   H58       1.0  0.18191  0.03033  0.20343  1.0000
  C   C42       1.0  0.96780  0.18825  0.40252  1.0000
  S   S19       1.0  0.19715  0.00595  0.35502  1.0000
  C   C43       1.0  0.14917  0.12565  0.22149  1.0000
  H   H59       1.0  0.20352  0.15623  0.19640  1.0000
  H   H60       1.0  0.14030  0.28667  0.10825  1.0000
  H   H61       1.0  0.20944  0.02641  0.21770  1.0000
  H   H62       1.0  0.08342  0.25334  0.49668  1.0000
  C   C44       1.0  0.07041  0.24738  0.04539  1.0000
  C   C45       1.0  0.17211  0.16434  0.18284  1.0000
  H   H63       1.0  0.16948  0.12931  0.24972  1.0000
  H   H64       1.0  0.16687  0.14776  0.24278  1.0000
  H   H65       1.0  0.19335  0.16330  0.22659  1.0000
  C   C46       1.0  0.19429  0.04232  0.24807  1.0000
  H   H66       1.0  0.05795  0.24574  0.05126  1.0000
  C   C47       1.0  0.10087  0.22568  0.48223  1.0000
  H   H67       1.0  0.17293  0.00969  0.26340  1.0000
  C   C48       1.0  0.16423  0.29349  0.14719  1.0000
  C   C49       1.0  0.20432  0.08709  0.25620  1.0000
  H   H68       1.0  0.19435  0.06945  0.01911  1.0000
  H   H69       1.0  0.18027  0.11619  0.21293  1.0000
  H   H70       1.0  0.14674  0.11219  0.22319  1.0000
  H   H71       1.0  0.14573  0.12827  0.19742  1.0000
  H   H72       1.0  0.14110  0.12868  0.23876  1.0000
  N   N2        1.0  0.07790  0.24080  0.10210  1.0000
  C   C50       1.0  0.07606  0.23635  0.06651  1.0000
  C   C51       1.0  0.08449  0.22933  0.11761  1.0000
  C   C52       1.0  0.08946  0.25871  0.10517  1.0000
  C   C53       1.0  0.06179  0.23866  0.11607  1.0000
  C   C54       1.0  0.16980  0.11350  0.16595  1.0000
  C   C55       1.0  0.07402  0.21061  0.11632  1.0000
  C   C56       1.0  0.10008  0.26367  0.13534  1.0000
  C   C57       1.0  0.06082  0.24086  0.15305  1.0000
  C   C58       1.0  0.18106  0.12438  0.19208  1.0000
  H   H73       1.0  0.06742  0.22344  0.06242  1.0000
  H   H74       1.0  0.08679  0.23245  0.14353  1.0000
  H   H75       1.0  0.09621  0.23090  0.10645  1.0000
  H   H76       1.0  0.09811  0.26213  0.08440  1.0000
  H   H77       1.0  0.08310  0.26735  0.10400  1.0000
  H   H78       1.0  0.05742  0.24770  0.10541  1.0000
  H   H79       1.0  0.05283  0.22618  0.10959  1.0000
  H   H80       1.0  0.13912  0.25999  0.49427  1.0000
  H   H81       1.0  0.97347  0.13108  0.30855  1.0000
  C   C59       1.0  0.07500  0.31211  0.29999  1.0000
  H   H82       1.0  0.07244  0.20548  0.09130  1.0000
  H   H83       1.0  0.08014  0.20382  0.12944  1.0000
  H   H84       1.0  0.06232  0.20771  0.12854  1.0000
  H   H85       1.0  0.10633  0.27739  0.13638  1.0000
  H   H86       1.0  0.10940  0.25840  0.13365  1.0000
  H   H87       1.0  0.09344  0.25983  0.15846  1.0000
  H   H88       1.0  0.06433  0.23198  0.16660  1.0000
  H   H89       1.0  0.04829  0.23839  0.16025  1.0000
  H   H90       1.0  0.06794  0.25375  0.16090  1.0000
  H   H91       1.0  0.11056  0.29507  0.32551  1.0000
  N   N3        1.0  0.17879  0.13996  0.20322  1.0000
  H   H92       1.0  0.13065  0.25363  0.45552  1.0000
  C   C60       1.0  0.20189  0.14517  0.24306  1.0000
  H   H93       1.0  0.19167  0.08097  0.25248  1.0000
  S   S20       1.0  0.20496  0.10217  0.19787  1.0000
  H   H94       1.0  0.19323  0.12757  0.18161  1.0000
  N   N4        1.0  0.19718  0.02809  0.26276  1.0000
  H   H95       1.0  0.18514  0.00677  0.29301  1.0000
  H   H96       1.0  0.14975  0.27011  0.45796  1.0000
  H   H97       1.0  0.12595  0.30056  0.07931  1.0000
  C   C61       1.0  0.12928  0.27680  0.47237  1.0000
  C   C62       1.0  0.21056  0.03516  0.28637  1.0000
  H   H98       1.0  0.18362  0.03038  0.32649  1.0000
  C   C63       1.0  0.20857  0.00590  0.24722  1.0000
  H   H99       1.0  0.08760  0.23685  0.05596  1.0000
  H   H100      1.0  0.20640  0.20577  0.15095  1.0000
  H   H101      1.0  0.20757  0.04275  0.30540  1.0000
  H   H102      1.0  0.16809  0.16847  0.16062  1.0000
  H   H103      1.0  0.15846  0.28088  0.13626  1.0000
  H   H104      1.0  0.20500  0.05048  0.23427  1.0000
  H   H105      1.0  0.07061  0.24352  0.01962  1.0000
  H   H106      1.0  0.20103  0.99713  0.26557  1.0000
  H   H107      1.0  0.19448  0.14221  0.26546  1.0000
  H   H108      1.0  0.17197  0.10184  0.16280  1.0000
  C   C64       1.0  0.20971  0.08510  0.49566  1.0000
  S   S21       1.0  0.20949  0.13001  0.11949  1.0000
  C   C65       1.0  0.17727  0.98039  0.39501  1.0000
  H   H109      1.0  0.21067  0.30944  0.06566  1.0000
  C   C66       1.0  0.12815  0.30352  0.48822  1.0000
  C   C67       1.0  0.96531  0.13728  0.31621  1.0000
  H   H110      1.0  0.20439  0.13420  0.23488  1.0000
  H   H111      1.0  0.96774  0.18674  0.42845  1.0000
  H   H112      1.0  0.11763  0.26977  0.48419  1.0000
  C   C68       1.0  0.15481  0.30529  0.43917  1.0000
  H   H113      1.0  0.17416  0.29315  0.16190  1.0000
  H   H114      1.0  0.19043  0.01069  0.22228  1.0000
  C   C69       1.0  0.20124  0.01818  0.23613  1.0000
  H   H115      1.0  0.20977  0.99837  0.22606  1.0000
  H   H116      1.0  0.09812  0.30599  0.33347  1.0000
  H   H117      1.0  0.16209  0.29555  0.48042  1.0000
  H   H118      1.0  0.13849  0.30782  0.32596  1.0000
  C   C70       1.0  0.21110  0.08374  0.28424  1.0000
  H   H119      1.0  0.10873  0.22068  0.49325  1.0000
  C   C71       1.0  0.08665  0.24407  0.48403  1.0000
  C   C72       1.0  0.10932  0.30506  0.34114  1.0000
  C   C73       1.0  0.17100  0.30687  0.12096  1.0000
  H   H120      1.0  0.96831  0.14157  0.34157  1.0000
  H   H121      1.0  0.10342  0.28519  0.49291  1.0000
  C   C74       1.0  0.21382  0.09841  0.23309  1.0000
  C   C75       1.0  0.21241  0.09370  0.02914  1.0000
  H   H122      1.0  0.13980  0.30436  0.04478  1.0000
  N   N5        1.0  0.13779  0.29288  0.49039  1.0000
  H   H123      1.0  0.15355  0.28839  0.07501  1.0000
  C   C76       1.0  0.20181  0.30715  0.04722  1.0000
  C   C77       1.0  0.13454  0.29646  0.06601  1.0000
  C   C78       1.0  0.14715  0.29517  0.08871  1.0000
  H   H124      1.0  0.14781  0.31266  0.43244  1.0000
  H   H125      1.0  0.12757  0.28386  0.05609  1.0000
  H   H126      1.0  0.21235  0.02527  0.30037  1.0000
  H   H127      1.0  0.15098  0.29357  0.42483  1.0000
  H   H128      1.0  0.20794  0.09461  0.05329  1.0000
  C   C79       1.0  0.15409  0.30216  0.47589  1.0000
  N   N6        1.0  0.15894  0.31118  0.10265  1.0000
  H   H129      1.0  0.14145  0.30958  0.14041  1.0000
  C   C80       1.0  0.08970  0.21725  0.00363  1.0000
  H   H130      1.0  0.11148  0.23892  0.00278  1.0000
  H   H131      1.0  0.96802  0.14817  0.30040  1.0000
  C   C81       1.0  0.17906  0.30108  0.99941  1.0000
  H   H132      1.0  0.16739  0.31262  0.43203  1.0000
  H   H133      1.0  0.06666  0.19749  0.99851  1.0000
  H   H134      1.0  0.21354  0.15495  0.24961  1.0000
  Fe  Fe11      1.0  0.04692  0.21895  0.81918  1.0000
  S   S22       1.0  0.02620  0.22668  0.81311  1.0000
  S   S23       1.0  0.05520  0.20625  0.77804  1.0000
  Fe  Fe12      1.0  0.05426  0.23434  0.88675  1.0000
  S   S24       1.0  0.03441  0.24368  0.88529  1.0000
  S   S25       1.0  0.07420  0.24349  0.92356  1.0000
  Fe  Fe13      1.0  0.01927  0.21836  0.86452  1.0000
  S   S26       1.0  0.99357  0.20763  0.88583  1.0000
  Fe  Fe14      1.0  0.04252  0.25114  0.83421  1.0000
  S   S27       1.0  0.04472  0.27523  0.81045  1.0000
  S   S28       1.0  0.03898  0.20858  0.86924  1.0000
  S   S29       1.0  0.06335  0.24378  0.83696  1.0000
  C   C82       1.0  0.09985  0.23277  0.99229  1.0000
  H   H135      1.0  0.18245  0.08147  0.90635  1.0000
  H   H136      1.0  0.10091  0.18838  0.87948  1.0000
  H   H137      1.0  0.20817  0.08117  0.85607  1.0000
  C   C83       1.0  0.20720  0.13290  0.89099  1.0000
  S   S30       1.0  0.20676  0.18391  0.65492  1.0000
  Fe  Fe15      1.0  0.15320  0.26234  0.60210  1.0000
  S   S31       1.0  0.14721  0.24435  0.56030  1.0000
  S   S32       1.0  0.17139  0.28862  0.60566  1.0000
  Fe  Fe16      1.0  0.12609  0.23973  0.64541  1.0000
  S   S33       1.0  0.11775  0.21958  0.60686  1.0000
  S   S34       1.0  0.11822  0.24509  0.69580  1.0000
  Fe  Fe17      1.0  0.14411  0.22498  0.59864  1.0000
  S   S35       1.0  0.15487  0.20549  0.58698  1.0000
  Fe  Fe18      1.0  0.12160  0.24014  0.57097  1.0000
  C   C84       1.0  0.09254  0.30159  0.80709  1.0000
  S   S36       1.0  0.15194  0.24360  0.63947  1.0000
  S   S37       1.0  0.12809  0.25962  0.61033  1.0000
  C   C85       1.0  0.18042  0.29876  0.56984  1.0000
  C   C86       1.0  0.18073  0.28978  0.54160  1.0000
  H   H138      1.0  0.20153  0.05202  0.69996  1.0000
  H   H139      1.0  0.18114  0.25270  0.58548  1.0000
  S   S38       1.0  0.20339  0.04453  0.86260  1.0000
  C   C87       1.0  0.19153  0.18881  0.63640  1.0000
  C   C88       1.0  0.18505  0.18215  0.60642  1.0000
  C   C89       1.0  0.17369  0.18718  0.59206  1.0000
  C   C90       1.0  0.16853  0.19887  0.60741  1.0000
  C   C91       1.0  0.17484  0.20536  0.63759  1.0000
  C   C92       1.0  0.18628  0.20041  0.65184  1.0000
  H   H140      1.0  0.18893  0.17324  0.59412  1.0000
  H   H141      1.0  0.16891  0.18201  0.56876  1.0000
  H   H142      1.0  0.17095  0.21423  0.64998  1.0000
  H   H143      1.0  0.20374  0.06947  0.79017  1.0000
  H   H144      1.0  0.08152  0.21926  0.88683  1.0000
  H   H145      1.0  0.19268  0.22229  0.57060  1.0000
  H   H146      1.0  0.20525  0.28359  0.58297  1.0000
  C   C93       1.0  0.11159  0.29666  0.50502  1.0000
  H   H147      1.0  0.10304  0.30054  0.81676  1.0000
  C   C94       1.0  0.06544  0.18567  0.89410  1.0000
  H   H148      1.0  0.10422  0.23733  0.83175  1.0000
  C   C95       1.0  0.09687  0.23771  0.49882  1.0000
  H   H149      1.0  0.19317  0.25244  0.65090  1.0000
  H   H150      1.0  0.19042  0.10860  0.90019  1.0000
  C   C96       1.0  0.06379  0.29058  0.80218  1.0000
  C   C97       1.0  0.18672  0.07685  0.88433  1.0000
  C   C98       1.0  0.07750  0.28946  0.81455  1.0000
  H   H151      1.0  0.07697  0.21882  0.84584  1.0000
  H   H152      1.0  0.07652  0.27933  0.83016  1.0000
  C   C99       1.0  0.07982  0.23278  0.95377  1.0000
  C   C100      1.0  0.06970  0.21716  0.96481  1.0000
  H   H153      1.0  0.14086  0.29477  0.63381  1.0000
  H   H154      1.0  0.06280  0.19650  0.90243  1.0000
  H   H155      1.0  0.07531  0.17629  0.85538  1.0000
  C   C101      1.0  0.09489  0.24050  0.96763  1.0000
  H   H156      1.0  0.05800  0.21117  0.95462  1.0000
  H   H157      1.0  0.20707  0.26979  0.62890  1.0000
  H   H158      1.0  0.17830  0.21825  0.52283  1.0000
  C   C102      1.0  0.19661  0.10443  0.83755  1.0000
  C   C103      1.0  0.10104  0.23331  0.71866  1.0000
  C   C104      1.0  0.09904  0.23906  0.74983  1.0000
  C   C105      1.0  0.08500  0.23100  0.76800  1.0000
  C   C106      1.0  0.07295  0.21683  0.75556  1.0000
  C   C107      1.0  0.07517  0.21074  0.72482  1.0000
  C   C108      1.0  0.08909  0.21903  0.70627  1.0000
  H   H159      1.0  0.10823  0.25007  0.75966  1.0000
  H   H160      1.0  0.08357  0.23577  0.79162  1.0000
  H   H161      1.0  0.06600  0.19968  0.71511  1.0000
  H   H162      1.0  0.09052  0.21443  0.68236  1.0000
  C   C109      1.0  0.97407  0.19308  0.87580  1.0000
  H   H163      1.0  0.18443  0.10274  0.84626  1.0000
  H   H164      1.0  0.10638  0.21338  0.81784  1.0000
  H   H165      1.0  0.18683  0.26700  0.63275  1.0000
  H   H166      1.0  0.98155  0.17858  0.84142  1.0000
  H   H167      1.0  0.11214  0.29427  0.53110  1.0000
  N   N7        1.0  0.08927  0.20280  0.85692  1.0000
  C   C110      1.0  0.09481  0.20288  0.82213  1.0000
  C   C111      1.0  0.97149  0.17987  0.85385  1.0000
  C   C112      1.0  0.07371  0.18811  0.86058  1.0000
  C   C113      1.0  0.10177  0.20146  0.87882  1.0000
  C   C114      1.0  0.09727  0.18717  0.80990  1.0000
  H   H168      1.0  0.06236  0.26562  0.66133  1.0000
  C   C115      1.0  0.10180  0.20753  0.91436  1.0000
  C   C116      1.0  0.18997  0.24913  0.59825  1.0000
  H   H169      1.0  0.14806  0.28256  0.52670  1.0000
  H   H170      1.0  0.20474  0.13126  0.82629  1.0000
  C   C117      1.0  0.18340  0.23133  0.53174  1.0000
  H   H171      1.0  0.02492  0.24853  0.75941  1.0000
  H   H172      1.0  0.11386  0.20880  0.86879  1.0000
  C   C118      1.0  0.20210  0.11914  0.81398  1.0000
  H   H173      1.0  0.12187  0.30182  0.60395  1.0000
  H   H174      1.0  0.08576  0.17659  0.80629  1.0000
  H   H175      1.0  0.15789  0.31306  0.54088  1.0000
  S   S39       1.0  0.10477  0.24588  0.53730  1.0000
  C   C119      1.0  0.05836  0.28237  0.69551  1.0000
  H   H176      1.0  0.20067  0.05491  0.60824  1.0000
  H   H177      1.0  0.19113  0.20562  0.67506  1.0000
  H   H178      1.0  0.11141  0.23518  0.87123  1.0000
  S   S40       1.0  0.20467  0.13701  0.63156  1.0000
  N   N8        1.0  0.20727  0.10535  0.86573  1.0000
  C   C120      1.0  0.20337  0.11419  0.89438  1.0000
  H   H179      1.0  0.02654  0.25421  0.71815  1.0000
  H   H180      1.0  0.20359  0.07968  0.67947  1.0000
  H   H181      1.0  0.14849  0.27895  0.66679  1.0000
  H   H182      1.0  0.19503  0.09333  0.82200  1.0000
  C   C121      1.0  0.20418  0.08779  0.87565  1.0000
  H   H183      1.0  0.19212  0.06216  0.65598  1.0000
  H   H184      1.0  0.18232  0.98441  0.90016  1.0000
  H   H185      1.0  0.07234  0.18230  0.91247  1.0000
  N   N9        1.0  0.14143  0.30847  0.67835  1.0000
  H   H186      1.0  0.18764  0.23928  0.51015  1.0000
  H   H187      1.0  0.05073  0.28285  0.71651  1.0000
  H   H188      1.0  0.05226  0.26439  0.75091  1.0000
  H   H189      1.0  0.07295  0.23684  0.66527  1.0000
  C   C122      1.0  0.02990  0.24668  0.73552  1.0000
  H   H190      1.0  0.97452  0.15895  0.94798  1.0000
  H   H191      1.0  0.12151  0.31001  0.87599  1.0000
  H   H192      1.0  0.18821  0.08423  0.52003  1.0000
  H   H193      1.0  0.18678  0.09275  0.59986  1.0000
  C   C123      1.0  0.20291  0.08664  0.75374  1.0000
  H   H194      1.0  0.05022  0.24357  0.75564  1.0000
  C   C124      1.0  0.12738  0.30967  0.62533  1.0000
  Fe  Fe19      1.0  0.21308  0.05192  0.91310  1.0000
  H   H195      1.0  0.20692  0.23212  0.53988  1.0000
  H   H196      1.0  0.08226  0.26406  0.69242  1.0000
  H   H197      1.0  0.13127  0.28610  0.70673  1.0000
  H   H198      1.0  0.21243  0.22309  0.60229  1.0000
  H   H199      1.0  0.09792  0.24541  0.86696  1.0000
  H   H200      1.0  0.03846  0.23159  0.68583  1.0000
  H   H201      1.0  0.07757  0.24684  0.71775  1.0000
  H   H202      1.0  0.05159  0.22648  0.71064  1.0000
  H   H203      1.0  0.20551  0.23373  0.63341  1.0000
  H   H204      1.0  0.05517  0.21992  0.65467  1.0000
  C   C125      1.0  0.18983  0.08293  0.61115  1.0000
  H   H205      1.0  0.14775  0.30178  0.72486  1.0000
  C   C126      1.0  0.13968  0.28902  0.52510  1.0000
  H   H206      1.0  0.16600  0.29512  0.68320  1.0000
  H   H207      1.0  0.09473  0.27253  0.74409  1.0000
  H   H208      1.0  0.06500  0.18878  0.84260  1.0000
  H   H209      1.0  0.11158  0.21983  0.91818  1.0000
  C   C127      1.0  0.21057  0.08021  0.77590  1.0000
  H   H210      1.0  0.10439  0.19894  0.93067  1.0000
  H   H211      1.0  0.07105  0.28892  0.70148  1.0000
  S   S41       1.0  0.20212  0.99784  0.84192  1.0000
  C   C128      1.0  0.10096  0.23490  0.85769  1.0000
  H   H212      1.0  0.07685  0.26243  0.76656  1.0000
  H   H213      1.0  0.11480  0.29861  0.72640  1.0000
  C   C129      1.0  0.21164  0.10065  0.73515  1.0000
  N   N10       1.0  0.20309  0.24919  0.57513  1.0000
  H   H214      1.0  0.12246  0.28808  0.65502  1.0000
  C   C130      1.0  0.08636  0.21856  0.86237  1.0000
  H   H215      1.0  0.18311  0.23632  0.60690  1.0000
  H   H216      1.0  0.19713  0.26327  0.53861  1.0000
  H   H217      1.0  0.18732  0.07265  0.59324  1.0000
  C   C131      1.0  0.20096  0.09079  0.51798  1.0000
  C   C132      1.0  0.07463  0.20945  0.98971  1.0000
  H   H218      1.0  0.04235  0.25939  0.67452  1.0000
  C   C133      1.0  0.08168  0.26915  0.74373  1.0000
  S   S42       1.0  0.20160  0.10845  0.70772  1.0000
  H   H219      1.0  0.15400  0.27797  0.70740  1.0000
  H   H220      1.0  0.05815  0.24016  0.64092  1.0000
  C   C134      1.0  0.15358  0.28667  0.68851  1.0000
  H   H221      1.0  0.18595  0.06421  0.89023  1.0000
  S   S43       1.0  0.20067  0.05988  0.95470  1.0000
  H   H222      1.0  0.17554  0.27637  0.54166  1.0000
  H   H223      1.0  0.10789  0.29883  0.68567  1.0000
  C   C135      1.0  0.20859  0.10503  0.53740  1.0000
  C   C136      1.0  0.06529  0.30405  0.78240  1.0000
  H   H224      1.0  0.18184  0.07872  0.63262  1.0000
  H   H225      1.0  0.10495  0.18357  0.82597  1.0000
  H   H226      1.0  0.05378  0.17508  0.89252  1.0000
  H   H227      1.0  0.12828  0.28011  0.53545  1.0000
  H   H228      1.0  0.10326  0.18972  0.78572  1.0000
  C   C137      1.0  0.11498  0.30657  0.70569  1.0000
  H   H229      1.0  0.05473  0.30504  0.77287  1.0000
  H   H230      1.0  0.20172  0.10952  0.55395  1.0000
  H   H231      1.0  0.20884  0.11225  0.91702  1.0000
  C   C138      1.0  0.19710  0.23340  0.55490  1.0000
  C   C139      1.0  0.21080  0.05906  0.68197  1.0000
  H   H232      1.0  0.19248  0.11741  0.79648  1.0000
  C   C140      1.0  0.20747  0.09038  0.62083  1.0000
  H   H233      1.0  0.05582  0.28947  0.67589  1.0000
  H   H234      1.0  0.02407  0.23327  0.72944  1.0000
  H   H235      1.0  0.19016  0.08080  0.75106  1.0000
  H   H236      1.0  0.17031  0.29875  0.98069  1.0000
  H   H237      1.0  0.07957  0.28081  0.74389  1.0000
  H   H238      1.0  0.20552  0.06547  0.55785  1.0000
  N   N11       1.0  0.05726  0.25292  0.70725  1.0000
  C   C141      1.0  0.05116  0.23564  0.69257  1.0000
  C   C142      1.0  0.04808  0.25216  0.73843  1.0000
  C   C143      1.0  0.07481  0.25797  0.71382  1.0000
  C   C144      1.0  0.05477  0.26450  0.68335  1.0000
  C   C145      1.0  0.06003  0.23330  0.66167  1.0000
  C   C146      1.0  0.20457  0.07011  0.66234  1.0000
  H   H239      1.0  0.09057  0.20817  0.92332  1.0000
  C   C147      1.0  0.19490  0.26023  0.62910  1.0000
  H   H240      1.0  0.08624  0.20480  0.80547  1.0000
  C   C148      1.0  0.18791  0.29820  0.51324  1.0000
  C   C149      1.0  0.14311  0.29594  0.70105  1.0000
  H   H241      1.0  0.17359  0.23379  0.54400  1.0000
  H   H242      1.0  0.10280  0.25260  0.95929  1.0000
  H   H243      1.0  0.17855  0.07543  0.86400  1.0000
  H   H244      1.0  0.21112  0.08763  0.89732  1.0000
  Fe  Fe20      1.0  0.21248  0.02377  0.86612  1.0000
  H   H245      1.0  0.20861  0.09999  0.63990  1.0000
  H   H246      1.0  0.21259  0.11948  0.79927  1.0000
  C   C150      1.0  0.14599  0.30413  0.54837  1.0000
  C   C151      1.0  0.20762  0.26364  0.55236  1.0000
  H   H247      1.0  0.20895  0.13877  0.91550  1.0000
  C   C152      1.0  0.13298  0.29942  0.64850  1.0000
  C   C153      1.0  0.21064  0.07790  0.97857  1.0000
  H   H248      1.0  0.14729  0.29969  0.57272  1.0000
  H   H249      1.0  0.10293  0.31202  0.88228  1.0000
  H   H250      1.0  0.19728  0.13502  0.87933  1.0000
  H   H251      1.0  0.10609  0.30600  0.50330  1.0000
  H   H252      1.0  0.13774  0.31068  0.55115  1.0000
  H   H253      1.0  0.21424  0.09762  0.60002  1.0000
  C   C154      1.0  0.21433  0.28117  0.56769  1.0000
  C   C155      1.0  0.21294  0.06466  0.60790  1.0000
  H   H254      1.0  0.21351  0.04990  0.66654  1.0000
  N   N12       1.0  0.21416  0.07813  0.63251  1.0000
  Fe  Fe21      1.0  0.01668  0.54987  0.40316  1.0000
  S   S44       1.0  0.03886  0.56321  0.37310  1.0000
  S   S45       1.0  0.99166  0.54922  0.39727  1.0000
  Fe  Fe22      1.0  0.03422  0.53822  0.45303  1.0000
  S   S46       1.0  0.05750  0.55007  0.42632  1.0000
  H   H255      1.0  0.97620  0.38865  0.10439  1.0000
  Fe  Fe23      1.0  0.05134  0.57260  0.42049  1.0000
  S   S47       1.0  0.07286  0.59685  0.43174  1.0000
  Fe  Fe24      1.0  0.04366  0.54003  0.38080  1.0000
  S   S48       1.0  0.05552  0.53010  0.34096  1.0000
  S   S49       1.0  0.02873  0.56118  0.44977  1.0000
  S   S50       1.0  0.02079  0.52624  0.40807  1.0000
  Fe  Fe25      1.0  0.11827  0.39057  0.21693  1.0000
  S   S51       1.0  0.11984  0.37195  0.17934  1.0000
  S   S52       1.0  0.11196  0.41320  0.20627  1.0000
  Fe  Fe26      1.0  0.13343  0.37677  0.26962  1.0000
  S   S53       1.0  0.13582  0.35744  0.23599  1.0000
  S   S54       1.0  0.13910  0.37663  0.32313  1.0000
  Fe  Fe27      1.0  0.14423  0.37721  0.19841  1.0000
  S   S55       1.0  0.16679  0.37849  0.17170  1.0000
  Fe  Fe28      1.0  0.11132  0.35345  0.21992  1.0000
  S   S56       1.0  0.09549  0.32646  0.21136  1.0000
  S   S57       1.0  0.14361  0.39715  0.23335  1.0000
  S   S58       1.0  0.10803  0.37154  0.25613  1.0000
  Fe  Fe29      1.0  0.01430  0.45143  0.12269  1.0000
  S   S59       1.0  0.03780  0.45194  0.10381  1.0000
  S   S60       1.0  0.99349  0.44202  0.08830  1.0000
  Fe  Fe30      1.0  0.02931  0.47051  0.18464  1.0000
  S   S61       1.0  0.05406  0.47277  0.16984  1.0000
  S   S62       1.0  0.01988  0.47655  0.23260  1.0000
  Fe  Fe31      1.0  0.04736  0.47864  0.12032  1.0000
  S   S63       1.0  0.06355  0.49735  0.08449  1.0000
  Fe  Fe32      1.0  0.04251  0.44589  0.15430  1.0000
  S   S64       1.0  0.04861  0.42327  0.16529  1.0000
  S   S65       1.0  0.02362  0.47843  0.13659  1.0000
  S   S66       1.0  0.01801  0.44331  0.17181  1.0000
  S   S67       1.0  0.19487  0.36724  0.47210  1.0000
  H   H256      1.0  0.16759  0.41655  0.12020  1.0000
  C   C156      1.0  0.18176  0.33846  0.08566  1.0000
  C   C157      1.0  0.15793  0.37930  0.33887  1.0000
  C   C158      1.0  0.15932  0.37780  0.37240  1.0000
  C   C159      1.0  0.17406  0.37990  0.38597  1.0000
  C   C160      1.0  0.18764  0.38379  0.36614  1.0000
  C   C161      1.0  0.18621  0.38515  0.33258  1.0000
  C   C162      1.0  0.17142  0.38281  0.31896  1.0000
  H   H257      1.0  0.14897  0.37517  0.38802  1.0000
  H   H258      1.0  0.17500  0.37892  0.41182  1.0000
  H   H259      1.0  0.06664  0.54853  0.49145  1.0000
  H   H260      1.0  0.17052  0.38398  0.29313  1.0000
  C   C163      1.0  0.17812  0.38548  0.06291  1.0000
  C   C164      1.0  0.18926  0.38419  0.08427  1.0000
  C   C165      1.0  0.18548  0.38175  0.11745  1.0000
  C   C166      1.0  0.17045  0.38027  0.12949  1.0000
  C   C167      1.0  0.15903  0.38075  0.10794  1.0000
  C   C168      1.0  0.16295  0.38363  0.07483  1.0000
  C   C169      1.0  0.14341  0.33069  0.11144  1.0000
  H   H261      1.0  0.19434  0.38128  0.13397  1.0000
  H   H262      1.0  0.14729  0.37912  0.11689  1.0000
  H   H263      1.0  0.07371  0.51268  0.02226  1.0000
  C   C170      1.0  0.06642  0.42084  0.17662  1.0000
  C   C171      1.0  0.06584  0.40479  0.18287  1.0000
  C   C172      1.0  0.07958  0.40217  0.19192  1.0000
  C   C173      1.0  0.09413  0.41562  0.19503  1.0000
  C   C174      1.0  0.09468  0.43169  0.18895  1.0000
  C   C175      1.0  0.08098  0.43429  0.17962  1.0000
  H   H264      1.0  0.05468  0.39426  0.18069  1.0000
  H   H265      1.0  0.07889  0.38975  0.19657  1.0000
  H   H266      1.0  0.10580  0.44223  0.19138  1.0000
  H   H267      1.0  0.08172  0.44668  0.17460  1.0000
  H   H268      1.0  0.14633  0.45444  0.20494  1.0000
  C   C176      1.0  0.03544  0.51935  0.04793  1.0000
  C   C177      1.0  0.04172  0.51078  0.06835  1.0000
  C   C178      1.0  0.05547  0.50820  0.05916  1.0000
  C   C179      1.0  0.06301  0.51454  0.02947  1.0000
  C   C180      1.0  0.01634  0.47851  0.48651  1.0000
  H   H269      1.0  0.02484  0.52134  0.05551  1.0000
  H   H270      1.0  0.03599  0.50631  0.09137  1.0000
  H   H271      1.0  0.97419  0.50604  0.45476  1.0000
  H   H272      1.0  0.17854  0.34508  0.10606  1.0000
  C   C181      1.0  0.04513  0.51607  0.30992  1.0000
  C   C182      1.0  0.05351  0.51435  0.28194  1.0000
  C   C183      1.0  0.04582  0.50279  0.25737  1.0000
  C   C184      1.0  0.02976  0.49251  0.26101  1.0000
  C   C185      1.0  0.02138  0.49425  0.28893  1.0000
  C   C186      1.0  0.02897  0.50608  0.31314  1.0000
  H   H273      1.0  0.06600  0.52210  0.27923  1.0000
  H   H274      1.0  0.05233  0.50179  0.23575  1.0000
  H   H275      1.0  0.00894  0.48638  0.29192  1.0000
  H   H276      1.0  0.02240  0.50726  0.33456  1.0000
  C   C187      1.0  0.07654  0.61838  0.43768  1.0000
  C   C188      1.0  0.09219  0.62959  0.44391  1.0000
  H   H277      1.0  0.01521  0.48062  0.05064  1.0000
  C   C189      1.0  0.06448  0.62458  0.43698  1.0000
  H   H278      1.0  0.08013  0.43628  0.28282  1.0000
  H   H279      1.0  0.98213  0.50971  0.02747  1.0000
  H   H280      1.0  0.05238  0.61619  0.43234  1.0000
  C   C190      1.0  0.05658  0.52294  0.00873  1.0000
  H   H281      1.0  0.15171  0.34389  0.11334  1.0000
  C   C191      1.0  0.15382  0.43726  0.17706  1.0000
  H   H282      1.0  0.00685  0.40730  0.03618  1.0000
  H   H283      1.0  0.07462  0.46381  0.21597  1.0000
  C   C192      1.0  0.01620  0.41504  0.05297  1.0000
  H   H284      1.0  0.98004  0.42148  0.14506  1.0000
  Fe  Fe33      1.0  0.21148  0.35382  0.47579  1.0000
  C   C193      1.0  0.98222  0.52515  0.34877  1.0000
  C   C194      1.0  0.97766  0.53444  0.37198  1.0000
  C   C195      1.0  0.09573  0.64668  0.44953  1.0000
  H   H285      1.0  0.02825  0.36504  0.11157  1.0000
  H   H286      1.0  0.99459  0.52679  0.34629  1.0000
  H   H287      1.0  0.13243  0.34638  0.35548  1.0000
  H   H288      1.0  0.06104  0.42210  0.27178  1.0000
  H   H289      1.0  0.08732  0.46710  0.25097  1.0000
  H   H290      1.0  0.08614  0.48419  0.22997  1.0000
  H   H291      1.0  0.13275  0.44412  0.17415  1.0000
  H   H292      1.0  0.10594  0.34363  0.33750  1.0000
  H   H293      1.0  0.13931  0.32775  0.08629  1.0000
  H   H294      1.0  0.01914  0.41554  0.13147  1.0000
  H   H295      1.0  0.08536  0.33513  0.27395  1.0000
  H   H296      1.0  0.02831  0.48195  0.49697  1.0000
  H   H297      1.0  0.10169  0.61091  0.06900  1.0000
  N   N13       1.0  0.07888  0.58518  0.03279  1.0000
  H   H298      1.0  0.03352  0.41266  0.08505  1.0000
  H   H299      1.0  0.13141  0.34017  0.29927  1.0000
  C   C196      1.0  0.08122  0.57817  0.06454  1.0000
  H   H300      1.0  0.00719  0.39523  0.17218  1.0000
  C   C197      1.0  0.09253  0.56881  0.99880  1.0000
  H   H301      1.0  0.11089  0.32823  0.29862  1.0000
  H   H302      1.0  0.17831  0.46206  0.14555  1.0000
  C   C198      1.0  0.08022  0.60284  0.03859  1.0000
  C   C199      1.0  0.99889  0.39746  0.15537  1.0000
  H   H303      1.0  0.09412  0.58250  0.06993  1.0000
  H   H304      1.0  0.07580  0.58298  0.08476  1.0000
  H   H305      1.0  0.18594  0.44924  0.12069  1.0000
  C   C200      1.0  0.00771  0.40565  0.12402  1.0000
  H   H306      1.0  0.01135  0.46087  0.03061  1.0000
  H   H307      1.0  0.05788  0.57985  0.49208  1.0000
  H   H308      1.0  0.98873  0.38563  0.15057  1.0000
  H   H309      1.0  0.15577  0.34405  0.35054  1.0000
  H   H310      1.0  0.06077  0.56269  0.01300  1.0000
  H   H311      1.0  0.17335  0.42081  0.19339  1.0000
  C   C201      1.0  0.15398  0.33352  0.33350  1.0000
  H   H312      1.0  0.07693  0.60785  0.01656  1.0000
  H   H313      1.0  0.15988  0.31457  0.48766  1.0000
  H   H314      1.0  0.03048  0.47719  0.02763  1.0000
  H   H315      1.0  0.08176  0.55518  0.08328  1.0000
  H   H316      1.0  0.04912  0.57233  0.06480  1.0000
  H   H317      1.0  0.19228  0.33572  0.09203  1.0000
  C   C202      1.0  0.07398  0.55903  0.06781  1.0000
  H   H318      1.0  0.15963  0.32711  0.14392  1.0000
  H   H319      1.0  0.07217  0.43913  0.24579  1.0000
  H   H320      1.0  0.10515  0.61903  0.02809  1.0000
  H   H321      1.0  0.97084  0.48832  0.03760  1.0000
  H   H322      1.0  0.13484  0.31624  0.49804  1.0000
  H   H323      1.0  0.01741  0.48859  0.46942  1.0000
  H   H324      1.0  0.03587  0.38064  0.08174  1.0000
  H   H325      1.0  0.16420  0.32974  0.33662  1.0000
  H   H326      1.0  0.01201  0.42340  0.06747  1.0000
  H   H327      1.0  0.16033  0.43586  0.09412  1.0000
  C   C203      1.0  0.01752  0.47452  0.02844  1.0000
  H   H328      1.0  0.17958  0.31803  0.13345  1.0000
  C   C204      1.0  0.09665  0.61548  0.04895  1.0000
  C   C205      1.0  0.16314  0.41814  0.14489  1.0000
  H   H329      1.0  0.18550  0.34706  0.06483  1.0000
  H   H330      1.0  0.16605  0.44422  0.18571  1.0000
  C   C206      1.0  0.06275  0.57577  0.01853  1.0000
  N   N14       1.0  0.01079  0.39406  0.09967  1.0000
  C   C207      1.0  0.01911  0.38466  0.11703  1.0000
  H   H331      1.0  0.02962  0.39340  0.13028  1.0000
  C   C208      1.0  0.02214  0.40428  0.07390  1.0000
  C   C209      1.0  0.99570  0.38177  0.08494  1.0000
  C   C210      1.0  0.02494  0.37331  0.09569  1.0000
  C   C211      1.0  0.98491  0.46331  0.00617  1.0000
  H   H332      1.0  0.10359  0.59332  0.01693  1.0000
  H   H333      1.0  0.98465  0.46217  0.03305  1.0000
  C   C212      1.0  0.12469  0.31634  0.27452  1.0000
  H   H334      1.0  0.01115  0.37645  0.13579  1.0000
  C   C213      1.0  0.17747  0.42314  0.16777  1.0000
  C   C214      1.0  0.15088  0.31919  0.12599  1.0000
  H   H335      1.0  0.10164  0.62497  0.44468  1.0000
  N   N15       1.0  0.12320  0.32130  0.33623  1.0000
  H   H336      1.0  0.99828  0.37748  0.06069  1.0000
  H   H337      1.0  0.99067  0.37028  0.09961  1.0000
  H   H338      1.0  0.13284  0.32990  0.12641  1.0000
  C   C215      1.0  0.04841  0.57563  0.03932  1.0000
  H   H339      1.0  0.01566  0.36527  0.07910  1.0000
  H   H340      1.0  0.17984  0.46415  0.10260  1.0000
  H   H341      1.0  0.13679  0.31614  0.27378  1.0000
  C   C216      1.0  0.16009  0.44198  0.11793  1.0000
  H   H342      1.0  0.08702  0.55470  0.47954  1.0000
  H   H343      1.0  0.96527  0.42927  0.05106  1.0000
  H   H344      1.0  0.99421  0.40600  0.16820  1.0000
  H   H345      1.0  0.02625  0.42316  0.03764  1.0000
  H   H346      1.0  0.12456  0.33116  0.38528  1.0000
  H   H347      1.0  0.07239  0.31794  0.32152  1.0000
  H   H348      1.0  0.04711  0.58776  0.03838  1.0000
  C   C217      1.0  0.13403  0.40916  0.10378  1.0000
  C   C218      1.0  0.06802  0.64168  0.44249  1.0000
  C   C219      1.0  0.97454  0.42675  0.09726  1.0000
  H   H349      1.0  0.99684  0.49062  0.04446  1.0000
  H   H350      1.0  0.15987  0.32647  0.06079  1.0000
  H   H351      1.0  0.20098  0.38562  0.07541  1.0000
  N   N16       1.0  0.05362  0.45538  0.27227  1.0000
  C   C220      1.0  0.04173  0.45886  0.29434  1.0000
  C   C221      1.0  0.04454  0.44567  0.24355  1.0000
  C   C222      1.0  0.06556  0.47185  0.26082  1.0000
  C   C223      1.0  0.06157  0.44609  0.29103  1.0000
  C   C224      1.0  0.04859  0.47073  0.32333  1.0000
  C   C225      1.0  0.03089  0.42900  0.25136  1.0000
  C   C226      1.0  0.07903  0.47136  0.23814  1.0000
  C   C227      1.0  0.06896  0.43546  0.27117  1.0000
  H   H352      1.0  0.03448  0.46414  0.28049  1.0000
  H   H353      1.0  0.03305  0.44716  0.30482  1.0000
  H   H354      1.0  0.05233  0.44298  0.22532  1.0000
  H   H355      1.0  0.03919  0.45322  0.23033  1.0000
  H   H356      1.0  0.05936  0.47875  0.24819  1.0000
  H   H357      1.0  0.07176  0.47986  0.28153  1.0000
  H   H358      1.0  0.07107  0.45487  0.30652  1.0000
  H   H359      1.0  0.05283  0.43734  0.30806  1.0000
  H   H360      1.0  0.05422  0.48385  0.31550  1.0000
  H   H361      1.0  0.03868  0.47022  0.34007  1.0000
  H   H362      1.0  0.05712  0.46733  0.33727  1.0000
  H   H363      1.0  0.03454  0.42133  0.26791  1.0000
  H   H364      1.0  0.02040  0.43100  0.26175  1.0000
  H   H365      1.0  0.02698  0.42176  0.22850  1.0000
  H   H366      1.0  0.02537  0.39624  0.05627  1.0000
  C   C228      1.0  0.98181  0.38760  0.08080  1.0000
  H   H367      1.0  0.07272  0.55194  0.04497  1.0000
  S   S68       1.0  0.20190  0.32572  0.47594  1.0000
  C   C229      1.0  0.10723  0.33789  0.36042  1.0000
  H   H368      1.0  0.13171  0.40892  0.15579  1.0000
  H   H369      1.0  0.06231  0.55485  0.08078  1.0000
  H   H370      1.0  0.03733  0.56622  0.02919  1.0000
  H   H371      1.0  0.15473  0.33789  0.30829  1.0000
  H   H372      1.0  0.13926  0.31518  0.36635  1.0000
  H   H373      1.0  0.12169  0.39966  0.10342  1.0000
  C   C230      1.0  0.14557  0.44978  0.17955  1.0000
  C   C231      1.0  0.97108  0.41834  0.12666  1.0000
  H   H374      1.0  0.07166  0.60339  0.05781  1.0000
  C   C232      1.0  0.08590  0.31447  0.24523  1.0000
  C   C233      1.0  0.19214  0.31629  0.00032  1.0000
  C   C234      1.0  0.97948  0.49661  0.01995  1.0000
  H   H375      1.0  0.19662  0.38818  0.31702  1.0000
  H   H376      1.0  0.15150  0.46075  0.16408  1.0000
  H   H377      1.0  0.00093  0.41248  0.11351  1.0000
  H   H378      1.0  0.18580  0.43618  0.16536  1.0000
  H   H379      1.0  0.15422  0.38444  0.05835  1.0000
  H   H380      1.0  0.09223  0.64426  0.30715  1.0000
  S   S69       1.0  0.18307  0.39030  0.02170  1.0000
  H   H381      1.0  0.05584  0.51747  0.49317  1.0000
  H   H382      1.0  0.12905  0.42568  0.13677  1.0000
  H   H383      1.0  0.15199  0.44869  0.11487  1.0000
  C   C235      1.0  0.97083  0.51412  0.32792  1.0000
  H   H384      1.0  0.10798  0.34710  0.37995  1.0000
  H   H385      1.0  0.13514  0.41772  0.08353  1.0000
  C   C236      1.0  0.04270  0.52531  0.01793  1.0000
  H   H386      1.0  0.14216  0.40261  0.09928  1.0000
  C   C237      1.0  0.09153  0.58558  0.00815  1.0000
  H   H387      1.0  0.09540  0.62709  0.05755  1.0000
  C   C238      1.0  0.13838  0.31856  0.34089  1.0000
  C   C239      1.0  0.20355  0.31942  0.02425  1.0000
  C   C240      1.0  0.12252  0.32730  0.30257  1.0000
  C   C241      1.0  0.13677  0.41845  0.13671  1.0000
  H   H388      1.0  0.14811  0.42751  0.19547  1.0000
  C   C242      1.0  0.08689  0.64302  0.33180  1.0000
  H   H389      1.0  0.15537  0.40536  0.15257  1.0000
  H   H390      1.0  0.18431  0.41521  0.16225  1.0000
  C   C243      1.0  0.08239  0.32188  0.27311  1.0000
  H   H391      1.0  0.97456  0.50735  0.30940  1.0000
  S   S70       1.0  0.20669  0.38758  0.38214  1.0000
  H   H392      1.0  0.01297  0.46688  0.47205  1.0000
  N   N17       1.0  0.15382  0.42929  0.14422  1.0000
  H   H393      1.0  0.08321  0.57999  0.48659  1.0000
  H   H394      1.0  0.98524  0.39952  0.06806  1.0000
  H   H395      1.0  0.00503  0.50575  0.01512  1.0000
  H   H396      1.0  0.17261  0.31571  0.05793  1.0000
  C   C244      1.0  0.17702  0.45501  0.12245  1.0000
  H   H397      1.0  0.09637  0.32672  0.36523  1.0000
  H   H398      1.0  0.08119  0.62953  0.33698  1.0000
  H   H399      1.0  0.05855  0.64627  0.44194  1.0000
  H   H400      1.0  0.09694  0.56374  0.01913  1.0000
  C   C245      1.0  0.16776  0.32249  0.07545  1.0000
  H   H401      1.0  0.12305  0.32154  0.25120  1.0000
  Fe  Fe34      1.0  0.21189  0.38205  0.43338  1.0000
  H   H402      1.0  0.10723  0.64423  0.35832  1.0000
  C   C246      1.0  0.99509  0.49358  0.01916  1.0000
  C   C247      1.0  0.12258  0.33430  0.36024  1.0000
  H   H403      1.0  0.97237  0.37817  0.06632  1.0000
  Fe  Fe35      1.0  0.02766  0.56388  0.89561  1.0000
  S   S71       1.0  0.05134  0.57992  0.87367  1.0000
  S   S72       1.0  0.00468  0.56356  0.87494  1.0000
  Fe  Fe36      1.0  0.04272  0.55038  0.94733  1.0000
  S   S73       1.0  0.06757  0.56495  0.92888  1.0000
  C   C248      1.0  0.08248  0.57328  0.50961  1.0000
  Fe  Fe37      1.0  0.06005  0.58676  0.92465  1.0000
  S   S74       1.0  0.07441  0.61173  0.95038  1.0000
  Fe  Fe38      1.0  0.05706  0.55712  0.87920  1.0000
  S   S75       1.0  0.06891  0.54948  0.83621  1.0000
  S   S76       1.0  0.03569  0.57243  0.94605  1.0000
  S   S77       1.0  0.03292  0.54086  0.89807  1.0000
  Fe  Fe39      1.0  0.12091  0.38718  0.72650  1.0000
  S   S78       1.0  0.11372  0.36134  0.70448  1.0000
  S   S79       1.0  0.11164  0.40817  0.72114  1.0000
  Fe  Fe40      1.0  0.15085  0.38548  0.75681  1.0000
  S   S80       1.0  0.14618  0.36017  0.73636  1.0000
  S   S81       1.0  0.17082  0.39995  0.79086  1.0000
  Fe  Fe41      1.0  0.13962  0.36903  0.69048  1.0000
  S   S82       1.0  0.14486  0.35916  0.64195  1.0000
  Fe  Fe42      1.0  0.12079  0.35407  0.75200  1.0000
  C   C249      1.0  0.16881  0.33011  0.69557  1.0000
  S   S83       1.0  0.14649  0.39516  0.70931  1.0000
  S   S84       1.0  0.12590  0.37912  0.77534  1.0000
  Fe  Fe43      1.0  0.01552  0.45425  0.65692  1.0000
  S   S85       1.0  0.03453  0.45095  0.62530  1.0000
  S   S86       1.0  0.99042  0.45058  0.64276  1.0000
  Fe  Fe44      1.0  0.03922  0.47289  0.70975  1.0000
  S   S87       1.0  0.06024  0.47154  0.68149  1.0000
  S   S88       1.0  0.03731  0.47993  0.76272  1.0000
  Fe  Fe45      1.0  0.04887  0.47766  0.63795  1.0000
  S   S89       1.0  0.06258  0.49428  0.59669  1.0000
  Fe  Fe46      1.0  0.04450  0.44495  0.67087  1.0000
  S   S90       1.0  0.05101  0.42199  0.67466  1.0000
  S   S91       1.0  0.02944  0.48134  0.66734  1.0000
  S   S92       1.0  0.02393  0.44592  0.70128  1.0000
  S   S93       1.0  0.19602  0.35946  0.97546  1.0000
  N   N18       1.0  0.07071  0.57611  0.53289  1.0000
  Fe  Fe47      1.0  0.21114  0.37243  0.93294  1.0000
  C   C250      1.0  0.17968  0.38982  0.81591  1.0000
  C   C251      1.0  0.18022  0.37448  0.80707  1.0000
  C   C252      1.0  0.18755  0.36685  0.82737  1.0000
  C   C253      1.0  0.19403  0.37426  0.85701  1.0000
  C   C254      1.0  0.19338  0.38954  0.86601  1.0000
  C   C255      1.0  0.18641  0.39738  0.84531  1.0000
  H   H404      1.0  0.17519  0.36861  0.78439  1.0000
  H   H405      1.0  0.18811  0.35508  0.82016  1.0000
  H   H406      1.0  0.01525  0.47355  0.97676  1.0000
  H   H407      1.0  0.18601  0.40925  0.85229  1.0000
  C   C256      1.0  0.18890  0.38600  0.57776  1.0000
  C   C257      1.0  0.18653  0.39339  0.60695  1.0000
  C   C258      1.0  0.17333  0.38513  0.62733  1.0000
  C   C259      1.0  0.16227  0.36947  0.61845  1.0000
  C   C260      1.0  0.16473  0.36199  0.58946  1.0000
  C   C261      1.0  0.17802  0.37018  0.56925  1.0000
  H   H408      1.0  0.19489  0.40561  0.61374  1.0000
  H   H409      1.0  0.17160  0.39101  0.64961  1.0000
  H   H410      1.0  0.97642  0.46502  0.54730  1.0000
  H   H411      1.0  0.06075  0.55139  0.55297  1.0000
  C   C262      1.0  0.06811  0.41846  0.68728  1.0000
  C   C263      1.0  0.06723  0.40202  0.68943  1.0000
  C   C264      1.0  0.08037  0.39856  0.69956  1.0000
  C   C265      1.0  0.09457  0.41154  0.70801  1.0000
  C   C266      1.0  0.09548  0.42798  0.70567  1.0000
  C   C267      1.0  0.08243  0.43144  0.69511  1.0000
  H   H412      1.0  0.05626  0.39185  0.68330  1.0000
  H   H413      1.0  0.07941  0.38585  0.70120  1.0000
  H   H414      1.0  0.10644  0.43816  0.71178  1.0000
  H   H415      1.0  0.08353  0.44412  0.69259  1.0000
  C   C268      1.0  0.03852  0.51840  0.52869  1.0000
  C   C269      1.0  0.03305  0.51479  0.56080  1.0000
  C   C270      1.0  0.04036  0.50749  0.58186  1.0000
  C   C271      1.0  0.05332  0.50380  0.57105  1.0000
  C   C272      1.0  0.05909  0.50785  0.53919  1.0000
  H   H416      1.0  0.13739  0.32080  0.61641  1.0000
  H   H417      1.0  0.02295  0.51746  0.56935  1.0000
  H   H418      1.0  0.03593  0.50464  0.60643  1.0000
  H   H419      1.0  0.00330  0.50250  0.84575  1.0000
  H   H420      1.0  0.13438  0.35495  0.92215  1.0000
  C   C273      1.0  0.06005  0.53010  0.81596  1.0000
  C   C274      1.0  0.06489  0.52822  0.78405  1.0000
  C   C275      1.0  0.05803  0.51297  0.76721  1.0000
  C   C276      1.0  0.04644  0.49940  0.78244  1.0000
  C   C277      1.0  0.04186  0.50117  0.81456  1.0000
  C   C278      1.0  0.04851  0.51647  0.83117  1.0000
  H   H421      1.0  0.07390  0.53869  0.77222  1.0000
  H   H422      1.0  0.06172  0.51174  0.74254  1.0000
  H   H423      1.0  0.03299  0.49069  0.82660  1.0000
  H   H424      1.0  0.04485  0.51769  0.85585  1.0000
  C   C279      1.0  0.08578  0.63269  0.93855  1.0000
  H   H425      1.0  0.98323  0.49544  0.83050  1.0000
  H   H426      1.0  0.16397  0.33765  0.71106  1.0000
  C   C280      1.0  0.08788  0.63764  0.90620  1.0000
  H   H427      1.0  0.17193  0.32148  0.71065  1.0000
  C   C281      1.0  0.97528  0.51494  0.88183  1.0000
  H   H428      1.0  0.08260  0.62856  0.88726  1.0000
  C   C282      1.0  0.19405  0.32460  0.54097  1.0000
  H   H429      1.0  0.13923  0.37810  0.89217  1.0000
  C   C283      1.0  0.97504  0.43204  0.63009  1.0000
  C   C284      1.0  0.97626  0.41657  0.63158  1.0000
  H   H430      1.0  0.98411  0.48126  0.59975  1.0000
  H   H431      1.0  0.04447  0.63971  0.92351  1.0000
  H   H432      1.0  0.16249  0.34432  0.86486  1.0000
  H   H433      1.0  0.98703  0.41572  0.64034  1.0000
  C   C285      1.0  0.98830  0.53008  0.88572  1.0000
  C   C286      1.0  0.98800  0.54460  0.87259  1.0000
  H   H434      1.0  0.14098  0.33845  0.92512  1.0000
  N   N19       1.0  0.12727  0.40431  0.61546  1.0000
  H   H435      1.0  0.99858  0.53050  0.89877  1.0000
  C   C287      1.0  0.14292  0.34988  0.91127  1.0000
  C   C288      1.0  0.98758  0.52051  0.79050  1.0000
  H   H436      1.0  0.12300  0.42852  0.66341  1.0000
  C   C289      1.0  0.13730  0.39426  0.60828  1.0000
  C   C290      1.0  0.11973  0.40774  0.58574  1.0000
  C   C291      1.0  0.19430  0.31563  0.51267  1.0000
  H   H437      1.0  0.00036  0.50176  0.92285  1.0000
  H   H438      1.0  0.10236  0.39347  0.55001  1.0000
  H   H439      1.0  0.08141  0.32665  0.75997  1.0000
  H   H440      1.0  0.19831  0.39536  0.88878  1.0000
  H   H441      1.0  0.14090  0.38455  0.85116  1.0000
  C   C292      1.0  0.13818  0.42065  0.63006  1.0000
  C   C293      1.0  0.99138  0.44765  0.51869  1.0000
  C   C294      1.0  0.08038  0.31629  0.77506  1.0000
  N   N20       1.0  0.99617  0.48044  0.99602  1.0000
  H   H442      1.0  0.00449  0.48482  0.59226  1.0000
  H   H443      1.0  0.97400  0.55511  0.84624  1.0000
  H   H444      1.0  0.03774  0.56829  0.55491  1.0000
  H   H445      1.0  0.06916  0.50510  0.53068  1.0000
  C   C295      1.0  0.00915  0.52311  0.75047  1.0000
  H   H446      1.0  0.08102  0.54789  0.51989  1.0000
  C   C296      1.0  0.01570  0.53114  0.80849  1.0000
  H   H447      1.0  0.97571  0.50373  0.89165  1.0000
  C   C297      1.0  0.02513  0.52173  0.74120  1.0000
  C   C298      1.0  0.13222  0.31743  0.69561  1.0000
  C   C299      1.0  0.02089  0.54985  0.80278  1.0000
  C   C300      1.0  0.00211  0.50209  0.79226  1.0000
  H   H448      1.0  0.01378  0.50083  0.79025  1.0000
  H   H449      1.0  0.01037  0.53577  0.74353  1.0000
  C   C301      1.0  0.13625  0.37351  0.86702  1.0000
  C   C302      1.0  0.08150  0.56540  0.58112  1.0000
  H   H450      1.0  0.06224  0.52740  0.98560  1.0000
  H   H451      1.0  0.01104  0.52914  0.83382  1.0000
  H   H452      1.0  0.02669  0.52847  0.80842  1.0000
  H   H453      1.0  0.17973  0.36434  0.54690  1.0000
  N   N21       1.0  0.00376  0.51962  0.78531  1.0000
  H   H454      1.0  0.96656  0.45487  0.96864  1.0000
  H   H455      1.0  0.03498  0.52969  0.75671  1.0000
  H   H456      1.0  0.02428  0.50870  0.74153  1.0000
  H   H457      1.0  0.02841  0.52601  0.71595  1.0000
  H   H458      1.0  0.99263  0.54563  0.77064  1.0000
  H   H459      1.0  0.13978  0.44496  0.64746  1.0000
  C   C303      1.0  0.09285  0.64482  0.96272  1.0000
  H   H460      1.0  0.10132  0.57082  0.97860  1.0000
  H   H461      1.0  0.02991  0.55668  0.82105  1.0000
  H   H462      1.0  0.01091  0.55398  0.80651  1.0000
  C   C304      1.0  0.99303  0.48235  0.58020  1.0000
  H   H463      1.0  0.14810  0.32576  0.88015  1.0000
  C   C305      1.0  0.99531  0.49548  0.82609  1.0000
  C   C306      1.0  0.15744  0.32107  0.66801  1.0000
  C   C307      1.0  0.98351  0.53288  0.76989  1.0000
  H   H464      1.0  0.99425  0.48240  0.82774  1.0000
  H   H465      1.0  0.97222  0.53354  0.77932  1.0000
  H   H466      1.0  0.14066  0.35818  0.83037  1.0000
  N   N22       1.0  0.99947  0.46387  0.53663  1.0000
  H   H467      1.0  0.09055  0.56268  0.56637  1.0000
  H   H468      1.0  0.98357  0.45600  0.57813  1.0000
  H   H469      1.0  0.13023  0.38163  0.59903  1.0000
  S   S94       1.0  0.20314  0.36418  0.88155  1.0000
  H   H470      1.0  0.02209  0.47738  0.55911  1.0000
  H   H471      1.0  0.19897  0.33803  0.54076  1.0000
  H   H472      1.0  0.11106  0.38099  0.56885  1.0000
  H   H473      1.0  0.12316  0.36805  0.86411  1.0000
  H   H474      1.0  0.14438  0.41851  0.65146  1.0000
  H   H475      1.0  0.09137  0.64123  0.98784  1.0000
  H   H476      1.0  0.18713  0.32318  0.59144  1.0000
  C   C308      1.0  0.97436  0.54391  0.85631  1.0000
  H   H477      1.0  0.12309  0.43507  0.62202  1.0000
  C   C309      1.0  0.11364  0.39362  0.56002  1.0000
  C   C310      1.0  0.05550  0.57286  0.51512  1.0000
  H   H478      1.0  0.98919  0.45369  0.99653  1.0000
  S   S95       1.0  0.02785  0.52622  0.50282  1.0000
  H   H479      1.0  0.99473  0.47408  0.94498  1.0000
  H   H480      1.0  0.08847  0.60674  0.50005  1.0000
  N   N23       1.0  0.06886  0.45769  0.78171  1.0000
  C   C311      1.0  0.05817  0.44788  0.75486  1.0000
  C   C312      1.0  0.07795  0.47499  0.76919  1.0000
  C   C313      1.0  0.05827  0.45807  0.81030  1.0000
  C   C314      1.0  0.07968  0.44898  0.79022  1.0000
  C   C315      1.0  0.04714  0.42984  0.76282  1.0000
  C   C316      1.0  0.09059  0.47657  0.74252  1.0000
  C   C317      1.0  0.06475  0.47271  0.83457  1.0000
  C   C318      1.0  0.09269  0.45780  0.81508  1.0000
  H   H481      1.0  0.05043  0.45429  0.74692  1.0000
  H   H482      1.0  0.06513  0.44698  0.73307  1.0000
  H   H483      1.0  0.08445  0.48378  0.78855  1.0000
  H   H484      1.0  0.06958  0.48034  0.75980  1.0000
  H   H485      1.0  0.04683  0.45840  0.80197  1.0000
  H   H486      1.0  0.05483  0.44647  0.82452  1.0000
  H   H487      1.0  0.07269  0.43659  0.80061  1.0000
  H   H488      1.0  0.08537  0.44589  0.76819  1.0000
  H   H489      1.0  0.05394  0.42178  0.76552  1.0000
  H   H490      1.0  0.03945  0.42902  0.78442  1.0000
  H   H491      1.0  0.03905  0.42458  0.74215  1.0000
  H   H492      1.0  0.09611  0.48976  0.73504  1.0000
  H   H493      1.0  0.10029  0.47310  0.75134  1.0000
  H   H494      1.0  0.08550  0.46925  0.72050  1.0000
  H   H495      1.0  0.07657  0.47445  0.84385  1.0000
  H   H496      1.0  0.05645  0.47033  0.85573  1.0000
  H   H497      1.0  0.06516  0.48443  0.82375  1.0000
  H   H498      1.0  0.08813  0.45439  0.84016  1.0000
  H   H499      1.0  0.09778  0.47146  0.81301  1.0000
  H   H500      1.0  0.10290  0.45397  0.81057  1.0000
  H   H501      1.0  0.09463  0.37909  0.61233  1.0000
  H   H502      1.0  0.16155  0.41168  0.59618  1.0000
  S   S96       1.0  0.20535  0.39713  0.55232  1.0000
  H   H503      1.0  0.00909  0.49013  0.52557  1.0000
  C   C319      1.0  0.02361  0.45485  0.54054  1.0000
  H   H504      1.0  0.18009  0.33889  0.68468  1.0000
  H   H505      1.0  0.99971  0.44495  0.50167  1.0000
  H   H506      1.0  0.16905  0.35714  0.91238  1.0000
  H   H507      1.0  0.06895  0.60672  0.50941  1.0000
  S   S97       1.0  0.11335  0.32984  0.77917  1.0000
  H   H508      1.0  0.12208  0.39616  0.53908  1.0000
  C   C320      1.0  0.14399  0.36128  0.85614  1.0000
  H   H509      1.0  0.11890  0.33409  0.84604  1.0000
  H   H510      1.0  0.05876  0.56700  0.57867  1.0000
  H   H511      1.0  0.13198  0.32788  0.68091  1.0000
  H   H512      1.0  0.15704  0.36823  0.85568  1.0000
  H   H513      1.0  0.03486  0.45842  0.55410  1.0000
  C   C321      1.0  0.05164  0.51497  0.51796  1.0000
  H   H514      1.0  0.08580  0.61974  0.53159  1.0000
  C   C322      1.0  0.09405  0.31508  0.78748  1.0000
  H   H515      1.0  0.98183  0.44834  0.50309  1.0000
  H   H516      1.0  0.99321  0.47792  0.50057  1.0000
  H   H517      1.0  0.10769  0.40312  0.64761  1.0000
  H   H518      1.0  0.10794  0.36928  0.62573  1.0000
  H   H519      1.0  0.08725  0.57765  0.59327  1.0000
  C   C323      1.0  0.10248  0.37838  0.63185  1.0000
  H   H520      1.0  0.08117  0.55951  0.98996  1.0000
  C   C324      1.0  0.01374  0.46435  0.55527  1.0000
  C   C325      1.0  0.06706  0.56450  0.56117  1.0000
  H   H521      1.0  0.97782  0.50826  0.78553  1.0000
  H   H522      1.0  0.07043  0.59584  0.56558  1.0000
  H   H523      1.0  0.98584  0.52334  0.81623  1.0000
  C   C326      1.0  0.04249  0.57671  0.53414  1.0000
  H   H524      1.0  0.12062  0.39424  0.66337  1.0000
  C   C327      1.0  0.00397  0.47793  0.51293  1.0000
  H   H525      1.0  0.99439  0.49325  0.77397  1.0000
  H   H526      1.0  0.99999  0.51447  0.73412  1.0000
  H   H527      1.0  0.15601  0.33100  0.65349  1.0000
  C   C328      1.0  0.08027  0.60732  0.51986  1.0000
  C   C329      1.0  0.11483  0.39564  0.64080  1.0000
  H   H528      1.0  0.11491  0.34214  0.88316  1.0000
  C   C330      1.0  0.14658  0.32941  0.82895  1.0000
  H   H529      1.0  0.15626  0.34987  0.58241  1.0000
  H   H530      1.0  0.98145  0.52853  0.74432  1.0000
  H   H531      1.0  0.14796  0.40753  0.56286  1.0000
  N   N24       1.0  0.13966  0.34576  0.87584  1.0000
  H   H532      1.0  0.10957  0.41132  0.59284  1.0000
  H   H533      1.0  0.14244  0.39200  0.63107  1.0000
  H   H534      1.0  0.08966  0.59654  0.55575  1.0000
  H   H535      1.0  0.12840  0.41867  0.57279  1.0000
  H   H536      1.0  0.13817  0.32338  0.71840  1.0000
  H   H537      1.0  0.16074  0.36417  0.94614  1.0000
  H   H538      1.0  0.02665  0.55363  0.77875  1.0000
  C   C331      1.0  0.13032  0.43279  0.64113  1.0000
  H   H539      1.0  0.97064  0.43322  0.71008  1.0000
  H   H540      1.0  0.19349  0.32546  0.98214  1.0000
  H   H541      1.0  0.14773  0.42766  0.61252  1.0000
  H   H542      1.0  0.15541  0.39235  0.57478  1.0000
  H   H543      1.0  0.09460  0.37343  0.65330  1.0000
  C   C332      1.0  0.07775  0.59378  0.54529  1.0000
  H   H544      1.0  0.01024  0.45938  0.58015  1.0000
  H   H545      1.0  0.16293  0.37448  0.90856  1.0000
  H   H546      1.0  0.14899  0.33935  0.81093  1.0000
  C   C333      1.0  0.15990  0.36213  0.91948  1.0000
  C   C334      1.0  0.15126  0.40207  0.58407  1.0000
  H   H547      1.0  0.00194  0.51107  0.96207  1.0000
  H   H548      1.0  0.02704  0.45774  0.51492  1.0000
  H   H549      1.0  0.97388  0.49535  0.99610  1.0000
  H   H550      1.0  0.07736  0.55589  0.60037  1.0000
  C   C335      1.0  0.98364  0.43224  0.54024  1.0000
  C   C336      1.0  0.18732  0.31617  0.56962  1.0000
  H   H551      1.0  0.04653  0.58983  0.54234  1.0000
  C   C337      1.0  0.14962  0.33632  0.86395  1.0000
  H   H552      1.0  0.98074  0.48238  0.95789  1.0000
  H   H553      1.0  0.01731  0.44124  0.54304  1.0000
  C   C338      1.0  0.12216  0.33560  0.87199  1.0000
  H   H554      1.0  0.09473  0.57852  0.51938  1.0000
  H   H555      1.0  0.09001  0.59146  0.98540  1.0000
  C   C339      1.0  0.98742  0.46605  0.56008  1.0000
  H   H556      1.0  0.16384  0.31534  0.65155  1.0000
  C   C340      1.0  0.01295  0.48095  0.99714  1.0000
  Fe  Fe48      1.0  0.21159  0.38541  0.50712  1.0000
  H   H557      1.0  0.01653  0.50294  0.94756  1.0000
  H   H558      1.0  0.99104  0.43230  0.56121  1.0000
  H   H559      1.0  0.15478  0.32300  0.82303  1.0000
  H   H560      1.0  0.11726  0.31871  0.91362  1.0000
  C   C341      1.0  0.99318  0.48365  0.96149  1.0000
  H   H561      1.0  0.99388  0.49314  0.56544  1.0000
  C   C342      1.0  0.00373  0.50087  0.94821  1.0000
  C   C343      1.0  0.11588  0.31815  0.88700  1.0000
  H   H562      1.0  0.04992  0.55964  0.50757  1.0000
  H   H563      1.0  0.03229  0.57450  0.51795  1.0000
  H   H564      1.0  0.02184  0.49383  0.99395  1.0000
  H   H565      1.0  0.10884  0.31479  0.71408  1.0000
  H   H566      1.0  0.06187  0.58102  0.99464  1.0000
  H   H567      1.0  0.13431  0.32014  0.82585  1.0000
  H   H568      1.0  0.97177  0.43135  0.54941  1.0000
  H   H569      1.0  0.98169  0.42078  0.52571  1.0000
  C   C344      1.0  0.07894  0.55503  0.49986  1.0000
  S   S98       1.0  0.03336  0.53481  0.99250  1.0000
  C   C345      1.0  0.96750  0.45741  0.99512  1.0000
  H   H570      1.0  0.11817  0.31356  0.63661  1.0000
  Fe  Fe49      1.0  0.20329  0.38483  0.99798  1.0000
  Fe  Fe50      1.0  0.14082  0.90516  0.35905  1.0000
  S   S99       1.0  0.13917  0.88360  0.39073  1.0000
  S   S100      1.0  0.14979  0.93076  0.38500  1.0000
  Fe  Fe51      1.0  0.12385  0.88131  0.30313  1.0000
  S   S101      1.0  0.12121  0.85874  0.33087  1.0000
  S   S102      1.0  0.11501  0.87866  0.25137  1.0000
  Fe  Fe52      1.0  0.11423  0.87095  0.37337  1.0000
  S   S103      1.0  0.09211  0.85434  0.40101  1.0000
  Fe  Fe53      1.0  0.14627  0.87294  0.34591  1.0000
  S   S104      1.0  0.16036  0.85662  0.34886  1.0000
  S   S105      1.0  0.11504  0.89291  0.34453  1.0000
  S   S106      1.0  0.14980  0.89513  0.31517  1.0000
  Fe  Fe54      1.0  0.05792  0.81162  0.06691  1.0000
  S   S107      1.0  0.07440  0.80265  0.09333  1.0000
  H   H571      1.0  0.15892  0.88857  0.20850  1.0000
  Fe  Fe55      1.0  0.02767  0.78811  0.10227  1.0000
  S   S108      1.0  0.04195  0.77734  0.13121  1.0000
  S   S109      1.0  0.00121  0.78409  0.10816  1.0000
  Fe  Fe56      1.0  0.06000  0.80348  0.13783  1.0000
  S   S110      1.0  0.06984  0.80953  0.18890  1.0000
  Fe  Fe57      1.0  0.05537  0.77742  0.08477  1.0000
  S   S111      1.0  0.06174  0.75529  0.07267  1.0000
  S   S112      1.0  0.04487  0.81439  0.11222  1.0000
  S   S113      1.0  0.03981  0.78622  0.05494  1.0000
  Fe  Fe58      1.0  0.10920  0.69897  0.45835  1.0000
  S   S114      1.0  0.11206  0.71799  0.41979  1.0000
  H   H572      1.0  0.09073  0.79478  0.43697  1.0000
  H   H573      1.0  0.11571  0.92228  0.49485  1.0000
  S   S115      1.0  0.14272  0.74384  0.45974  1.0000
  S   S116      1.0  0.15024  0.73625  0.04422  1.0000
  Fe  Fe59      1.0  0.11623  0.73650  0.46081  1.0000
  H   H574      1.0  0.18662  0.75692  0.28737  1.0000
  Fe  Fe60      1.0  0.13825  0.72369  0.42213  1.0000
  S   S117      1.0  0.15383  0.72472  0.37775  1.0000
  H   H575      1.0  0.09948  0.92623  0.48137  1.0000
  S   S118      1.0  0.13528  0.70362  0.45823  1.0000
  H   H576      1.0  0.16799  0.86673  0.22327  1.0000
  H   H577      1.0  0.14195  0.91074  0.44711  1.0000
  N   N25       1.0  0.10924  0.66969  0.35302  1.0000
  S   S119      1.0  0.18934  0.81058  0.21471  1.0000
  C   C346      1.0  0.16232  0.74283  0.35404  1.0000
  C   C347      1.0  0.17176  0.74267  0.32668  1.0000
  C   C348      1.0  0.17927  0.75712  0.30820  1.0000
  C   C349      1.0  0.17749  0.77188  0.31720  1.0000
  C   C350      1.0  0.16795  0.77195  0.34443  1.0000
  C   C351      1.0  0.16029  0.75749  0.36260  1.0000
  H   H578      1.0  0.17340  0.73138  0.31987  1.0000
  H   H579      1.0  0.17127  0.84516  0.17511  1.0000
  H   H580      1.0  0.16649  0.78330  0.35151  1.0000
  H   H581      1.0  0.15297  0.75776  0.38341  1.0000
  C   C352      1.0  0.16330  0.75390  0.06569  1.0000
  C   C353      1.0  0.16625  0.75241  0.09854  1.0000
  C   C354      1.0  0.17604  0.76629  0.11678  1.0000
  C   C355      1.0  0.18303  0.78183  0.10224  1.0000
  C   C356      1.0  0.18003  0.78330  0.06942  1.0000
  C   C357      1.0  0.17022  0.76945  0.05123  1.0000
  H   H582      1.0  0.16096  0.74043  0.10995  1.0000
  H   H583      1.0  0.18540  0.79526  0.05794  1.0000
  H   H584      1.0  0.16808  0.77081  0.02603  1.0000
  C   C358      1.0  0.15645  0.86279  0.21054  1.0000
  H   H585      1.0  0.12852  0.80546  0.35406  1.0000
  Fe  Fe61      1.0  0.20999  0.83452  0.22195  1.0000
  C   C359      1.0  0.98299  0.76664  0.11445  1.0000
  C   C360      1.0  0.11793  0.67684  0.38379  1.0000
  C   C361      1.0  0.98247  0.75067  0.12020  1.0000
  Fe  Fe62      1.0  0.20157  0.80008  0.24968  1.0000
  H   H586      1.0  0.99341  0.74854  0.12028  1.0000
  C   C362      1.0  0.07358  0.75665  0.03778  1.0000
  C   C363      1.0  0.07764  0.74315  0.02884  1.0000
  C   C364      1.0  0.08547  0.67772  0.36985  1.0000
  H   H587      1.0  0.18200  0.72116  0.44339  1.0000
  C   C365      1.0  0.13364  0.68889  0.31988  1.0000
  C   C366      1.0  0.07930  0.77107  0.01930  1.0000
  H   H588      1.0  0.07324  0.73199  0.04313  1.0000
  C   C367      1.0  0.08365  0.65288  0.44877  1.0000
  H   H589      1.0  0.14672  0.82761  0.39859  1.0000
  H   H590      1.0  0.12366  0.65584  0.40017  1.0000
  C   C368      1.0  0.19435  0.85832  0.26433  1.0000
  C   C369      1.0  0.18852  0.84450  0.28445  1.0000
  C   C370      1.0  0.17837  0.84426  0.31074  1.0000
  C   C371      1.0  0.17379  0.85770  0.31677  1.0000
  C   C372      1.0  0.17975  0.87159  0.29684  1.0000
  C   C373      1.0  0.19012  0.87195  0.27087  1.0000
  C   C374      1.0  0.14053  0.84616  0.25524  1.0000
  H   H591      1.0  0.17385  0.83349  0.32609  1.0000
  H   H592      1.0  0.17642  0.88208  0.30152  1.0000
  C   C375      1.0  0.10195  0.85951  0.23450  1.0000
  C   C376      1.0  0.09808  0.85862  0.20155  1.0000
  C   C377      1.0  0.08815  0.84348  0.18714  1.0000
  C   C378      1.0  0.08194  0.82909  0.20566  1.0000
  C   C379      1.0  0.08567  0.83003  0.23865  1.0000
  C   C380      1.0  0.09564  0.84512  0.25299  1.0000
  H   H593      1.0  0.10288  0.86968  0.18703  1.0000
  H   H594      1.0  0.08537  0.84294  0.16171  1.0000
  H   H595      1.0  0.08091  0.81898  0.25320  1.0000
  H   H596      1.0  0.09835  0.84561  0.27838  1.0000
  C   C381      1.0  0.09053  0.84909  0.44240  1.0000
  C   C382      1.0  0.19275  0.74565  0.46744  1.0000
  H   H597      1.0  0.13320  0.74656  0.09774  1.0000
  H   H598      1.0  0.17466  0.75589  0.42123  1.0000
  H   H599      1.0  0.07631  0.78157  0.02625  1.0000
  C   C383      1.0  0.10349  0.85546  0.46304  1.0000
  C   C384      1.0  0.08123  0.83574  0.00276  1.0000
  H   H600      1.0  0.19170  0.83390  0.27964  1.0000
  C   C385      1.0  0.07573  0.83847  0.45499  1.0000
  H   H601      1.0  0.11499  0.86333  0.45347  1.0000
  C   C386      1.0  0.17033  0.95615  0.34550  1.0000
  C   C387      1.0  0.16331  0.95150  0.37613  1.0000
  C   C388      1.0  0.16685  0.96377  0.40076  1.0000
  H   H602      1.0  0.16776  0.94695  0.32624  1.0000
  H   H603      1.0  0.13875  0.76786  0.15171  1.0000
  N   N26       1.0  0.01510  0.80211  0.20682  1.0000
  C   C389      1.0  0.00209  0.78569  0.19793  1.0000
  C   C390      1.0  0.03042  0.79929  0.20756  1.0000
  C   C391      1.0  0.01616  0.81416  0.18032  1.0000
  C   C392      1.0  0.01086  0.80802  0.23899  1.0000
  H   H604      1.0  0.10629  0.69266  0.34368  1.0000
  C   C393      1.0  0.03052  0.78562  0.23052  1.0000
  C   C394      1.0  0.02973  0.83142  0.18231  1.0000
  C   C395      1.0  0.02473  0.82035  0.25895  1.0000
  H   H605      1.0  0.00549  0.78025  0.17572  1.0000
  H   H606      1.0  0.00027  0.77639  0.21721  1.0000
  H   H607      1.0  0.04066  0.81067  0.21429  1.0000
  H   H608      1.0  0.03356  0.79605  0.18287  1.0000
  H   H609      1.0  0.01735  0.80869  0.15629  1.0000
  H   H610      1.0  0.00506  0.81661  0.17929  1.0000
  H   H611      1.0  0.00201  0.81381  0.23568  1.0000
  H   H612      1.0  0.00490  0.79720  0.25505  1.0000
  C   C396      1.0  0.07379  0.83447  0.48808  1.0000
  H   H613      1.0  0.13143  0.91035  0.48384  1.0000
  C   C397      1.0  0.98551  0.78602  0.19221  1.0000
  H   H614      1.0  0.02567  0.78670  0.25489  1.0000
  H   H615      1.0  0.02388  0.77308  0.22009  1.0000
  H   H616      1.0  0.04299  0.78668  0.23341  1.0000
  H   H617      1.0  0.17427  0.72239  0.48307  1.0000
  C   C398      1.0  0.08738  0.74404  0.00152  1.0000
  H   H618      1.0  0.02786  0.83888  0.20284  1.0000
  H   H619      1.0  0.02043  0.82902  0.27245  1.0000
  H   H620      1.0  0.03530  0.82816  0.24485  1.0000
  H   H621      1.0  0.02840  0.81369  0.27779  1.0000
  H   H622      1.0  0.18881  0.74004  0.40253  1.0000
  H   H623      1.0  0.12777  0.78146  0.15128  1.0000
  S   S120      1.0  0.08731  0.67438  0.45504  1.0000
  H   H624      1.0  0.12119  0.90912  0.41696  1.0000
  H   H625      1.0  0.12652  0.81932  0.26304  1.0000
  H   H626      1.0  0.09125  0.88654  0.39735  1.0000
  H   H627      1.0  0.18955  0.75066  0.49038  1.0000
  H   H628      1.0  0.16565  0.83940  0.23323  1.0000
  H   H629      1.0  0.14901  0.78964  0.14749  1.0000
  H   H630      1.0  0.02206  0.72516  0.49445  1.0000
  H   H631      1.0  0.08957  0.68785  0.38826  1.0000
  S   S121      1.0  0.10826  0.75815  0.46348  1.0000
  H   H632      1.0  0.12794  0.77858  0.00979  1.0000
  H   H633      1.0  0.97677  0.77304  0.18922  1.0000
  C   C399      1.0  0.13072  0.90374  0.46056  1.0000
  H   H634      1.0  0.10710  0.79186  0.39998  1.0000
  H   H635      1.0  0.11098  0.82027  0.22136  1.0000
  H   H636      1.0  0.17825  0.76496  0.14196  1.0000
  H   H637      1.0  0.14352  0.81964  0.43856  1.0000
  H   H638      1.0  0.13896  0.87434  0.20308  1.0000
  H   H639      1.0  0.13500  0.84232  0.17254  1.0000
  N   N27       1.0  0.19732  0.75851  0.44110  1.0000
  H   H640      1.0  0.14291  0.78746  0.03944  1.0000
  Fe  Fe63      1.0  0.20436  0.80516  0.17569  1.0000
  H   H641      1.0  0.16840  0.73156  0.45002  1.0000
  C   C400      1.0  0.09897  0.67914  0.34523  1.0000
  N   N28       1.0  0.12238  0.76443  0.08989  1.0000
  C   C401      1.0  0.12353  0.76416  0.05339  1.0000
  C   C402      1.0  0.10739  0.76656  0.10133  1.0000
  C   C403      1.0  0.10888  0.73231  0.08582  1.0000
  C   C404      1.0  0.12989  0.78098  0.03614  1.0000
  C   C405      1.0  0.10641  0.78365  0.09678  1.0000
  H   H642      1.0  0.13939  0.79007  0.09441  1.0000
  H   H643      1.0  0.13153  0.75780  0.04512  1.0000
  H   H644      1.0  0.11174  0.75681  0.04296  1.0000
  H   H645      1.0  0.09688  0.75754  0.08870  1.0000
  H   H646      1.0  0.10466  0.76321  0.12726  1.0000
  H   H647      1.0  0.09668  0.73210  0.08897  1.0000
  H   H648      1.0  0.11152  0.73111  0.05974  1.0000
  H   H649      1.0  0.09327  0.64911  0.38172  1.0000
  H   H650      1.0  0.08134  0.89487  0.48166  1.0000
  H   H651      1.0  0.12445  0.69053  0.38212  1.0000
  H   H652      1.0  0.10094  0.78412  0.07327  1.0000
  H   H653      1.0  0.11786  0.79431  0.09889  1.0000
  H   H654      1.0  0.09870  0.78568  0.11630  1.0000
  N   N29       1.0  0.12189  0.81734  0.41403  1.0000
  C   C406      1.0  0.13935  0.82657  0.42096  1.0000
  C   C407      1.0  0.11968  0.79978  0.40464  1.0000
  C   C408      1.0  0.11271  0.81713  0.44501  1.0000
  C   C409      1.0  0.11729  0.82636  0.38772  1.0000
  H   H655      1.0  0.13085  0.89138  0.46586  1.0000
  H   H656      1.0  0.10073  0.91746  0.40893  1.0000
  H   H657      1.0  0.09376  0.67585  0.32070  1.0000
  C   C410      1.0  0.10245  0.81624  0.36766  1.0000
  S   S122      1.0  0.20632  0.85850  0.23015  1.0000
  H   H658      1.0  0.19520  0.78466  0.40155  1.0000
  H   H659      1.0  0.11462  0.82994  0.45325  1.0000
  H   H660      1.0  0.11541  0.83738  0.39805  1.0000
  H   H661      1.0  0.12727  0.83144  0.36981  1.0000
  H   H662      1.0  0.08911  0.81449  0.42809  1.0000
  H   H663      1.0  0.07772  0.89593  0.38750  1.0000
  C   C411      1.0  0.18392  0.76450  0.43733  1.0000
  C   C412      1.0  0.12943  0.79801  0.37474  1.0000
  H   H664      1.0  0.11704  0.81153  0.46483  1.0000
  H   H665      1.0  0.09567  0.82421  0.36314  1.0000
  H   H666      1.0  0.09396  0.80489  0.37906  1.0000
  H   H667      1.0  0.10604  0.81312  0.34333  1.0000
  H   H668      1.0  0.16154  0.96041  0.42457  1.0000
  C   C413      1.0  0.14992  0.87654  0.21680  1.0000
  H   H669      1.0  0.17706  0.78404  0.41948  1.0000
  C   C414      1.0  0.13797  0.77901  0.14069  1.0000
  H   H670      1.0  0.07726  0.64786  0.33242  1.0000
  H   H671      1.0  0.14772  0.87818  0.24291  1.0000
  N   N30       1.0  0.14565  0.84545  0.22032  1.0000
  C   C415      1.0  0.20000  0.75024  0.41031  1.0000
  C   C416      1.0  0.12156  0.74782  0.10164  1.0000
  H   H672      1.0  0.10906  0.72105  0.09760  1.0000
  H   H673      1.0  0.11918  0.74663  0.12819  1.0000
  C   C417      1.0  0.13726  0.77752  0.10347  1.0000
  S   S123      1.0  0.19531  0.79988  0.12374  1.0000
  H   H674      1.0  0.14789  0.77515  0.09495  1.0000
  H   H675      1.0  0.12284  0.79357  0.42517  1.0000
  H   H676      1.0  0.16716  0.82393  0.18254  1.0000
  H   H677      1.0  0.98527  0.79241  0.16941  1.0000
  C   C418      1.0  0.13146  0.83982  0.19847  1.0000
  H   H678      1.0  0.12420  0.84740  0.20319  1.0000
  C   C419      1.0  0.21270  0.77224  0.45073  1.0000
  H   H679      1.0  0.15028  0.85554  0.26923  1.0000
  H   H680      1.0  0.08779  0.81629  0.02068  1.0000
  H   H681      1.0  0.12373  0.78921  0.04358  1.0000
  C   C420      1.0  0.11965  0.82166  0.20124  1.0000
  H   H682      1.0  0.14623  0.82709  0.28010  1.0000
  C   C421      1.0  0.15525  0.83470  0.21690  1.0000
  C   C422      1.0  0.13570  0.83007  0.27493  1.0000
  H   H683      1.0  0.15949  0.86326  0.18424  1.0000
  H   H684      1.0  0.14849  0.82182  0.22495  1.0000
  C   C423      1.0  0.16169  0.83333  0.18255  1.0000
  H   H685      1.0  0.12576  0.94878  0.46962  1.0000
  H   H686      1.0  0.07396  0.88357  0.42288  1.0000
  H   H687      1.0  0.12540  0.81269  0.20396  1.0000
  H   H688      1.0  0.06565  0.83344  0.43915  1.0000
  C   C424      1.0  0.17852  0.72933  0.46020  1.0000
  H   H689      1.0  0.13047  0.85044  0.25700  1.0000
  H   H690      1.0  0.15216  0.82918  0.16434  1.0000
  H   H691      1.0  0.13077  0.83201  0.29878  1.0000
  H   H692      1.0  0.19647  0.76485  0.37076  1.0000
  H   H693      1.0  0.11293  0.81788  0.17836  1.0000
  H   H694      1.0  0.20180  0.78263  0.48936  1.0000
  C   C425      1.0  0.12975  0.66919  0.39451  1.0000
  S   S124      1.0  0.06512  0.83225  0.03009  1.0000
  H   H695      1.0  0.10776  0.65503  0.45475  1.0000
  H   H696      1.0  0.98133  0.79170  0.21281  1.0000
  C   C426      1.0  0.18063  0.97279  0.33967  1.0000
  H   H697      1.0  0.12696  0.66272  0.32754  1.0000
  H   H698      1.0  0.14076  0.68865  0.29782  1.0000
  C   C427      1.0  0.09946  0.65145  0.35774  1.0000
  C   C428      1.0  0.12071  0.67138  0.32510  1.0000
  H   H699      1.0  0.19467  0.88271  0.25550  1.0000
  N   N31       1.0  0.10328  0.90652  0.45425  1.0000
  C   C429      1.0  0.18824  0.78224  0.42442  1.0000
  S   S125      1.0  0.18734  0.79082  0.29663  1.0000
  H   H700      1.0  0.04168  0.83086  0.18303  1.0000
  H   H701      1.0  0.17766  0.76427  0.46087  1.0000
  H   H702      1.0  0.11526  0.94122  0.43310  1.0000
  H   H703      1.0  0.08524  0.69752  0.00569  1.0000
  C   C430      1.0  0.14422  0.84451  0.43414  1.0000
  H   H704      1.0  0.12492  0.78478  0.36674  1.0000
  H   H705      1.0  0.11421  0.66769  0.30193  1.0000
  H   H706      1.0  0.14214  0.80150  0.38068  1.0000
  H   H707      1.0  0.13160  0.93544  0.44371  1.0000
  H   H708      1.0  0.08891  0.88064  0.46356  1.0000
  C   C431      1.0  0.08357  0.89260  0.40799  1.0000
  C   C432      1.0  0.09323  0.90850  0.42723  1.0000
  H   H709      1.0  0.10935  0.67524  0.40422  1.0000
  H   H710      1.0  0.13938  0.67091  0.37637  1.0000
  H   H711      1.0  0.08454  0.91375  0.43670  1.0000
  C   C433      1.0  0.09452  0.80805  0.44394  1.0000
  C   C434      1.0  0.96855  0.76909  0.11459  1.0000
  H   H712      1.0  0.11136  0.88877  0.43037  1.0000
  H   H713      1.0  0.15741  0.85066  0.43352  1.0000
  H   H714      1.0  0.08064  0.66580  0.38275  1.0000
  H   H715      1.0  0.07524  0.67857  0.35701  1.0000
  H   H716      1.0  0.14037  0.84482  0.45973  1.0000
  H   H717      1.0  0.14211  0.69289  0.34015  1.0000
  C   C435      1.0  0.11630  0.90186  0.43929  1.0000
  H   H718      1.0  0.02966  0.83829  0.16000  1.0000
  H   H719      1.0  0.18591  0.97616  0.31585  1.0000
  H   H720      1.0  0.13971  0.85207  0.41910  1.0000
  H   H721      1.0  0.13554  0.67551  0.41710  1.0000
  H   H722      1.0  0.12860  0.69842  0.31600  1.0000
  C   C436      1.0  0.12114  0.93775  0.45326  1.0000
  C   C437      1.0  0.10953  0.92288  0.47250  1.0000
  C   C438      1.0  0.09256  0.89296  0.47603  1.0000
  H   H723      1.0  0.19475  0.79185  0.44256  1.0000
  H   H724      1.0  0.20299  0.74225  0.47338  1.0000
  C   C439      1.0  0.20594  0.76127  0.38037  1.0000
  C   C440      1.0  0.21260  0.77994  0.48472  1.0000
  H   H725      1.0  0.09750  0.78301  0.48879  1.0000
  H   H726      1.0  0.08951  0.80840  0.46862  1.0000
  C   C441      1.0  0.96772  0.73740  0.12582  1.0000
  C   C442      1.0  0.10148  0.85172  0.49624  1.0000
  H   H727      1.0  0.96877  0.78136  0.11021  1.0000
  H   H728      1.0  0.96751  0.72513  0.13012  1.0000
  C   C443      1.0  0.09026  0.82589  0.00282  1.0000
  H   H729      1.0  0.06227  0.82652  0.49761  1.0000
  Fe  Fe64      1.0  0.13793  0.72364  0.49578  1.0000
  H   H730      1.0  0.20875  0.75390  0.36068  1.0000
  H   H731      1.0  0.20867  0.74430  0.41448  1.0000
  C   C444      1.0  0.09364  0.75717  0.49299  1.0000
  H   H732      1.0  0.06993  0.67767  0.99982  1.0000
  Fe  Fe65      1.0  0.14986  0.89698  0.86400  1.0000
  S   S126      1.0  0.15483  0.87672  0.88888  1.0000
  S   S127      1.0  0.15860  0.92364  0.88508  1.0000
  Fe  Fe66      1.0  0.12760  0.87239  0.81594  1.0000
  S   S128      1.0  0.13061  0.85045  0.83694  1.0000
  S   S129      1.0  0.11346  0.87217  0.77117  1.0000
  Fe  Fe67      1.0  0.12875  0.86126  0.88588  1.0000
  S   S130      1.0  0.11894  0.84112  0.92371  1.0000
  Fe  Fe68      1.0  0.15646  0.86662  0.83918  1.0000
  S   S131      1.0  0.17143  0.85134  0.83182  1.0000
  S   S132      1.0  0.12324  0.88207  0.86472  1.0000
  S   S133      1.0  0.15388  0.88811  0.81411  1.0000
  Fe  Fe69      1.0  0.06528  0.81661  0.57726  1.0000
  S   S134      1.0  0.07603  0.80160  0.60487  1.0000
  S   S135      1.0  0.08437  0.83826  0.55130  1.0000
  Fe  Fe70      1.0  0.03113  0.79545  0.60223  1.0000
  S   S136      1.0  0.04005  0.77955  0.63164  1.0000
  S   S137      1.0  0.00453  0.79091  0.59647  1.0000
  Fe  Fe71      1.0  0.06031  0.80324  0.64628  1.0000
  S   S138      1.0  0.06986  0.80566  0.69772  1.0000
  Fe  Fe72      1.0  0.05519  0.77960  0.58790  1.0000
  S   S139      1.0  0.05669  0.75537  0.57149  1.0000
  S   S140      1.0  0.05043  0.81947  0.61995  1.0000
  S   S141      1.0  0.04540  0.79423  0.55718  1.0000
  Fe  Fe73      1.0  0.12704  0.71346  0.93446  1.0000
  S   S142      1.0  0.12801  0.73532  0.90431  1.0000
  S   S143      1.0  0.11477  0.68759  0.91043  1.0000
  H   H733      1.0  0.11146  0.85700  0.51226  1.0000
  H   H734      1.0  0.99887  0.71236  0.53369  1.0000
  S   S144      1.0  0.15255  0.72706  0.54117  1.0000
  Fe  Fe74      1.0  0.12083  0.74502  0.95005  1.0000
  H   H735      1.0  0.11365  0.94118  0.77700  1.0000
  Fe  Fe75      1.0  0.15309  0.74834  0.92106  1.0000
  S   S145      1.0  0.17258  0.76901  0.89315  1.0000
  H   H736      1.0  0.15969  0.95419  0.79640  1.0000
  S   S146      1.0  0.15299  0.72596  0.94821  1.0000
  H   H737      1.0  0.98077  0.71513  0.57514  1.0000
  H   H738      1.0  0.15275  0.93370  0.76176  1.0000
  H   H739      1.0  0.14558  0.92296  0.82146  1.0000
  S   S147      1.0  0.19618  0.80426  0.68034  1.0000
  C   C445      1.0  0.17822  0.76980  0.85153  1.0000
  C   C446      1.0  0.17276  0.75581  0.83119  1.0000
  C   C447      1.0  0.17809  0.75691  0.79866  1.0000
  C   C448      1.0  0.18858  0.77208  0.78584  1.0000
  C   C449      1.0  0.19375  0.78618  0.80597  1.0000
  C   C450      1.0  0.18882  0.78495  0.83875  1.0000
  H   H740      1.0  0.16472  0.74404  0.84069  1.0000
  H   H741      1.0  0.17412  0.74590  0.78338  1.0000
  H   H742      1.0  0.20178  0.79793  0.79647  1.0000
  H   H743      1.0  0.19332  0.79580  0.85433  1.0000
  C   C451      1.0  0.16675  0.74636  0.55472  1.0000
  C   C452      1.0  0.17056  0.76084  0.53678  1.0000
  H   H744      1.0  0.12817  0.95378  0.82594  1.0000
  C   C453      1.0  0.18974  0.77674  0.57759  1.0000
  C   C454      1.0  0.18571  0.76234  0.59585  1.0000
  C   C455      1.0  0.17436  0.74720  0.58431  1.0000
  S   S148      1.0  0.11158  0.71737  0.49929  1.0000
  H   H745      1.0  0.19155  0.76280  0.61858  1.0000
  H   H746      1.0  0.17146  0.73609  0.59844  1.0000
  H   H747      1.0  0.10413  0.92768  0.82868  1.0000
  C   C456      1.0  0.10407  0.66649  0.92232  1.0000
  C   C457      1.0  0.08906  0.77196  0.99198  1.0000
  C   C458      1.0  0.98597  0.77477  0.60781  1.0000
  H   H748      1.0  0.13503  0.77890  0.62649  1.0000
  C   C459      1.0  0.98492  0.76258  0.63029  1.0000
  C   C460      1.0  0.06801  0.82249  0.86674  1.0000
  H   H749      1.0  0.99558  0.76292  0.64182  1.0000
  C   C461      1.0  0.07084  0.75633  0.54099  1.0000
  C   C462      1.0  0.07363  0.74197  0.53292  1.0000
  C   C463      1.0  0.08235  0.70365  0.88790  1.0000
  H   H750      1.0  0.08942  0.76850  0.60186  1.0000
  H   H751      1.0  0.16728  0.84794  0.90181  1.0000
  C   C464      1.0  0.07946  0.77115  0.52499  1.0000
  H   H752      1.0  0.06697  0.73047  0.54517  1.0000
  H   H753      1.0  0.02110  0.76518  0.51588  1.0000
  H   H754      1.0  0.08933  0.80247  0.93836  1.0000
  S   S149      1.0  0.19601  0.77239  0.74558  1.0000
  C   C465      1.0  0.19813  0.85157  0.73686  1.0000
  C   C466      1.0  0.19333  0.86473  0.74439  1.0000
  C   C467      1.0  0.18502  0.86479  0.77346  1.0000
  C   C468      1.0  0.18174  0.85180  0.79522  1.0000
  C   C469      1.0  0.18668  0.83873  0.78779  1.0000
  H   H755      1.0  0.07726  0.78174  0.92744  1.0000
  H   H756      1.0  0.19598  0.87483  0.72760  1.0000
  H   H757      1.0  0.18135  0.87496  0.77920  1.0000
  H   H758      1.0  0.14298  0.79358  0.83834  1.0000
  C   C470      1.0  0.10157  0.85354  0.75086  1.0000
  C   C471      1.0  0.09607  0.85438  0.71968  1.0000
  C   C472      1.0  0.08649  0.83985  0.70290  1.0000
  C   C473      1.0  0.08214  0.82433  0.71737  1.0000
  C   C474      1.0  0.08768  0.82352  0.74855  1.0000
  C   C475      1.0  0.09742  0.83801  0.76515  1.0000
  H   H759      1.0  0.09918  0.86632  0.70840  1.0000
  H   H760      1.0  0.08230  0.84066  0.67895  1.0000
  H   H761      1.0  0.08433  0.81158  0.75996  1.0000
  H   H762      1.0  0.10146  0.83719  0.78920  1.0000
  C   C476      1.0  0.10535  0.84039  0.95539  1.0000
  C   C477      1.0  0.08316  0.79450  0.91757  1.0000
  H   H763      1.0  0.05331  0.80933  0.92419  1.0000
  H   H764      1.0  0.99973  0.75439  0.51542  1.0000
  H   H765      1.0  0.09369  0.78323  0.97812  1.0000
  C   C478      1.0  0.09660  0.85051  0.95577  1.0000
  H   H766      1.0  0.10121  0.90151  0.52545  1.0000
  C   C479      1.0  0.97566  0.73416  0.55100  1.0000
  H   H767      1.0  0.96944  0.74065  0.65550  1.0000
  H   H768      1.0  0.09883  0.85986  0.93747  1.0000
  C   C480      1.0  0.17918  0.94730  0.84287  1.0000
  C   C481      1.0  0.17080  0.94413  0.87241  1.0000
  C   C482      1.0  0.17202  0.95770  0.89285  1.0000
  H   H769      1.0  0.17845  0.93705  0.82689  1.0000
  H   H770      1.0  0.13111  0.79027  0.90930  1.0000
  N   N32       1.0  0.14372  0.83764  0.71984  1.0000
  C   C483      1.0  0.15202  0.85549  0.70961  1.0000
  C   C484      1.0  0.15472  0.82883  0.71131  1.0000
  C   C485      1.0  0.14090  0.83749  0.75608  1.0000
  C   C486      1.0  0.12818  0.83044  0.70220  1.0000
  C   C487      1.0  0.14401  0.86751  0.72054  1.0000
  C   C488      1.0  0.15958  0.82892  0.67531  1.0000
  C   C489      1.0  0.13936  0.82161  0.77416  1.0000
  C   C490      1.0  0.11816  0.81180  0.70649  1.0000
  H   H771      1.0  0.16438  0.86078  0.71884  1.0000
  H   H772      1.0  0.15319  0.85642  0.68279  1.0000
  H   H773      1.0  0.14973  0.81566  0.71865  1.0000
  H   H774      1.0  0.16589  0.83444  0.72523  1.0000
  H   H775      1.0  0.15087  0.84765  0.76815  1.0000
  H   H776      1.0  0.13007  0.84008  0.76208  1.0000
  H   H777      1.0  0.12018  0.83679  0.71020  1.0000
  H   H778      1.0  0.12975  0.83304  0.67581  1.0000
  H   H779      1.0  0.14317  0.86846  0.74725  1.0000
  H   H780      1.0  0.15139  0.88017  0.71191  1.0000
  H   H781      1.0  0.13208  0.86413  0.70998  1.0000
  H   H782      1.0  0.16657  0.82095  0.67198  1.0000
  H   H783      1.0  0.14914  0.82385  0.65937  1.0000
  H   H784      1.0  0.16757  0.84151  0.66745  1.0000
  H   H785      1.0  0.13039  0.81022  0.76367  1.0000
  H   H786      1.0  0.13571  0.82263  0.79967  1.0000
  H   H787      1.0  0.15101  0.82031  0.77508  1.0000
  H   H788      1.0  0.11079  0.80962  0.72899  1.0000
  H   H789      1.0  0.12524  0.80397  0.70609  1.0000
  H   H790      1.0  0.11003  0.80727  0.68565  1.0000
  C   C491      1.0  0.16025  0.83901  0.92046  1.0000
  C   C492      1.0  0.07906  0.81521  0.88251  1.0000
  H   H791      1.0  0.10343  0.78789  0.90696  1.0000
  H   H792      1.0  0.04768  0.78236  0.95333  1.0000
  N   N33       1.0  0.12658  0.93012  0.80551  1.0000
  H   H793      1.0  0.02995  0.74297  0.52051  1.0000
  H   H794      1.0  0.09392  0.70952  0.90023  1.0000
  C   C493      1.0  0.02226  0.72958  0.51991  1.0000
  H   H795      1.0  0.09542  0.91275  0.77198  1.0000
  H   H796      1.0  0.04758  0.78982  0.88247  1.0000
  C   C494      1.0  0.14574  0.92088  0.76942  1.0000
  H   H797      1.0  0.19833  0.82830  0.75281  1.0000
  H   H798      1.0  0.09854  0.65793  0.87305  1.0000
  H   H799      1.0  0.99808  0.72654  0.63454  1.0000
  N   N34       1.0  0.07102  0.80049  0.90411  1.0000
  H   H800      1.0  0.10724  0.67066  0.97363  1.0000
  H   H801      1.0  0.15513  0.97096  0.81158  1.0000
  S   S150      1.0  0.20470  0.79585  0.58978  1.0000
  H   H802      1.0  0.13761  0.91414  0.74975  1.0000
  H   H803      1.0  0.14787  0.76020  0.64593  1.0000
  C   C495      1.0  0.13612  0.94705  0.81973  1.0000
  H   H804      1.0  0.04327  0.67630  0.98048  1.0000
  H   H805      1.0  0.14167  0.94594  0.84285  1.0000
  C   C496      1.0  0.03963  0.68101  0.95876  1.0000
  H   H806      1.0  0.02911  0.67104  0.94804  1.0000
  H   H807      1.0  0.05185  0.77450  0.84000  1.0000
  H   H808      1.0  0.10539  0.91789  0.73357  1.0000
  C   C497      1.0  0.18153  0.97418  0.88408  1.0000
  C   C498      1.0  0.06253  0.77971  0.85543  1.0000
  C   C499      1.0  0.13430  0.79300  0.85805  1.0000
  H   H809      1.0  0.21351  0.77168  0.50402  1.0000
  H   H810      1.0  0.11061  0.73477  0.60749  1.0000
  H   H811      1.0  0.14465  0.78200  0.89238  1.0000
  C   C500      1.0  0.06105  0.66424  0.93826  1.0000
  H   H812      1.0  0.18411  0.82861  0.80445  1.0000
  C   C501      1.0  0.19477  0.83856  0.75859  1.0000
  H   H813      1.0  0.07740  0.78229  0.53113  1.0000
  H   H814      1.0  0.00858  0.77338  0.53691  1.0000
  H   H815      1.0  0.05747  0.70232  0.93568  1.0000
  H   H816      1.0  0.16843  0.83767  0.93841  1.0000
  N   N35       1.0  0.15505  0.80864  0.90144  1.0000
  C   C502      1.0  0.14122  0.79300  0.89183  1.0000
  C   C503      1.0  0.16119  0.80509  0.93284  1.0000
  C   C504      1.0  0.16764  0.81212  0.87508  1.0000
  C   C505      1.0  0.14912  0.82258  0.90461  1.0000
  H   H817      1.0  0.12726  0.91667  0.86615  1.0000
  C   C506      1.0  0.18475  0.82370  0.88364  1.0000
  N   N36       1.0  0.06633  0.68255  0.93163  1.0000
  H   H818      1.0  0.17244  0.81516  0.94013  1.0000
  H   H819      1.0  0.16439  0.79399  0.92995  1.0000
  H   H820      1.0  0.16850  0.80031  0.86632  1.0000
  H   H821      1.0  0.16432  0.81750  0.85360  1.0000
  H   H822      1.0  0.14633  0.82606  0.88041  1.0000
  H   H823      1.0  0.13747  0.81853  0.91785  1.0000
  H   H824      1.0  0.12391  0.78115  0.85459  1.0000
  H   H825      1.0  0.13000  0.80320  0.85553  1.0000
  H   H826      1.0  0.15576  0.80017  0.98389  1.0000
  C   C507      1.0  0.08459  0.84820  0.97946  1.0000
  C   C508      1.0  0.07907  0.69226  0.95523  1.0000
  C   C509      1.0  0.08503  0.74239  0.50906  1.0000
  H   H827      1.0  0.19214  0.82654  0.86111  1.0000
  H   H828      1.0  0.14370  0.74855  0.60894  1.0000
  H   H829      1.0  0.09041  0.73357  0.99470  1.0000
  C   C510      1.0  0.14592  0.76099  0.61968  1.0000
  N   N37       1.0  0.00361  0.73442  0.56342  1.0000
  C   C511      1.0  0.01161  0.72819  0.58880  1.0000
  C   C512      1.0  0.08660  0.84131  0.50897  1.0000
  H   H830      1.0  0.06463  0.67947  0.87928  1.0000
  C   C513      1.0  0.01154  0.75311  0.56228  1.0000
  C   C514      1.0  0.10714  0.91602  0.75948  1.0000
  H   H831      1.0  0.14726  0.79211  0.51737  1.0000
  C   C515      1.0  0.97001  0.74999  0.63815  1.0000
  H   H832      1.0  0.10913  0.82047  0.97927  1.0000
  H   H833      1.0  0.00704  0.71436  0.58837  1.0000
  H   H834      1.0  0.02461  0.73246  0.58374  1.0000
  H   H835      1.0  0.09249  0.78760  0.87166  1.0000
  C   C516      1.0  0.09698  0.65437  0.89822  1.0000
  H   H836      1.0  0.09821  0.73160  0.57245  1.0000
  C   C517      1.0  0.04945  0.65248  0.91363  1.0000
  C   C518      1.0  0.18990  0.97735  0.85454  1.0000
  H   H837      1.0  0.02454  0.75710  0.56618  1.0000
  H   H838      1.0  0.08598  0.81244  0.86245  1.0000
  H   H839      1.0  0.08807  0.82546  0.89639  1.0000
  H   H840      1.0  0.15430  0.91473  0.77190  1.0000
  H   H841      1.0  0.06227  0.82800  0.88495  1.0000
  C   C519      1.0  0.09313  0.75846  0.98307  1.0000
  H   H842      1.0  0.01872  0.73093  0.63923  1.0000
  H   H843      1.0  0.14387  0.79130  0.57561  1.0000
  C   C520      1.0  0.11732  0.92087  0.86420  1.0000
  H   H844      1.0  0.15716  0.77025  0.60975  1.0000
  H   H845      1.0  0.14658  0.81307  0.96761  1.0000
  S   S151      1.0  0.10521  0.75982  0.94859  1.0000
  H   H846      1.0  0.18501  0.78704  0.53400  1.0000
  C   C521      1.0  0.10234  0.82829  0.97933  1.0000
  H   H847      1.0  0.12208  0.75808  0.63130  1.0000
  H   H848      1.0  0.05891  0.81319  0.85150  1.0000
  H   H849      1.0  0.16561  0.95544  0.91577  1.0000
  C   C522      1.0  0.18862  0.96378  0.83402  1.0000
  H   H850      1.0  0.10381  0.76992  0.63125  1.0000
  C   C523      1.0  0.18208  0.77591  0.54806  1.0000
  C   C524      1.0  0.09939  0.76459  0.60707  1.0000
  H   H851      1.0  0.12936  0.90635  0.80526  1.0000
  H   H852      1.0  0.07140  0.78928  0.84035  1.0000
  H   H853      1.0  0.10696  0.91189  0.87751  1.0000
  C   C525      1.0  0.11288  0.92157  0.82864  1.0000
  N   N38       1.0  0.12637  0.76619  0.58111  1.0000
  H   H854      1.0  0.11015  0.88816  0.50601  1.0000
  C   C526      1.0  0.13174  0.76628  0.61543  1.0000
  H   H855      1.0  0.09429  0.75090  0.60789  1.0000
  H   H856      1.0  0.00712  0.75884  0.58256  1.0000
  C   C527      1.0  0.05800  0.78653  0.88721  1.0000
  S   S152      1.0  0.11787  0.72251  0.97900  1.0000
  C   C528      1.0  0.11045  0.73417  0.58082  1.0000
  S   S153      1.0  0.14577  0.75928  0.96549  1.0000
  H   H857      1.0  0.10531  0.80713  0.88977  1.0000
  H   H858      1.0  0.12046  0.93308  0.87667  1.0000
  H   H859      1.0  0.12639  0.78547  0.52502  1.0000
  H   H860      1.0  0.14612  0.96114  0.77488  1.0000
  H   H861      1.0  0.13507  0.77075  0.51190  1.0000
  C   C529      1.0  0.12256  0.74967  0.56413  1.0000
  H   H862      1.0  0.99900  0.72943  0.51189  1.0000
  C   C530      1.0  0.13996  0.77902  0.56286  1.0000
  H   H863      1.0  0.18550  0.83572  0.89410  1.0000
  H   H864      1.0  0.19024  0.81754  0.89999  1.0000
  H   H865      1.0  0.11349  0.72328  0.57438  1.0000
  C   C531      1.0  0.00995  0.76154  0.53061  1.0000
  C   C532      1.0  0.11233  0.77141  0.58050  1.0000
  H   H866      1.0  0.07766  0.85588  0.97940  1.0000
  H   H867      1.0  0.11761  0.74979  0.53980  1.0000
  H   H868      1.0  0.13352  0.74729  0.55844  1.0000
  H   H869      1.0  0.98488  0.73395  0.59724  1.0000
  H   H870      1.0  0.11635  0.78519  0.58239  1.0000
  H   H871      1.0  0.07153  0.66067  0.93884  1.0000
  C   C533      1.0  0.05712  0.79428  0.96074  1.0000
  H   H872      1.0  0.10619  0.76791  0.55698  1.0000
  C   C534      1.0  0.14992  0.95874  0.79886  1.0000
  C   C535      1.0  0.09671  0.79431  0.89468  1.0000
  C   C536      1.0  0.01007  0.73362  0.62411  1.0000
  C   C537      1.0  0.10190  0.66157  0.95474  1.0000
  H   H873      1.0  0.06683  0.76968  0.86037  1.0000
  H   H874      1.0  0.05294  0.77565  0.90340  1.0000
  H   H875      1.0  0.12886  0.93757  0.75505  1.0000
  C   C538      1.0  0.09926  0.89082  0.50878  1.0000
  C   C539      1.0  0.14975  0.80219  0.96224  1.0000
  H   H876      1.0  0.15295  0.84475  0.93411  1.0000
  H   H877      1.0  0.07527  0.83275  0.85053  1.0000
  C   C540      1.0  0.06349  0.80637  0.93221  1.0000
  H   H878      1.0  0.19504  0.96604  0.81111  1.0000
  H   H879      1.0  0.08695  0.73121  0.50284  1.0000
  H   H880      1.0  0.08956  0.68874  0.95220  1.0000
  H   H881      1.0  0.15054  0.77565  0.56180  1.0000
  C   C541      1.0  0.07374  0.68539  0.89802  1.0000
  C   C542      1.0  0.13672  0.78183  0.52737  1.0000
  H   H882      1.0  0.11082  0.90532  0.76093  1.0000
  H   H883      1.0  0.16462  0.76043  0.51429  1.0000
  H   H884      1.0  0.06672  0.79191  0.97306  1.0000
  H   H885      1.0  0.01281  0.74710  0.62646  1.0000
  H   H886      1.0  0.05573  0.65173  0.89065  1.0000
  H   H887      1.0  0.13879  0.79095  0.95907  1.0000
  C   C543      1.0  0.13665  0.91981  0.80193  1.0000
  H   H888      1.0  0.10619  0.90844  0.82090  1.0000
  H   H889      1.0  0.08246  0.67934  0.89498  1.0000
  C   C544      1.0  0.98627  0.72891  0.57302  1.0000
  H   H890      1.0  0.04655  0.68582  0.90907  1.0000
  H   H891      1.0  0.03937  0.65617  0.90856  1.0000
  C   C545      1.0  0.11956  0.93214  0.77396  1.0000
  H   H892      1.0  0.05543  0.66088  0.96246  1.0000
  C   C546      1.0  0.05280  0.68855  0.93266  1.0000
  C   C547      1.0  0.00508  0.72609  0.53181  1.0000
  H   H893      1.0  0.07211  0.81815  0.94259  1.0000
  H   H894      1.0  0.97554  0.72967  0.52571  1.0000
  H   H895      1.0  0.07500  0.71111  0.89239  1.0000
  Fe  Fe76      1.0  0.20969  0.79468  0.71390  1.0000
  H   H896      1.0  0.97897  0.74780  0.55198  1.0000
  H   H897      1.0  0.08519  0.70405  0.86155  1.0000
  S   S154      1.0  0.20749  0.85114  0.69946  1.0000
  H   H898      1.0  0.09033  0.87982  0.52097  1.0000
  C   C548      1.0  0.09079  0.77153  0.50093  1.0000
  H   H899      1.0  0.97237  0.78360  0.57651  1.0000
  C   C549      1.0  0.97180  0.77424  0.59380  1.0000
  H   H900      1.0  0.05176  0.80008  0.97930  1.0000
  H   H901      1.0  0.02787  0.72273  0.53428  1.0000
  Fe  Fe77      1.0  0.14373  0.73629  0.99121  1.0000
  H   H902      1.0  0.08349  0.70580  0.95048  1.0000
  Fe  Fe78      1.0  0.21335  0.80295  0.64159  1.0000
  H   H903      1.0  0.03533  0.69073  0.96741  1.0000
  H   H904      1.0  0.20437  0.96076  0.90353  1.0000
  C   C550      1.0  0.07443  0.69066  0.99141  1.0000
  H   H905      1.0  0.21363  0.97125  0.93940  1.0000
  H   H906      1.0  0.06591  0.69663  0.99736  1.0000
  C   C551      1.0  0.44523  0.29971  0.19919  1.0000
  Fe  Fe79      1.0  0.24204  0.05321  0.41165  1.0000
  S   S155      1.0  0.23619  0.07586  0.41217  1.0000
  S   S156      1.0  0.26700  0.05500  0.42219  1.0000
  H   H907      1.0  0.23309  0.08944  0.47636  1.0000
  H   H908      1.0  0.46164  0.28338  0.18096  1.0000
  C   C552      1.0  0.43320  0.01091  0.20530  1.0000
  H   H909      1.0  0.43585  0.03248  0.25467  1.0000
  S   S157      1.0  0.23380  0.04611  0.36081  1.0000
  H   H910      1.0  0.43884  0.05784  0.44018  1.0000
  S   S158      1.0  0.24064  0.12099  0.13434  1.0000
  C   C553      1.0  0.43321  0.98141  0.24250  1.0000
  S   S159      1.0  0.24580  0.15775  0.10651  1.0000
  Fe  Fe80      1.0  0.23176  0.13098  0.09271  1.0000
  C   C554      1.0  0.42504  0.10147  0.02728  1.0000
  Fe  Fe81      1.0  0.25331  0.14761  0.14985  1.0000
  S   S160      1.0  0.27859  0.15263  0.16520  1.0000
  S   S161      1.0  0.23294  0.14823  0.18083  1.0000
  Fe  Fe82      1.0  0.43409  0.02263  0.08281  1.0000
  S   S162      1.0  0.43969  0.04674  0.11018  1.0000
  S   S163      1.0  0.41160  0.99972  0.09055  1.0000
  Fe  Fe83      1.0  0.44569  0.05927  0.06193  1.0000
  S   S164      1.0  0.44148  0.08232  0.04568  1.0000
  S   S165      1.0  0.43806  0.03509  0.03449  1.0000
  C   C555      1.0  0.22576  0.10675  0.01708  1.0000
  S   S166      1.0  0.35293  0.11649  0.46393  1.0000
  C   C556      1.0  0.33377  0.17416  0.03827  1.0000
  Fe  Fe84      1.0  0.36194  0.14422  0.03301  1.0000
  H   H911      1.0  0.40825  0.13772  0.05414  1.0000
  S   S167      1.0  0.35562  0.15253  0.08210  1.0000
  Fe  Fe85      1.0  0.36381  0.14337  0.45004  1.0000
  S   S168      1.0  0.36373  0.14800  0.39587  1.0000
  H   H912      1.0  0.39384  0.15370  0.08701  1.0000
  H   H913      1.0  0.41943  0.15910  0.06205  1.0000
  C   C557      1.0  0.28423  0.09368  0.03090  1.0000
  H   H914      1.0  0.33259  0.16159  0.04559  1.0000
  Fe  Fe86      1.0  0.37530  0.22486  0.28127  1.0000
  S   S169      1.0  0.36351  0.24293  0.27340  1.0000
  S   S170      1.0  0.37544  0.21827  0.33421  1.0000
  Fe  Fe87      1.0  0.38320  0.22369  0.20953  1.0000
  S   S171      1.0  0.37173  0.24138  0.19702  1.0000
  S   S172      1.0  0.39566  0.21534  0.16859  1.0000
  Fe  Fe88      1.0  0.38416  0.25662  0.24038  1.0000
  S   S173      1.0  0.39442  0.28490  0.23217  1.0000
  Fe  Fe89      1.0  0.35224  0.22641  0.23110  1.0000
  S   S174      1.0  0.32626  0.22120  0.22266  1.0000
  S   S175      1.0  0.39691  0.23970  0.25104  1.0000
  S   S176      1.0  0.36275  0.20749  0.24069  1.0000
  C   C558      1.0  0.40994  0.30254  0.24908  1.0000
  C   C559      1.0  0.41815  0.30162  0.27670  1.0000
  C   C560      1.0  0.39495  0.07651  0.03439  1.0000
  H   H915      1.0  0.40914  0.11574  0.08706  1.0000
  H   H916      1.0  0.41504  0.28987  0.28874  1.0000
  H   H917      1.0  0.40011  0.10000  0.11697  1.0000
  C   C561      1.0  0.36730  0.16993  0.10562  1.0000
  C   C562      1.0  0.38201  0.18134  0.09473  1.0000
  C   C563      1.0  0.39069  0.19515  0.11434  1.0000
  C   C564      1.0  0.38463  0.19777  0.14466  1.0000
  C   C565      1.0  0.36999  0.18625  0.15555  1.0000
  C   C566      1.0  0.36146  0.17234  0.13623  1.0000
  H   H918      1.0  0.38664  0.17963  0.07117  1.0000
  H   H919      1.0  0.40205  0.20398  0.10579  1.0000
  H   H920      1.0  0.36529  0.18800  0.17898  1.0000
  H   H921      1.0  0.35020  0.16345  0.14506  1.0000
  C   C567      1.0  0.36677  0.16757  0.37910  1.0000
  C   C568      1.0  0.36654  0.16902  0.34527  1.0000
  C   C569      1.0  0.36919  0.18444  0.33103  1.0000
  C   C570      1.0  0.37205  0.19855  0.35060  1.0000
  C   C571      1.0  0.37203  0.19703  0.38441  1.0000
  C   C572      1.0  0.36940  0.18163  0.39862  1.0000
  H   H922      1.0  0.36457  0.15821  0.32999  1.0000
  H   H923      1.0  0.36926  0.18546  0.30500  1.0000
  H   H924      1.0  0.37422  0.20787  0.39974  1.0000
  H   H925      1.0  0.36961  0.18070  0.42467  1.0000
  C   C573      1.0  0.42377  0.08570  0.03767  1.0000
  H   H926      1.0  0.43723  0.30364  0.21509  1.0000
  H   H927      1.0  0.43669  0.11122  0.02442  1.0000
  H   H928      1.0  0.28244  0.06885  0.01491  1.0000
  H   H929      1.0  0.29201  0.07581  0.05326  1.0000
  C   C574      1.0  0.40860  0.07323  0.04117  1.0000
  H   H930      1.0  0.44991  0.25476  0.19947  1.0000
  H   H931      1.0  0.32672  0.20781  0.10323  1.0000
  H   H932      1.0  0.36277  0.09549  0.08243  1.0000
  H   H933      1.0  0.40737  0.06105  0.04909  1.0000
  H   H934      1.0  0.26038  0.07427  0.47506  1.0000
  S   S177      1.0  0.34892  0.11684  0.02411  1.0000
  S   S178      1.0  0.21868  0.03634  0.43360  1.0000
  C   C575      1.0  0.29127  0.17156  0.18269  1.0000
  C   C576      1.0  0.28706  0.18536  0.18486  1.0000
  C   C577      1.0  0.29790  0.20051  0.19730  1.0000
  C   C578      1.0  0.31304  0.20200  0.20719  1.0000
  C   C579      1.0  0.31719  0.18815  0.20528  1.0000
  C   C580      1.0  0.30628  0.17295  0.19332  1.0000
  H   H935      1.0  0.27552  0.18441  0.17672  1.0000
  H   H936      1.0  0.29459  0.21118  0.19891  1.0000
  H   H937      1.0  0.32882  0.18917  0.21282  1.0000
  H   H938      1.0  0.30958  0.16228  0.19174  1.0000
  C   C581      1.0  0.44259  0.08790  0.46347  1.0000
  H   H939      1.0  0.45613  0.30219  0.21351  1.0000
  C   C582      1.0  0.38829  0.14987  0.16453  1.0000
  H   H940      1.0  0.42629  0.25853  0.21698  1.0000
  C   C583      1.0  0.26107  0.09855  0.08164  1.0000
  H   H941      1.0  0.30324  0.17251  0.05120  1.0000
  H   H942      1.0  0.45278  0.00089  0.26626  1.0000
  C   C584      1.0  0.29253  0.18239  0.08868  1.0000
  H   H943      1.0  0.31163  0.19436  0.05480  1.0000
  C   C585      1.0  0.33535  0.18562  0.06794  1.0000
  H   H944      1.0  0.29250  0.14962  0.08883  1.0000
  H   H945      1.0  0.25205  0.07711  0.05082  1.0000
  H   H946      1.0  0.32680  0.18057  0.38985  1.0000
  C   C586      1.0  0.30738  0.18278  0.06931  1.0000
  H   H947      1.0  0.45551  0.25518  0.15782  1.0000
  C   C587      1.0  0.27937  0.07134  0.44695  1.0000
  C   C588      1.0  0.29590  0.07708  0.44222  1.0000
  C   C589      1.0  0.30615  0.09020  0.46124  1.0000
  H   H948      1.0  0.24956  0.10914  0.26988  1.0000
  H   H949      1.0  0.29051  0.10174  0.05157  1.0000
  C   C590      1.0  0.27313  0.07862  0.47124  1.0000
  H   H950      1.0  0.30077  0.07155  0.42332  1.0000
  H   H951      1.0  0.31882  0.09482  0.45671  1.0000
  H   H952      1.0  0.33422  0.23507  0.33504  1.0000
  S   S179      1.0  0.45867  0.02262  0.08521  1.0000
  H   H953      1.0  0.33907  0.19805  0.36704  1.0000
  H   H954      1.0  0.27940  0.12183  0.04118  1.0000
  H   H955      1.0  0.25104  0.09221  0.09868  1.0000
  C   C591      1.0  0.44709  0.25770  0.17496  1.0000
  C   C592      1.0  0.39620  0.09225  0.02397  1.0000
  H   H956      1.0  0.46358  0.01620  0.18106  1.0000
  C   C593      1.0  0.42371  0.98336  0.13262  1.0000
  H   H957      1.0  0.32301  0.06607  0.45688  1.0000
  H   H958      1.0  0.27645  0.17539  0.29504  1.0000
  H   H959      1.0  0.32477  0.16499  0.30465  1.0000
  H   H960      1.0  0.43806  0.07800  0.48204  1.0000
  S   S180      1.0  0.38542  0.14481  0.01312  1.0000
  H   H961      1.0  0.22067  0.01246  0.25695  1.0000
  C   C594      1.0  0.41362  0.14684  0.07379  1.0000
  H   H962      1.0  0.28608  0.19683  0.30487  1.0000
  H   H963      1.0  0.23758  0.11515  0.22080  1.0000
  C   C595      1.0  0.40075  0.12453  0.13314  1.0000
  H   H964      1.0  0.46324  0.06039  0.40444  1.0000
  H   H965      1.0  0.23654  0.04571  0.28622  1.0000
  H   H966      1.0  0.45018  0.03326  0.28467  1.0000
  N   N39       1.0  0.32073  0.18197  0.08926  1.0000
  H   H967      1.0  0.33150  0.21937  0.36400  1.0000
  H   H968      1.0  0.43499  0.99370  0.12997  1.0000
  H   H969      1.0  0.46250  0.03757  0.21525  1.0000
  H   H970      1.0  0.40820  0.25324  0.18009  1.0000
  C   C596      1.0  0.41137  0.10474  0.02045  1.0000
  N   N40       1.0  0.44775  0.01147  0.22288  1.0000
  H   H971      1.0  0.29450  0.19471  0.09982  1.0000
  C   C597      1.0  0.45808  0.00641  0.19943  1.0000
  N   N41       1.0  0.28843  0.11288  0.38081  1.0000
  C   C598      1.0  0.30389  0.11019  0.37870  1.0000
  C   C599      1.0  0.27522  0.09647  0.37300  1.0000
  C   C600      1.0  0.28638  0.11784  0.41532  1.0000
  C   C601      1.0  0.28939  0.12639  0.35758  1.0000
  C   C602      1.0  0.31889  0.12471  0.39055  1.0000
  C   C603      1.0  0.27681  0.08849  0.34013  1.0000
  C   C604      1.0  0.27099  0.12051  0.42391  1.0000
  C   C605      1.0  0.27344  0.12656  0.34560  1.0000
  H   H972      1.0  0.30295  0.09907  0.39264  1.0000
  H   H973      1.0  0.30661  0.10752  0.35330  1.0000
  H   H974      1.0  0.26342  0.09733  0.37331  1.0000
  H   H975      1.0  0.27424  0.08724  0.39195  1.0000
  H   H976      1.0  0.28707  0.10836  0.43216  1.0000
  H   H977      1.0  0.29615  0.12970  0.42219  1.0000
  H   H978      1.0  0.29630  0.13883  0.36833  1.0000
  H   H979      1.0  0.29605  0.12536  0.33522  1.0000
  H   H980      1.0  0.32023  0.13674  0.37990  1.0000
  H   H981      1.0  0.31909  0.12575  0.41740  1.0000
  H   H982      1.0  0.32961  0.12223  0.38322  1.0000
  H   H983      1.0  0.27927  0.09732  0.31993  1.0000
  H   H984      1.0  0.28609  0.08317  0.34076  1.0000
  H   H985      1.0  0.26541  0.07797  0.33498  1.0000
  H   H986      1.0  0.27054  0.12258  0.45049  1.0000
  H   H987      1.0  0.26011  0.10959  0.41818  1.0000
  H   H988      1.0  0.27081  0.13179  0.41237  1.0000
  H   H989      1.0  0.27488  0.13959  0.34132  1.0000
  H   H990      1.0  0.26316  0.12131  0.36234  1.0000
  H   H991      1.0  0.27037  0.12015  0.32170  1.0000
  S   S181      1.0  0.23678  0.08752  0.32342  1.0000
  H   H992      1.0  0.45377  0.05010  0.25680  1.0000
  C   C606      1.0  0.41268  0.26163  0.15926  1.0000
  H   H993      1.0  0.34291  0.08052  0.45281  1.0000
  H   H994      1.0  0.34536  0.18485  0.08186  1.0000
  H   H995      1.0  0.41862  0.25633  0.14110  1.0000
  C   C607      1.0  0.22617  0.09375  0.49309  1.0000
  H   H996      1.0  0.26272  0.11184  0.08223  1.0000
  H   H997      1.0  0.22783  0.05981  0.27254  1.0000
  C   C608      1.0  0.33915  0.19818  0.13578  1.0000
  H   H998      1.0  0.39349  0.11658  0.15305  1.0000
  H   H999      1.0  0.30840  0.14836  0.06340  1.0000
  C   C609      1.0  0.28213  0.07566  0.03778  1.0000
  H   H1000     1.0  0.33965  0.06024  0.46579  1.0000
  H   H1001     1.0  0.45558  0.07026  0.37447  1.0000
  H   H1002     1.0  0.42266  0.09581  0.46780  1.0000
  H   H1003     1.0  0.22892  0.04348  0.24675  1.0000
  H   H1004     1.0  0.34154  0.17456  0.27813  1.0000
  H   H1005     1.0  0.37374  0.12672  0.07702  1.0000
  C   C610      1.0  0.30477  0.14985  0.08856  1.0000
  H   H1006     1.0  0.40199  0.26194  0.14732  1.0000
  H   H1007     1.0  0.28905  0.17300  0.10799  1.0000
  H   H1008     1.0  0.42385  0.01163  0.22233  1.0000
  H   H1009     1.0  0.33985  0.20743  0.15523  1.0000
  H   H1010     1.0  0.25574  0.06184  0.00303  1.0000
  S   S182      1.0  0.23644  0.12469  0.04049  1.0000
  C   C611      1.0  0.44356  0.27563  0.24841  1.0000
  S   S183      1.0  0.38426  0.14901  0.48441  1.0000
  H   H1011     1.0  0.43502  0.24891  0.16869  1.0000
  C   C612      1.0  0.45732  0.02872  0.23533  1.0000
  H   H1012     1.0  0.33959  0.19859  0.05890  1.0000
  H   H1013     1.0  0.42750  0.28613  0.14593  1.0000
  H   H1014     1.0  0.44545  0.28764  0.26086  1.0000
  H   H1015     1.0  0.27170  0.09702  0.09110  1.0000
  C   C613      1.0  0.44934  0.27614  0.17249  1.0000
  C   C614      1.0  0.45044  0.31184  0.17061  1.0000
  H   H1016     1.0  0.44440  0.04953  0.38700  1.0000
  Fe  Fe90      1.0  0.21983  0.12223  0.16270  1.0000
  H   H1017     1.0  0.41259  0.11687  0.01225  1.0000
  N   N42       1.0  0.26955  0.09657  0.02192  1.0000
  C   C615      1.0  0.27414  0.11505  0.01851  1.0000
  H   H1018     1.0  0.43359  0.06907  0.41013  1.0000
  H   H1019     1.0  0.43098  0.09831  0.42800  1.0000
  H   H1020     1.0  0.30420  0.13872  0.10198  1.0000
  C   C616      1.0  0.31643  0.16550  0.10596  1.0000
  N   N43       1.0  0.43737  0.28149  0.19035  1.0000
  C   C617      1.0  0.44868  0.03638  0.25934  1.0000
  H   H1021     1.0  0.42738  0.99874  0.19277  1.0000
  H   H1022     1.0  0.45091  0.99522  0.18515  1.0000
  S   S184      1.0  0.34853  0.15068  0.48519  1.0000
  C   C618      1.0  0.25662  0.09073  0.04762  1.0000
  C   C619      1.0  0.32465  0.19566  0.11461  1.0000
  C   C620      1.0  0.22746  0.09159  0.28924  1.0000
  H   H1023     1.0  0.31085  0.16567  0.13007  1.0000
  C   C621      1.0  0.44247  0.99991  0.25119  1.0000
  H   H1024     1.0  0.39252  0.16240  0.15365  1.0000
  H   H1025     1.0  0.32198  0.16988  0.26354  1.0000
  H   H1026     1.0  0.43890  0.26582  0.26700  1.0000
  H   H1027     1.0  0.41568  0.28520  0.18110  1.0000
  H   H1028     1.0  0.28458  0.18118  0.33457  1.0000
  H   H1029     1.0  0.34463  0.22170  0.32899  1.0000
  H   H1030     1.0  0.30714  0.17094  0.34569  1.0000
  Fe  Fe91      1.0  0.22642  0.06786  0.36240  1.0000
  H   H1031     1.0  0.26341  0.11788  0.01426  1.0000
  H   H1032     1.0  0.33552  0.17737  0.35274  1.0000
  N   N44       1.0  0.31691  0.19258  0.31488  1.0000
  C   C622      1.0  0.30224  0.18379  0.29502  1.0000
  C   C623      1.0  0.33092  0.19178  0.29583  1.0000
  C   C624      1.0  0.31885  0.21052  0.31837  1.0000
  C   C625      1.0  0.31476  0.18441  0.34753  1.0000
  C   C626      1.0  0.28656  0.18447  0.30863  1.0000
  C   C627      1.0  0.32957  0.17420  0.28518  1.0000
  C   C628      1.0  0.33320  0.22205  0.33776  1.0000
  C   C629      1.0  0.32997  0.18532  0.36485  1.0000
  H   H1033     1.0  0.30394  0.18886  0.27005  1.0000
  H   H1034     1.0  0.29995  0.17036  0.29202  1.0000
  H   H1035     1.0  0.34218  0.19753  0.30926  1.0000
  H   H1036     1.0  0.33281  0.19924  0.27345  1.0000
  H   H1037     1.0  0.31962  0.21611  0.29402  1.0000
  H   H1038     1.0  0.30835  0.21164  0.33080  1.0000
  H   H1039     1.0  0.30823  0.18971  0.36460  1.0000
  C   C630      1.0  0.40752  0.11335  0.11326  1.0000
  H   H1040     1.0  0.38729  0.11705  0.07096  1.0000
  H   H1041     1.0  0.37313  0.09768  0.11956  1.0000
  H   H1042     1.0  0.41943  0.11516  0.12254  1.0000
  C   C631      1.0  0.36793  0.10406  0.10317  1.0000
  H   H1043     1.0  0.42320  0.14413  0.08544  1.0000
  H   H1044     1.0  0.35792  0.10615  0.11563  1.0000
  S   S185      1.0  0.37842  0.09547  0.01581  1.0000
  C   C632      1.0  0.38038  0.12044  0.09013  1.0000
  C   C633      1.0  0.38011  0.13614  0.13918  1.0000
  N   N45       1.0  0.39092  0.13206  0.11518  1.0000
  C   C634      1.0  0.40134  0.14800  0.09900  1.0000
  H   H1045     1.0  0.41092  0.13445  0.14513  1.0000
  H   H1046     1.0  0.35054  0.20332  0.12193  1.0000
  H   H1047     1.0  0.37275  0.12498  0.15319  1.0000
  C   C635      1.0  0.44391  0.06806  0.42235  1.0000
  H   H1048     1.0  0.37146  0.13997  0.12642  1.0000
  H   H1049     1.0  0.45742  0.30807  0.15201  1.0000
  H   H1050     1.0  0.32407  0.17353  0.02199  1.0000
  H   H1051     1.0  0.45146  0.09715  0.39704  1.0000
  H   H1052     1.0  0.34499  0.17916  0.02374  1.0000
  H   H1053     1.0  0.44500  0.02393  0.16086  1.0000
  Fe  Fe92      1.0  0.46326  0.03689  0.03851  1.0000
  H   H1054     1.0  0.40853  0.15733  0.11703  1.0000
  C   C636      1.0  0.41048  0.98328  0.11597  1.0000
  H   H1055     1.0  0.24607  0.09316  0.04000  1.0000
  H   H1056     1.0  0.27121  0.06866  0.05177  1.0000
  H   H1057     1.0  0.46077  0.07063  0.47513  1.0000
  C   C637      1.0  0.29998  0.09703  0.48640  1.0000
  C   C638      1.0  0.28344  0.09122  0.49131  1.0000
  H   H1058     1.0  0.33803  0.18653  0.14776  1.0000
  C   C639      1.0  0.23013  0.10641  0.23836  1.0000
  C   C640      1.0  0.42795  0.09002  0.44916  1.0000
  H   H1059     1.0  0.39823  0.14801  0.17656  1.0000
  N   N46       1.0  0.45359  0.08408  0.43955  1.0000
  H   H1060     1.0  0.37944  0.14975  0.18361  1.0000
  H   H1061     1.0  0.32732  0.16313  0.11116  1.0000
  C   C641      1.0  0.42345  0.27946  0.16912  1.0000
  C   C642      1.0  0.43128  0.27213  0.22130  1.0000
  H   H1062     1.0  0.44903  0.09961  0.47717  1.0000
  H   H1063     1.0  0.43454  0.00359  0.26780  1.0000
  H   H1064     1.0  0.41852  0.07785  0.44289  1.0000
  H   H1065     1.0  0.30538  0.04400  0.47644  1.0000
  H   H1066     1.0  0.42117  0.27495  0.23159  1.0000
  H   H1067     1.0  0.42481  0.02171  0.16649  1.0000
  H   H1068     1.0  0.28230  0.17931  0.07217  1.0000
  Fe  Fe93      1.0  0.37213  0.11759  0.00197  1.0000
  H   H1069     1.0  0.31450  0.19337  0.13194  1.0000
  C   C643      1.0  0.43611  0.02422  0.17937  1.0000
  C   C644      1.0  0.33488  0.07016  0.46780  1.0000
  H   H1070     1.0  0.44969  0.27894  0.14623  1.0000
  C   C645      1.0  0.23690  0.10299  0.26625  1.0000
  Fe  Fe94      1.0  0.22404  0.15618  0.13588  1.0000
  H   H1071     1.0  0.43983  0.03688  0.19014  1.0000
  C   C646      1.0  0.22677  0.04670  0.27191  1.0000
  H   H1072     1.0  0.45513  0.27573  0.23925  1.0000
  H   H1073     1.0  0.38331  0.06673  0.03715  1.0000
  H   H1074     1.0  0.29327  0.09764  0.01092  1.0000
  H   H1075     1.0  0.46340  0.07280  0.00347  1.0000
  H   H1076     1.0  0.28711  0.04254  0.49516  1.0000
  H   H1077     1.0  0.37579  0.30797  0.29042  1.0000
  H   H1078     1.0  0.23968  0.06919  0.00027  1.0000
  C   C647      1.0  0.45254  0.06197  0.39568  1.0000
  H   H1079     1.0  0.46233  0.11026  0.42902  1.0000
  C   C648      1.0  0.46027  0.09826  0.41612  1.0000
  S   S186      1.0  0.21566  0.17786  0.14239  1.0000
  H   H1080     1.0  0.44006  0.31322  0.15941  1.0000
  H   H1081     1.0  0.22086  0.05819  0.61451  1.0000
  Fe  Fe95      1.0  0.24362  0.04706  0.89744  1.0000
  S   S187      1.0  0.23707  0.06923  0.89625  1.0000
  S   S188      1.0  0.26599  0.04711  0.92035  1.0000
  C   C649      1.0  0.28783  0.15067  0.59668  1.0000
  Fe  Fe96      1.0  0.22817  0.06064  0.84605  1.0000
  H   H1082     1.0  0.27855  0.09651  0.51060  1.0000
  H   H1083     1.0  0.44881  0.24969  0.70048  1.0000
  S   S189      1.0  0.23677  0.03967  0.84600  1.0000
  C   C650      1.0  0.23114  0.08740  0.64262  1.0000
  S   S190      1.0  0.23724  0.13172  0.64929  1.0000
  H   H1084     1.0  0.27199  0.07998  0.89596  1.0000
  S   S191      1.0  0.24001  0.16726  0.62005  1.0000
  Fe  Fe97      1.0  0.22796  0.14015  0.60643  1.0000
  S   S192      1.0  0.23534  0.13159  0.55845  1.0000
  Fe  Fe98      1.0  0.24804  0.15846  0.66453  1.0000
  S   S193      1.0  0.27303  0.16277  0.68085  1.0000
  S   S194      1.0  0.22643  0.15681  0.69418  1.0000
  Fe  Fe99      1.0  0.43386  0.02675  0.55827  1.0000
  S   S195      1.0  0.44415  0.04773  0.59430  1.0000
  S   S196      1.0  0.41113  0.00444  0.56811  1.0000
  Fe  Fe100     1.0  0.44717  0.06436  0.55116  1.0000
  S   S197      1.0  0.44243  0.08842  0.55022  1.0000
  S   S198      1.0  0.43535  0.04339  0.51638  1.0000
  C   C651      1.0  0.35122  0.14423  0.81806  1.0000
  S   S199      1.0  0.36510  0.12207  0.95210  1.0000
  H   H1085     1.0  0.24328  0.01512  0.88563  1.0000
  Fe  Fe101     1.0  0.36793  0.15466  0.52100  1.0000
  C   C652      1.0  0.21662  0.06988  0.57207  1.0000
  S   S200      1.0  0.37280  0.17867  0.54969  1.0000
  Fe  Fe102     1.0  0.37644  0.14925  0.96483  1.0000
  S   S201      1.0  0.39024  0.16593  0.92385  1.0000
  H   H1086     1.0  0.27750  0.15444  0.59964  1.0000
  H   H1087     1.0  0.26764  0.99622  0.94936  1.0000
  H   H1088     1.0  0.34864  0.10947  0.86706  1.0000
  S   S202      1.0  0.35726  0.12863  0.53992  1.0000
  Fe  Fe103     1.0  0.36974  0.22150  0.79766  1.0000
  S   S203      1.0  0.36668  0.24455  0.78058  1.0000
  S   S204      1.0  0.36441  0.21399  0.85045  1.0000
  Fe  Fe104     1.0  0.37554  0.21129  0.72896  1.0000
  S   S205      1.0  0.37311  0.23341  0.70684  1.0000
  S   S206      1.0  0.37911  0.18997  0.70208  1.0000
  Fe  Fe105     1.0  0.38802  0.24842  0.74826  1.0000
  S   S207      1.0  0.40897  0.27266  0.73496  1.0000
  Fe  Fe106     1.0  0.35219  0.22798  0.74070  1.0000
  S   S208      1.0  0.32918  0.22936  0.72404  1.0000
  S   S209      1.0  0.39204  0.22633  0.76805  1.0000
  S   S210      1.0  0.35360  0.20485  0.76026  1.0000
  C   C653      1.0  0.41552  0.29309  0.75271  1.0000
  C   C654      1.0  0.40856  0.29665  0.78095  1.0000
  H   H1089     1.0  0.44425  0.01196  0.73321  1.0000
  H   H1090     1.0  0.23975  0.10584  0.60302  1.0000
  H   H1091     1.0  0.39884  0.28683  0.79270  1.0000
  C   C655      1.0  0.32293  0.23118  0.81377  1.0000
  C   C656      1.0  0.37354  0.18099  0.59229  1.0000
  C   C657      1.0  0.37514  0.16900  0.61225  1.0000
  C   C658      1.0  0.37657  0.17180  0.64594  1.0000
  C   C659      1.0  0.37614  0.18645  0.65998  1.0000
  C   C660      1.0  0.37405  0.19821  0.64011  1.0000
  C   C661      1.0  0.37292  0.19555  0.60638  1.0000
  H   H1092     1.0  0.37571  0.15778  0.60164  1.0000
  H   H1093     1.0  0.37825  0.16267  0.66114  1.0000
  H   H1094     1.0  0.37358  0.20947  0.65062  1.0000
  H   H1095     1.0  0.37164  0.20486  0.59105  1.0000
  C   C662      1.0  0.38299  0.17934  0.90375  1.0000
  C   C663      1.0  0.38845  0.18452  0.87216  1.0000
  C   C664      1.0  0.38285  0.19508  0.85541  1.0000
  C   C665      1.0  0.37193  0.20080  0.87038  1.0000
  C   C666      1.0  0.36654  0.19569  0.90203  1.0000
  C   C667      1.0  0.37195  0.18493  0.91856  1.0000
  H   H1096     1.0  0.39707  0.18035  0.86058  1.0000
  H   H1097     1.0  0.38715  0.19897  0.83110  1.0000
  H   H1098     1.0  0.35816  0.20011  0.91387  1.0000
  H   H1099     1.0  0.36781  0.18123  0.94298  1.0000
  C   C668      1.0  0.42489  0.09148  0.53895  1.0000
  C   C669      1.0  0.42508  0.10771  0.53868  1.0000
  C   C670      1.0  0.41162  0.11078  0.52918  1.0000
  H   H1100     1.0  0.44233  0.04318  0.92367  1.0000
  H   H1101     1.0  0.43541  0.09182  0.94694  1.0000
  C   C671      1.0  0.41101  0.07831  0.52949  1.0000
  H   H1102     1.0  0.43572  0.11802  0.54589  1.0000
  H   H1103     1.0  0.30094  0.05523  0.54589  1.0000
  H   H1104     1.0  0.28569  0.19969  0.76389  1.0000
  H   H1105     1.0  0.25151  0.99309  0.83433  1.0000
  H   H1106     1.0  0.26923  0.01624  0.93418  1.0000
  H   H1107     1.0  0.33048  0.23092  0.79235  1.0000
  Fe  Fe107     1.0  0.34318  0.12355  0.97527  1.0000
  C   C672      1.0  0.28849  0.18166  0.69140  1.0000
  C   C673      1.0  0.28695  0.19697  0.68963  1.0000
  C   C674      1.0  0.29968  0.21163  0.69883  1.0000
  C   C675      1.0  0.31395  0.21104  0.70981  1.0000
  C   C676      1.0  0.31552  0.19574  0.71095  1.0000
  C   C677      1.0  0.30283  0.18113  0.70191  1.0000
  H   H1108     1.0  0.27595  0.19749  0.68143  1.0000
  H   H1109     1.0  0.29838  0.22344  0.69786  1.0000
  H   H1110     1.0  0.32644  0.19511  0.71907  1.0000
  H   H1111     1.0  0.30410  0.16932  0.70323  1.0000
  C   C678      1.0  0.22506  0.11363  0.53481  1.0000
  H   H1112     1.0  0.34384  0.16343  0.79847  1.0000
  C   C679      1.0  0.23140  0.10535  0.98566  1.0000
  C   C680      1.0  0.32912  0.07195  0.56059  1.0000
  C   C681      1.0  0.45310  0.01466  0.71296  1.0000
  H   H1113     1.0  0.25510  0.01460  0.82949  1.0000
  H   H1114     1.0  0.29816  0.03168  0.51216  1.0000
  H   H1115     1.0  0.43730  0.99474  0.58271  1.0000
  N   N47       1.0  0.32533  0.06384  0.52748  1.0000
  C   C682      1.0  0.23576  0.10163  0.76075  1.0000
  H   H1116     1.0  0.34455  0.24065  0.84355  1.0000
  H   H1117     1.0  0.28856  0.14741  0.57089  1.0000
  H   H1118     1.0  0.33921  0.14803  0.57678  1.0000
  H   H1119     1.0  0.42764  0.03756  0.95520  1.0000
  H   H1120     1.0  0.41201  0.12334  0.52918  1.0000
  C   C683      1.0  0.28159  0.06658  0.92661  1.0000
  C   C684      1.0  0.29417  0.06787  0.94698  1.0000
  C   C685      1.0  0.30636  0.08341  0.95341  1.0000
  C   C686      1.0  0.30600  0.09771  0.93938  1.0000
  C   C687      1.0  0.29360  0.09636  0.91854  1.0000
  C   C688      1.0  0.28146  0.08086  0.91210  1.0000
  H   H1121     1.0  0.29440  0.05684  0.95811  1.0000
  H   H1122     1.0  0.43822  0.22808  0.65198  1.0000
  H   H1123     1.0  0.24163  0.11543  0.97601  1.0000
  H   H1124     1.0  0.36597  0.14727  0.87564  1.0000
  H   H1125     1.0  0.44755  0.04107  0.96510  1.0000
  H   H1126     1.0  0.28883  0.18687  0.85046  1.0000
  C   C689      1.0  0.26178  0.00524  0.94822  1.0000
  H   H1127     1.0  0.28266  0.11762  0.96724  1.0000
  H   H1128     1.0  0.27556  0.99931  0.89444  1.0000
  C   C690      1.0  0.35897  0.12136  0.86381  1.0000
  H   H1129     1.0  0.43046  0.22180  0.70033  1.0000
  H   H1130     1.0  0.32895  0.12841  0.59509  1.0000
  H   H1131     1.0  0.32773  0.24442  0.86122  1.0000
  C   C691      1.0  0.31682  0.14539  0.60299  1.0000
  C   C692      1.0  0.34759  0.05250  0.53324  1.0000
  H   H1132     1.0  0.45583  0.09446  0.98581  1.0000
  H   H1133     1.0  0.23163  0.09648  0.66243  1.0000
  C   C693      1.0  0.41196  0.98700  0.58762  1.0000
  C   C694      1.0  0.45746  0.00766  0.65580  1.0000
  C   C695      1.0  0.34162  0.15552  0.86432  1.0000
  H   H1134     1.0  0.32933  0.14242  0.79302  1.0000
  C   C696      1.0  0.30507  0.20362  0.79699  1.0000
  H   H1135     1.0  0.38695  0.07106  0.51275  1.0000
  N   N48       1.0  0.31882  0.16339  0.60298  1.0000
  C   C697      1.0  0.32952  0.17203  0.63071  1.0000
  H   H1136     1.0  0.35568  0.06162  0.51605  1.0000
  H   H1137     1.0  0.32464  0.16560  0.65393  1.0000
  C   C698      1.0  0.32664  0.17188  0.57209  1.0000
  Fe  Fe108     1.0  0.33903  0.12433  0.50134  1.0000
  H   H1138     1.0  0.31377  0.20363  0.77757  1.0000
  H   H1139     1.0  0.22532  0.28366  0.58142  1.0000
  H   H1140     1.0  0.31931  0.15074  0.53728  1.0000
  H   H1141     1.0  0.33973  0.19827  0.61585  1.0000
  H   H1142     1.0  0.34151  0.17160  0.62747  1.0000
  H   H1143     1.0  0.34721  0.15001  0.76880  1.0000
  C   C699      1.0  0.29271  0.20928  0.78171  1.0000
  H   H1144     1.0  0.33873  0.25616  0.82758  1.0000
  C   C700      1.0  0.32735  0.12604  0.85082  1.0000
  H   H1145     1.0  0.42421  0.99070  0.66150  1.0000
  H   H1146     1.0  0.33938  0.17351  0.57095  1.0000
  H   H1147     1.0  0.23867  0.00577  0.94019  1.0000
  H   H1148     1.0  0.43064  0.26458  0.68366  1.0000
  H   H1149     1.0  0.30056  0.16588  0.63530  1.0000
  H   H1150     1.0  0.36340  0.15410  0.82009  1.0000
  H   H1151     1.0  0.32976  0.18603  0.85497  1.0000
  H   H1152     1.0  0.31196  0.18725  0.87074  1.0000
  H   H1153     1.0  0.35319  0.16630  0.86330  1.0000
  H   H1154     1.0  0.40779  0.21336  0.61180  1.0000
  C   C701      1.0  0.41286  0.23290  0.68733  1.0000
  H   H1155     1.0  0.32670  0.09104  0.59258  1.0000
  H   H1156     1.0  0.43530  0.01870  0.63646  1.0000
  H   H1157     1.0  0.31309  0.18001  0.82920  1.0000
  H   H1158     1.0  0.30686  0.16284  0.53786  1.0000
  S   S211      1.0  0.22010  0.02992  0.91784  1.0000
  C   C702      1.0  0.43048  0.00153  0.67760  1.0000
  H   H1159     1.0  0.43498  0.06629  0.93829  1.0000
  H   H1160     1.0  0.46280  0.02144  0.65429  1.0000
  H   H1161     1.0  0.30486  0.06903  0.51317  1.0000
  H   H1162     1.0  0.45735  0.25336  0.65984  1.0000
  H   H1163     1.0  0.32331  0.14420  0.90229  1.0000
  C   C703      1.0  0.23680  0.11490  0.88170  1.0000
  H   H1164     1.0  0.45080  0.11178  0.94261  1.0000
  H   H1165     1.0  0.39968  0.25628  0.67106  1.0000
  C   C704      1.0  0.41052  0.24434  0.63515  1.0000
  C   C705      1.0  0.30762  0.05856  0.52243  1.0000
  H   H1166     1.0  0.39517  0.25811  0.62996  1.0000
  H   H1167     1.0  0.43380  0.30358  0.71626  1.0000
  H   H1168     1.0  0.25475  0.10406  0.62745  1.0000
  H   H1169     1.0  0.33943  0.19514  0.65832  1.0000
  H   H1170     1.0  0.31703  0.09971  0.83852  1.0000
  H   H1171     1.0  0.27337  0.08875  0.97340  1.0000
  H   H1172     1.0  0.45838  0.27021  0.68599  1.0000
  C   C706      1.0  0.24939  0.00654  0.87933  1.0000
  C   C707      1.0  0.39756  0.08138  0.52001  1.0000
  H   H1173     1.0  0.43476  0.23635  0.61598  1.0000
  C   C708      1.0  0.22404  0.09094  0.96671  1.0000
  H   H1174     1.0  0.22304  0.08327  0.56798  1.0000
  H   H1175     1.0  0.28505  0.13940  0.61154  1.0000
  H   H1176     1.0  0.33341  0.15890  0.84918  1.0000
  H   H1177     1.0  0.22695  0.24938  0.57386  1.0000
  C   C709      1.0  0.22453  0.11325  0.85540  1.0000
  H   H1178     1.0  0.32132  0.19279  0.63909  1.0000
  N   N49       1.0  0.31371  0.21378  0.82570  1.0000
  H   H1179     1.0  0.28733  0.19675  0.88768  1.0000
  H   H1180     1.0  0.28421  0.21088  0.79972  1.0000
  H   H1181     1.0  0.32399  0.12078  0.87552  1.0000
  H   H1182     1.0  0.36420  0.12223  0.83915  1.0000
  S   S212      1.0  0.23735  0.08089  0.80817  1.0000
  C   C710      1.0  0.34219  0.15031  0.79348  1.0000
  H   H1183     1.0  0.33233  0.21451  0.85823  1.0000
  H   H1184     1.0  0.34945  0.13355  0.89818  1.0000
  C   C711      1.0  0.33220  0.14199  0.59853  1.0000
  H   H1185     1.0  0.35316  0.13362  0.80641  1.0000
  C   C712      1.0  0.21508  0.23508  0.61537  1.0000
  C   C713      1.0  0.33493  0.15466  0.89919  1.0000
  H   H1186     1.0  0.31810  0.13086  0.84440  1.0000
  C   C714      1.0  0.42984  0.01697  0.66104  1.0000
  H   H1187     1.0  0.23498  0.11882  0.72446  1.0000
  H   H1188     1.0  0.29326  0.10737  0.90755  1.0000
  N   N50       1.0  0.34351  0.14007  0.85121  1.0000
  H   H1189     1.0  0.36826  0.12105  0.88045  1.0000
  C   C715      1.0  0.30271  0.21460  0.85296  1.0000
  C   C716      1.0  0.43501  0.25759  0.66550  1.0000
  H   H1190     1.0  0.41437  0.27066  0.64478  1.0000
  H   H1191     1.0  0.43539  0.02849  0.67562  1.0000
  C   C717      1.0  0.35460  0.13626  0.87331  1.0000
  H   H1192     1.0  0.42283  0.99961  0.69975  1.0000
  H   H1193     1.0  0.31102  0.13952  0.62609  1.0000
  H   H1194     1.0  0.22765  0.12587  0.84572  1.0000
  H   H1195     1.0  0.24651  0.11456  0.51019  1.0000
  N   N51       1.0  0.24305  0.99142  0.90045  1.0000
  H   H1196     1.0  0.31900  0.11262  0.80490  1.0000
  H   H1197     1.0  0.34341  0.15394  0.91734  1.0000
  C   C718      1.0  0.32570  0.20713  0.83721  1.0000
  C   C719      1.0  0.22705  0.08775  0.77958  1.0000
  H   H1198     1.0  0.43858  0.26555  0.64362  1.0000
  H   H1199     1.0  0.41061  0.06575  0.52951  1.0000
  H   H1200     1.0  0.30949  0.21907  0.87567  1.0000
  C   C720      1.0  0.44025  0.04545  0.94956  1.0000
  H   H1201     1.0  0.41589  0.24780  0.61050  1.0000
  H   H1202     1.0  0.21649  0.26290  0.53396  1.0000
  H   H1203     1.0  0.30297  0.17669  0.59864  1.0000
  H   H1204     1.0  0.41043  0.20554  0.65072  1.0000
  Fe  Fe109     1.0  0.21528  0.13057  0.67578  1.0000
  C   C721      1.0  0.32515  0.11140  0.82704  1.0000
  Fe  Fe110     1.0  0.37219  0.12240  0.50121  1.0000
  S   S213      1.0  0.32018  0.11767  0.94831  1.0000
  C   C722      1.0  0.24473  0.99696  0.93549  1.0000
  H   H1205     1.0  0.31479  0.23701  0.80533  1.0000
  N   N52       1.0  0.44685  0.00222  0.68564  1.0000
  S   S214      1.0  0.35427  0.15091  0.98598  1.0000
  H   H1206     1.0  0.33303  0.16627  0.90481  1.0000
  C   C723      1.0  0.32989  0.04892  0.52718  1.0000
  C   C724      1.0  0.22812  0.10805  0.73862  1.0000
  H   H1207     1.0  0.26122  0.00976  0.97338  1.0000
  H   H1208     1.0  0.31083  0.08308  0.56454  1.0000
  H   H1209     1.0  0.29878  0.19034  0.80261  1.0000
  H   H1210     1.0  0.26208  0.01414  0.88368  1.0000
  C   C725      1.0  0.32380  0.08657  0.56725  1.0000
  C   C726      1.0  0.26337  0.08835  0.98968  1.0000
  H   H1211     1.0  0.40926  0.24182  0.70175  1.0000
  H   H1212     1.0  0.29852  0.22093  0.76801  1.0000
  C   C727      1.0  0.33248  0.19058  0.63590  1.0000
  H   H1213     1.0  0.39961  0.23293  0.63159  1.0000
  C   C728      1.0  0.28834  0.19839  0.86101  1.0000
  H   H1214     1.0  0.32274  0.03988  0.54575  1.0000
  C   C729      1.0  0.42647  0.98544  0.59218  1.0000
  C   C730      1.0  0.30293  0.16496  0.60888  1.0000
  H   H1215     1.0  0.31590  0.08435  0.96945  1.0000
  C   C731      1.0  0.31938  0.18900  0.84844  1.0000
  H   H1216     1.0  0.45495  0.02738  0.70494  1.0000
  H   H1217     1.0  0.33475  0.20835  0.81777  1.0000
  H   H1218     1.0  0.30874  0.13815  0.58356  1.0000
  H   H1219     1.0  0.23618  0.07881  0.65280  1.0000
  H   H1220     1.0  0.27707  0.19936  0.85362  1.0000
  H   H1221     1.0  0.29764  0.22404  0.84758  1.0000
  C   C732      1.0  0.33401  0.24359  0.83837  1.0000
  H   H1222     1.0  0.32365  0.06264  0.57990  1.0000
  H   H1223     1.0  0.43683  0.98499  0.74593  1.0000
  H   H1224     1.0  0.33609  0.10945  0.82016  1.0000
  H   H1225     1.0  0.43762  0.06455  0.98038  1.0000
  H   H1226     1.0  0.24851  0.10757  0.76344  1.0000
  C   C733      1.0  0.21774  0.24952  0.59201  1.0000
  C   C734      1.0  0.42874  0.23013  0.63867  1.0000
  H   H1227     1.0  0.33979  0.14574  0.62021  1.0000
  H   H1228     1.0  0.40130  0.22284  0.68114  1.0000
  C   C735      1.0  0.39773  0.09761  0.51978  1.0000
  S   S215      1.0  0.31262  0.11234  0.51279  1.0000
  H   H1229     1.0  0.41718  0.01513  0.65774  1.0000
  H   H1230     1.0  0.42650  0.23463  0.73138  1.0000
  H   H1231     1.0  0.33031  0.09722  0.55150  1.0000
  H   H1232     1.0  0.22367  0.26112  0.60601  1.0000
  H   H1233     1.0  0.24543  0.08806  0.59851  1.0000
  C   C736      1.0  0.45063  0.25735  0.67869  1.0000
  H   H1234     1.0  0.32679  0.18469  0.57136  1.0000
  N   N53       1.0  0.42199  0.24108  0.65729  1.0000
  C   C737      1.0  0.42126  0.22568  0.71123  1.0000
  C   C738      1.0  0.45924  0.09330  0.96010  1.0000
  C   C739      1.0  0.24765  0.00314  0.84252  1.0000
  C   C740      1.0  0.44511  0.98498  0.69512  1.0000
  H   H1235     1.0  0.23523  0.00011  0.83494  1.0000
  H   H1236     1.0  0.21843  0.13968  0.87777  1.0000
  C   C741      1.0  0.23377  0.10796  0.51244  1.0000
  C   C742      1.0  0.41662  0.21275  0.62923  1.0000
  C   C743      1.0  0.31910  0.16332  0.54025  1.0000
  C   C744      1.0  0.40473  0.25815  0.64622  1.0000
  H   H1237     1.0  0.25724  0.09524  0.97678  1.0000
  H   H1238     1.0  0.24923  0.06541  0.96468  1.0000
  H   H1239     1.0  0.23671  0.10264  0.88844  1.0000
  H   H1240     1.0  0.22410  0.06362  0.56090  1.0000
  H   H1241     1.0  0.41237  0.21417  0.72186  1.0000
  S   S216      1.0  0.45710  0.02480  0.54593  1.0000
  S   S217      1.0  0.38029  0.10055  0.50732  1.0000
  C   C745      1.0  0.44277  0.06374  0.95592  1.0000
  C   C746      1.0  0.25138  0.07015  0.99001  1.0000
  H   H1242     1.0  0.34217  0.07707  0.56481  1.0000
  H   H1243     1.0  0.22615  0.23750  0.62900  1.0000
  H   H1244     1.0  0.24891  0.12202  0.87175  1.0000
  H   H1245     1.0  0.23882  0.98630  0.95179  1.0000
  H   H1246     1.0  0.22867  0.09002  0.94284  1.0000
  C   C747      1.0  0.24318  0.09677  0.61599  1.0000
  H   H1247     1.0  0.45043  0.00348  0.63343  1.0000
  H   H1248     1.0  0.21943  0.99188  0.89728  1.0000
  H   H1249     1.0  0.23513  0.12169  0.90353  1.0000
  C   C748      1.0  0.42827  0.30611  0.73805  1.0000
  H   H1250     1.0  0.32620  0.17073  0.51968  1.0000
  H   H1251     1.0  0.29831  0.12374  0.99688  1.0000
  H   H1252     1.0  0.45738  0.07443  0.90114  1.0000
  H   H1253     1.0  0.35103  0.05675  0.55844  1.0000
  Fe  Fe111     1.0  0.45978  0.04331  0.50714  1.0000
  C   C749      1.0  0.26897  0.98651  0.88564  1.0000
  C   C750      1.0  0.44802  0.09829  0.93911  1.0000
  H   H1254     1.0  0.34736  0.08255  0.51016  1.0000
  H   H1255     1.0  0.44942  0.09605  0.91294  1.0000
  H   H1256     1.0  0.34967  0.04082  0.52970  1.0000
  H   H1257     1.0  0.21750  0.29044  0.54802  1.0000
  H   H1258     1.0  0.42300  0.20558  0.61697  1.0000
  H   H1259     1.0  0.22697  0.10611  0.83481  1.0000
  H   H1260     1.0  0.27117  0.98578  0.85921  1.0000
  H   H1261     1.0  0.45670  0.98452  0.70154  1.0000
  H   H1262     1.0  0.28760  0.13660  0.98956  1.0000
  C   C751      1.0  0.28635  0.12347  0.99135  1.0000
  C   C752      1.0  0.22546  0.98296  0.89393  1.0000
  N   N54       1.0  0.45963  0.07634  0.95330  1.0000
  Fe  Fe112     1.0  0.21726  0.16370  0.64820  1.0000
  H   H1263     1.0  0.22139  0.06668  0.69620  1.0000
  C   C753      1.0  0.41434  0.31291  0.79434  1.0000
  H   H1264     1.0  0.32703  0.04203  0.50377  1.0000
  C   C754      1.0  0.33475  0.07650  0.50282  1.0000
  H   H1265     1.0  0.33041  0.08676  0.50183  1.0000
  C   C755      1.0  0.29935  0.04337  0.50012  1.0000
  H   H1266     1.0  0.23956  0.35651  0.08786  1.0000
  S   S218      1.0  0.44456  0.38616  0.24386  1.0000
  H   H1267     1.0  0.23987  0.41436  0.38542  1.0000
  Fe  Fe113     1.0  0.44332  0.40378  0.28308  1.0000
  S   S219      1.0  0.42229  0.41137  0.28723  1.0000
  C   C756      1.0  0.46097  0.49341  0.08354  1.0000
  H   H1268     1.0  0.43238  0.53026  0.42282  1.0000
  Fe  Fe114     1.0  0.24203  0.38607  0.47186  1.0000
  H   H1269     1.0  0.44269  0.44152  0.25395  1.0000
  C   C757      1.0  0.41068  0.52628  0.47842  1.0000
  H   H1270     1.0  0.41033  0.34932  0.36773  1.0000
  C   C758      1.0  0.46064  0.49253  0.24616  1.0000
  H   H1271     1.0  0.25482  0.43292  0.40058  1.0000
  H   H1272     1.0  0.42077  0.44744  0.23531  1.0000
  S   S220      1.0  0.22754  0.36739  0.43486  1.0000
  Fe  Fe115     1.0  0.36189  0.45721  0.43855  1.0000
  S   S221      1.0  0.37138  0.44393  0.47348  1.0000
  S   S222      1.0  0.33527  0.45277  0.43394  1.0000
  Fe  Fe116     1.0  0.39561  0.47922  0.41312  1.0000
  S   S223      1.0  0.40678  0.46718  0.44692  1.0000
  S   S224      1.0  0.41632  0.49915  0.38628  1.0000
  Fe  Fe117     1.0  0.38776  0.44319  0.43238  1.0000
  S   S225      1.0  0.39633  0.42215  0.42549  1.0000
  Fe  Fe118     1.0  0.39001  0.46912  0.48563  1.0000
  H   H1273     1.0  0.39480  0.47006  0.24769  1.0000
  S   S226      1.0  0.37727  0.45478  0.39605  1.0000
  S   S227      1.0  0.37974  0.48282  0.45323  1.0000
  Fe  Fe119     1.0  0.45052  0.53746  0.21010  1.0000
  H   H1274     1.0  0.45730  0.45994  0.23661  1.0000
  S   S228      1.0  0.42783  0.52406  0.24004  1.0000
  H   H1275     1.0  0.46181  0.40796  0.42337  1.0000
  H   H1276     1.0  0.26384  0.39848  0.03494  1.0000
  S   S229      1.0  0.45404  0.52114  0.17025  1.0000
  C   C759      1.0  0.40751  0.49910  0.03975  1.0000
  C   C760      1.0  0.42073  0.50789  0.02033  1.0000
  C   C761      1.0  0.43427  0.52017  0.03423  1.0000
  C   C762      1.0  0.43502  0.52330  0.06784  1.0000
  C   C763      1.0  0.42203  0.51406  0.08741  1.0000
  C   C764      1.0  0.40828  0.50219  0.07335  1.0000
  C   C765      1.0  0.44873  0.44161  0.43331  1.0000
  H   H1277     1.0  0.44423  0.52728  0.01888  1.0000
  H   H1278     1.0  0.42238  0.51638  0.11327  1.0000
  H   H1279     1.0  0.39811  0.49547  0.08860  1.0000
  C   C766      1.0  0.41909  0.50607  0.34562  1.0000
  C   C767      1.0  0.43439  0.51670  0.33523  1.0000
  C   C768      1.0  0.43729  0.52247  0.30316  1.0000
  C   C769      1.0  0.42484  0.51780  0.28114  1.0000
  C   C770      1.0  0.40949  0.50739  0.29169  1.0000
  C   C771      1.0  0.40664  0.50143  0.32366  1.0000
  H   H1280     1.0  0.44410  0.52046  0.35206  1.0000
  H   H1281     1.0  0.44912  0.53056  0.29546  1.0000
  H   H1282     1.0  0.39976  0.50380  0.27491  1.0000
  H   H1283     1.0  0.39478  0.49340  0.33135  1.0000
  C   C772      1.0  0.28744  0.41063  0.46334  1.0000
  C   C773      1.0  0.28785  0.42550  0.45039  1.0000
  C   C774      1.0  0.30254  0.43815  0.44152  1.0000
  C   C775      1.0  0.31710  0.43628  0.44578  1.0000
  C   C776      1.0  0.31668  0.42146  0.45900  1.0000
  C   C777      1.0  0.30198  0.40876  0.46761  1.0000
  H   H1284     1.0  0.27690  0.42738  0.44750  1.0000
  H   H1285     1.0  0.30267  0.44957  0.43151  1.0000
  H   H1286     1.0  0.32770  0.41976  0.46246  1.0000
  C   C778      1.0  0.37617  0.32075  0.29482  1.0000
  C   C779      1.0  0.41581  0.41493  0.32597  1.0000
  C   C780      1.0  0.40632  0.42430  0.32917  1.0000
  C   C781      1.0  0.40062  0.42697  0.35976  1.0000
  C   C782      1.0  0.40395  0.41979  0.38711  1.0000
  C   C783      1.0  0.41341  0.41036  0.38387  1.0000
  C   C784      1.0  0.41953  0.40813  0.35341  1.0000
  H   H1287     1.0  0.40323  0.42939  0.30794  1.0000
  H   H1288     1.0  0.39325  0.43415  0.36206  1.0000
  H   H1289     1.0  0.41593  0.40471  0.40499  1.0000
  H   H1290     1.0  0.42671  0.40076  0.35106  1.0000
  H   H1291     1.0  0.42378  0.34382  0.34196  1.0000
  H   H1292     1.0  0.40161  0.33055  0.28665  1.0000
  H   H1293     1.0  0.24889  0.37846  0.09049  1.0000
  H   H1294     1.0  0.42976  0.34406  0.23382  1.0000
  H   H1295     1.0  0.42094  0.35788  0.29742  1.0000
  N   N55       1.0  0.26320  0.40116  0.36039  1.0000
  C   C785      1.0  0.27441  0.40229  0.33230  1.0000
  C   C786      1.0  0.24652  0.39046  0.35042  1.0000
  C   C787      1.0  0.26736  0.39345  0.38927  1.0000
  C   C788      1.0  0.26455  0.41847  0.36971  1.0000
  C   C789      1.0  0.29232  0.41081  0.33964  1.0000
  C   C790      1.0  0.23956  0.39734  0.32315  1.0000
  C   C791      1.0  0.26797  0.37616  0.38369  1.0000
  C   C792      1.0  0.25215  0.41964  0.39474  1.0000
  H   H1296     1.0  0.27228  0.38978  0.32177  1.0000
  H   H1297     1.0  0.27220  0.40940  0.31220  1.0000
  H   H1298     1.0  0.23816  0.38783  0.37155  1.0000
  H   H1299     1.0  0.24585  0.37807  0.34171  1.0000
  H   H1300     1.0  0.27898  0.40173  0.39930  1.0000
  H   H1301     1.0  0.25860  0.39191  0.40927  1.0000
  H   H1302     1.0  0.27639  0.42571  0.38026  1.0000
  H   H1303     1.0  0.26383  0.42550  0.34801  1.0000
  H   H1304     1.0  0.29928  0.41130  0.31697  1.0000
  H   H1305     1.0  0.29563  0.42381  0.34831  1.0000
  H   H1306     1.0  0.29626  0.40385  0.35735  1.0000
  S   S230      1.0  0.22739  0.40170  0.46802  1.0000
  H   H1307     1.0  0.37279  0.34716  0.33000  1.0000
  C   C793      1.0  0.44392  0.50965  0.46196  1.0000
  H   H1308     1.0  0.27178  0.37233  0.40650  1.0000
  H   H1309     1.0  0.27671  0.37611  0.36462  1.0000
  H   H1310     1.0  0.25609  0.36660  0.37818  1.0000
  H   H1311     1.0  0.42684  0.47425  0.33198  1.0000
  H   H1312     1.0  0.44588  0.48979  0.31929  1.0000
  H   H1313     1.0  0.44158  0.49704  0.27034  1.0000
  H   H1314     1.0  0.38011  0.36907  0.36973  1.0000
  H   H1315     1.0  0.39562  0.32662  0.32735  1.0000
  H   H1316     1.0  0.39620  0.36107  0.22874  1.0000
  C   C794      1.0  0.43455  0.33150  0.27400  1.0000
  H   H1317     1.0  0.28470  0.37983  0.08546  1.0000
  C   C795      1.0  0.40721  0.47235  0.23985  1.0000
  S   S231      1.0  0.45223  0.53915  0.08398  1.0000
  N   N56       1.0  0.27305  0.37914  0.04009  1.0000
  H   H1318     1.0  0.27141  0.39793  0.07392  1.0000
  H   H1319     1.0  0.29873  0.41183  0.05692  1.0000
  H   H1320     1.0  0.45126  0.46642  0.28911  1.0000
  C   C796      1.0  0.41939  0.35380  0.34818  1.0000
  H   H1321     1.0  0.44723  0.48804  0.48043  1.0000
  S   S232      1.0  0.44982  0.34930  0.29112  1.0000
  H   H1322     1.0  0.40654  0.46391  0.21902  1.0000
  H   H1323     1.0  0.43487  0.44633  0.39443  1.0000
  H   H1324     1.0  0.39026  0.37835  0.33327  1.0000
  H   H1325     1.0  0.38509  0.34327  0.35811  1.0000
  H   H1326     1.0  0.43807  0.50255  0.43992  1.0000
  H   H1327     1.0  0.24769  0.36905  0.03361  1.0000
  H   H1328     1.0  0.42949  0.45034  0.43408  1.0000
  Fe  Fe120     1.0  0.45895  0.54275  0.13763  1.0000
  H   H1329     1.0  0.45811  0.32436  0.17987  1.0000
  S   S233      1.0  0.22513  0.38429  0.02114  1.0000
  H   H1330     1.0  0.28747  0.42268  0.04081  1.0000
  C   C797      1.0  0.38539  0.35157  0.33780  1.0000
  H   H1331     1.0  0.44018  0.54699  0.45085  1.0000
  H   H1332     1.0  0.24623  0.39836  0.29999  1.0000
  H   H1333     1.0  0.44484  0.49192  0.02791  1.0000
  C   C798      1.0  0.28617  0.35918  0.05817  1.0000
  C   C799      1.0  0.38954  0.36919  0.35206  1.0000
  H   H1334     1.0  0.37907  0.35299  0.27703  1.0000
  H   H1335     1.0  0.39609  0.37128  0.28357  1.0000
  C   C800      1.0  0.25662  0.36691  0.04885  1.0000
  C   C801      1.0  0.43904  0.47636  0.32301  1.0000
  H   H1336     1.0  0.25254  0.41355  0.41771  1.0000
  Fe  Fe121     1.0  0.45689  0.37701  0.28069  1.0000
  H   H1337     1.0  0.39530  0.34130  0.24130  1.0000
  S   S234      1.0  0.26928  0.39414  0.47533  1.0000
  C   C802      1.0  0.39313  0.33205  0.30497  1.0000
  N   N57       1.0  0.43769  0.52307  0.46985  1.0000
  H   H1338     1.0  0.45916  0.55045  0.40821  1.0000
  N   N58       1.0  0.39599  0.35011  0.31028  1.0000
  H   H1339     1.0  0.37263  0.32472  0.27199  1.0000
  C   C803      1.0  0.42651  0.33235  0.24605  1.0000
  S   S235      1.0  0.45389  0.55888  0.17638  1.0000
  C   C804      1.0  0.45758  0.54013  0.42502  1.0000
  S   S236      1.0  0.38954  0.48486  0.02301  1.0000
  H   H1340     1.0  0.29779  0.38527  0.05146  1.0000
  H   H1341     1.0  0.22715  0.38854  0.31883  1.0000
  C   C805      1.0  0.41332  0.35935  0.31769  1.0000
  C   C806      1.0  0.39214  0.35756  0.28059  1.0000
  N   N59       1.0  0.43293  0.47054  0.26187  1.0000
  C   C807      1.0  0.41617  0.46935  0.26883  1.0000
  C   C808      1.0  0.43894  0.46584  0.29239  1.0000
  C   C809      1.0  0.43231  0.45838  0.23470  1.0000
  C   C810      1.0  0.44275  0.48813  0.25197  1.0000
  H   H1342     1.0  0.40083  0.37342  0.36552  1.0000
  S   S237      1.0  0.21997  0.33859  0.02594  1.0000
  H   H1343     1.0  0.25953  0.36545  0.10166  1.0000
  H   H1344     1.0  0.44487  0.47252  0.34284  1.0000
  H   H1345     1.0  0.40876  0.45693  0.27881  1.0000
  H   H1346     1.0  0.41601  0.47856  0.28765  1.0000
  C   C811      1.0  0.44128  0.53526  0.44240  1.0000
  H   H1347     1.0  0.43164  0.45266  0.29839  1.0000
  H   H1348     1.0  0.29564  0.35895  0.07442  1.0000
  H   H1349     1.0  0.45807  0.52967  0.40984  1.0000
  H   H1350     1.0  0.42930  0.36454  0.35869  1.0000
  C   C812      1.0  0.45633  0.49518  0.01449  1.0000
  H   H1351     1.0  0.43832  0.49126  0.22918  1.0000
  H   H1352     1.0  0.41246  0.48544  0.23183  1.0000
  H   H1353     1.0  0.28932  0.35602  0.03360  1.0000
  H   H1354     1.0  0.45146  0.44640  0.45857  1.0000
  H   H1355     1.0  0.45171  0.41315  0.45774  1.0000
  H   H1356     1.0  0.43284  0.46415  0.21067  1.0000
  H   H1357     1.0  0.40810  0.31885  0.21225  1.0000
  C   C813      1.0  0.28937  0.41083  0.03934  1.0000
  H   H1358     1.0  0.28921  0.38274  0.99857  1.0000
  C   C814      1.0  0.25114  0.36710  0.08441  1.0000
  C   C815      1.0  0.41425  0.31799  0.23381  1.0000
  H   H1359     1.0  0.45267  0.49995  0.08794  1.0000
  H   H1360     1.0  0.45676  0.51483  0.45563  1.0000
  H   H1361     1.0  0.43986  0.42867  0.43572  1.0000
  H   H1362     1.0  0.45335  0.47923  0.12773  1.0000
  C   C816      1.0  0.39961  0.35461  0.24834  1.0000
  H   H1363     1.0  0.41274  0.35985  0.24886  1.0000
  H   H1364     1.0  0.41477  0.50698  0.45128  1.0000
  H   H1365     1.0  0.41656  0.37303  0.31900  1.0000
  H   H1366     1.0  0.44721  0.46493  0.41651  1.0000
  C   C817      1.0  0.41982  0.51469  0.47310  1.0000
  C   C818      1.0  0.28576  0.37664  0.05952  1.0000
  H   H1367     1.0  0.23886  0.40944  0.32965  1.0000
  N   N60       1.0  0.46360  0.44189  0.41589  1.0000
  C   C819      1.0  0.46337  0.41586  0.44543  1.0000
  C   C820      1.0  0.43036  0.31601  0.28902  1.0000
  H   H1368     1.0  0.30191  0.39738  0.47770  1.0000
  H   H1369     1.0  0.25526  0.35392  0.04336  1.0000
  C   C821      1.0  0.27355  0.39635  0.04771  1.0000
  H   H1370     1.0  0.39549  0.52241  0.00349  1.0000
  S   S238      1.0  0.45406  0.39367  0.32131  1.0000
  H   H1371     1.0  0.27067  0.35099  0.99868  1.0000
  H   H1372     1.0  0.27489  0.34949  0.06686  1.0000
  C   C822      1.0  0.44200  0.49704  0.48901  1.0000
  C   C823      1.0  0.44504  0.45068  0.23432  1.0000
  H   H1373     1.0  0.42940  0.48964  0.49513  1.0000
  H   H1374     1.0  0.44439  0.44375  0.21116  1.0000
  H   H1375     1.0  0.45379  0.48185  0.07043  1.0000
  H   H1376     1.0  0.45359  0.43020  0.33441  1.0000
  H   H1377     1.0  0.41240  0.53487  0.45798  1.0000
  H   H1378     1.0  0.45870  0.48385  0.00953  1.0000
  H   H1379     1.0  0.46289  0.48579  0.22485  1.0000
  C   C824      1.0  0.27620  0.37815  0.00407  1.0000
  C   C825      1.0  0.45957  0.43133  0.38529  1.0000
  H   H1380     1.0  0.39774  0.51856  0.47990  1.0000
  H   H1381     1.0  0.44829  0.42035  0.38854  1.0000
  H   H1382     1.0  0.29382  0.40987  0.01453  1.0000
  H   H1383     1.0  0.36729  0.31994  0.31421  1.0000
  C   C826      1.0  0.45842  0.43985  0.35357  1.0000
  H   H1384     1.0  0.41632  0.50586  0.49334  1.0000
  C   C827      1.0  0.43985  0.45149  0.41818  1.0000
  H   H1385     1.0  0.43654  0.31515  0.31054  1.0000
  H   H1386     1.0  0.45051  0.44674  0.35537  1.0000
  H   H1387     1.0  0.25695  0.38351  0.89114  1.0000
  S   S239      1.0  0.22713  0.37097  0.51318  1.0000
  S   S240      1.0  0.43376  0.34625  0.79803  1.0000
  H   H1388     1.0  0.39866  0.35542  0.77642  1.0000
  S   S241      1.0  0.43824  0.42309  0.79012  1.0000
  H   H1389     1.0  0.44892  0.55791  0.97807  1.0000
  H   H1390     1.0  0.24650  0.39566  0.61414  1.0000
  Fe  Fe122     1.0  0.23840  0.39506  0.97475  1.0000
  C   C828      1.0  0.26818  0.42715  0.87253  1.0000
  C   C829      1.0  0.27702  0.42784  0.61890  1.0000
  C   C830      1.0  0.40544  0.38635  0.76107  1.0000
  H   H1391     1.0  0.25202  0.42564  0.81741  1.0000
  H   H1392     1.0  0.40605  0.35704  0.86695  1.0000
  H   H1393     1.0  0.23521  0.38907  0.57731  1.0000
  S   S242      1.0  0.23336  0.37011  0.95144  1.0000
  Fe  Fe123     1.0  0.35893  0.45067  0.92711  1.0000
  S   S243      1.0  0.37485  0.44667  0.96418  1.0000
  S   S244      1.0  0.33329  0.43144  0.91957  1.0000
  Fe  Fe124     1.0  0.38713  0.48047  0.89868  1.0000
  S   S245      1.0  0.40477  0.47857  0.93392  1.0000
  S   S246      1.0  0.39459  0.50199  0.86344  1.0000
  Fe  Fe125     1.0  0.39304  0.45116  0.92409  1.0000
  S   S247      1.0  0.40809  0.43569  0.92249  1.0000
  Fe  Fe126     1.0  0.38546  0.47442  0.97135  1.0000
  H   H1394     1.0  0.28988  0.40724  0.53745  1.0000
  S   S248      1.0  0.37670  0.45323  0.88603  1.0000
  S   S249      1.0  0.36827  0.47831  0.93694  1.0000
  C   C831      1.0  0.43399  0.32241  0.75134  1.0000
  S   S250      1.0  0.45141  0.55391  0.69836  1.0000
  S   S251      1.0  0.44802  0.51347  0.75353  1.0000
  H   H1395     1.0  0.42783  0.48386  0.57600  1.0000
  H   H1396     1.0  0.22282  0.40963  0.82603  1.0000
  C   C832      1.0  0.39880  0.52206  0.95015  1.0000
  S   S252      1.0  0.44881  0.38843  0.75009  1.0000
  H   H1397     1.0  0.24441  0.42567  0.92996  1.0000
  C   C833      1.0  0.43331  0.50935  0.59074  1.0000
  C   C834      1.0  0.42888  0.52299  0.58914  1.0000
  C   C835      1.0  0.41555  0.52159  0.57099  1.0000
  C   C836      1.0  0.40669  0.50668  0.55462  1.0000
  C   C837      1.0  0.42923  0.52880  0.90672  1.0000
  C   C838      1.0  0.24523  0.40105  0.88570  1.0000
  H   H1398     1.0  0.41201  0.53208  0.56973  1.0000
  H   H1399     1.0  0.39628  0.50566  0.54118  1.0000
  C   C839      1.0  0.40954  0.50507  0.83315  1.0000
  C   C840      1.0  0.41612  0.49322  0.82656  1.0000
  C   C841      1.0  0.42784  0.49602  0.80205  1.0000
  C   C842      1.0  0.43334  0.51079  0.78426  1.0000
  C   C843      1.0  0.42681  0.52269  0.79093  1.0000
  C   C844      1.0  0.41491  0.51978  0.81514  1.0000
  H   H1400     1.0  0.41202  0.48180  0.84007  1.0000
  H   H1401     1.0  0.43261  0.48661  0.79675  1.0000
  H   H1402     1.0  0.43090  0.53409  0.77737  1.0000
  H   H1403     1.0  0.40987  0.52900  0.82001  1.0000
  C   C845      1.0  0.28232  0.42053  0.96001  1.0000
  C   C846      1.0  0.29492  0.43552  0.96800  1.0000
  C   C847      1.0  0.31059  0.43902  0.95632  1.0000
  C   C848      1.0  0.31387  0.42762  0.93606  1.0000
  C   C849      1.0  0.30122  0.41266  0.92790  1.0000
  C   C850      1.0  0.28560  0.40909  0.93986  1.0000
  C   C851      1.0  0.24471  0.43476  0.91150  1.0000
  C   C852      1.0  0.24631  0.39028  0.58955  1.0000
  H   H1404     1.0  0.30359  0.40374  0.91224  1.0000
  H   H1405     1.0  0.27613  0.39748  0.93350  1.0000
  C   C853      1.0  0.42974  0.42627  0.82698  1.0000
  C   C854      1.0  0.41994  0.43538  0.82727  1.0000
  C   C855      1.0  0.41320  0.43838  0.85645  1.0000
  C   C856      1.0  0.41628  0.43228  0.88545  1.0000
  C   C857      1.0  0.42617  0.42329  0.88517  1.0000
  C   C858      1.0  0.43285  0.42024  0.85601  1.0000
  H   H1406     1.0  0.41757  0.44017  0.80488  1.0000
  H   H1407     1.0  0.40564  0.44539  0.85654  1.0000
  H   H1408     1.0  0.42863  0.41863  0.90762  1.0000
  H   H1409     1.0  0.44054  0.41339  0.85613  1.0000
  C   C859      1.0  0.42709  0.32595  0.77971  1.0000
  H   H1410     1.0  0.46076  0.49947  0.81723  1.0000
  H   H1411     1.0  0.38707  0.56042  0.92709  1.0000
  H   H1412     1.0  0.44379  0.33221  0.73974  1.0000
  H   H1413     1.0  0.44838  0.50309  0.51126  1.0000
  H   H1414     1.0  0.40909  0.53393  0.89273  1.0000
  H   H1415     1.0  0.38397  0.38301  0.78802  1.0000
  H   H1416     1.0  0.42283  0.51567  0.91365  1.0000
  H   H1417     1.0  0.43266  0.52873  0.88075  1.0000
  C   C860      1.0  0.39062  0.35513  0.79734  1.0000
  H   H1418     1.0  0.37324  0.36737  0.83503  1.0000
  S   S253      1.0  0.39998  0.47385  0.53695  1.0000
  H   H1419     1.0  0.40638  0.39804  0.74928  1.0000
  H   H1420     1.0  0.38446  0.36077  0.86114  1.0000
  H   H1421     1.0  0.40897  0.31535  0.81642  1.0000
  H   H1422     1.0  0.29260  0.44449  0.98360  1.0000
  H   H1423     1.0  0.40407  0.51253  0.95185  1.0000
  C   C861      1.0  0.39643  0.38478  0.79367  1.0000
  C   C862      1.0  0.26473  0.42772  0.59387  1.0000
  H   H1424     1.0  0.42050  0.37198  0.80681  1.0000
  H   H1425     1.0  0.29260  0.42944  0.86592  1.0000
  H   H1426     1.0  0.24321  0.43736  0.86037  1.0000
  C   C863      1.0  0.38557  0.37070  0.84393  1.0000
  H   H1427     1.0  0.28067  0.41960  0.83230  1.0000
  C   C864      1.0  0.26143  0.40012  0.56949  1.0000
  H   H1428     1.0  0.26262  0.44124  0.51527  1.0000
  Fe  Fe127     1.0  0.45292  0.37224  0.78745  1.0000
  H   H1429     1.0  0.45320  0.45260  0.85596  1.0000
  H   H1430     1.0  0.29651  0.42006  0.57326  1.0000
  H   H1431     1.0  0.32011  0.45059  0.96281  1.0000
  C   C865      1.0  0.40497  0.55237  0.94620  1.0000
  H   H1432     1.0  0.41374  0.53335  0.50155  1.0000
  H   H1433     1.0  0.24894  0.40974  0.52179  1.0000
  H   H1434     1.0  0.27146  0.43983  0.86252  1.0000
  H   H1435     1.0  0.25655  0.38873  0.84989  1.0000
  H   H1436     1.0  0.27144  0.39894  0.58257  1.0000
  H   H1437     1.0  0.28452  0.43987  0.54708  1.0000
  C   C866      1.0  0.43829  0.55923  0.96781  1.0000
  H   H1438     1.0  0.39060  0.51790  0.92929  1.0000
  H   H1439     1.0  0.39906  0.37601  0.74413  1.0000
  C   C867      1.0  0.44563  0.47835  0.87206  1.0000
  C   C868      1.0  0.29308  0.41996  0.54777  1.0000
  H   H1440     1.0  0.27040  0.42890  0.89903  1.0000
  C   C869      1.0  0.41866  0.53896  0.91089  1.0000
  H   H1441     1.0  0.43977  0.54220  0.50585  1.0000
  H   H1442     1.0  0.41771  0.38713  0.76438  1.0000
  H   H1443     1.0  0.23202  0.39589  0.88827  1.0000
  H   H1444     1.0  0.27701  0.42438  0.51685  1.0000
  C   C870      1.0  0.38982  0.38689  0.86411  1.0000
  C   C871      1.0  0.42439  0.49441  0.57450  1.0000
  H   H1445     1.0  0.44019  0.46856  0.89045  1.0000
  H   H1446     1.0  0.25161  0.44371  0.55089  1.0000
  H   H1447     1.0  0.38748  0.39663  0.85081  1.0000
  H   H1448     1.0  0.41991  0.38919  0.82907  1.0000
  H   H1449     1.0  0.30379  0.42811  0.53406  1.0000
  H   H1450     1.0  0.42626  0.36389  0.85495  1.0000
  H   H1451     1.0  0.38069  0.53837  0.92784  1.0000
  H   H1452     1.0  0.41990  0.37764  0.87775  1.0000
  H   H1453     1.0  0.45562  0.46903  0.80993  1.0000
  H   H1454     1.0  0.43888  0.52364  0.52240  1.0000
  H   H1455     1.0  0.26735  0.44097  0.58863  1.0000
  C   C872      1.0  0.25193  0.43520  0.53081  1.0000
  H   H1456     1.0  0.27564  0.43480  0.64082  1.0000
  C   C873      1.0  0.39112  0.55000  0.92320  1.0000
  C   C874      1.0  0.38903  0.33945  0.81593  1.0000
  C   C875      1.0  0.46214  0.53981  0.50507  1.0000
  H   H1457     1.0  0.42571  0.55177  0.90250  1.0000
  S   S254      1.0  0.21688  0.39799  0.95369  1.0000
  H   H1458     1.0  0.23884  0.37523  0.86946  1.0000
  Fe  Fe128     1.0  0.45352  0.40783  0.78915  1.0000
  C   C876      1.0  0.41118  0.49307  0.55596  1.0000
  C   C877      1.0  0.27949  0.42616  0.54321  1.0000
  S   S255      1.0  0.26288  0.41667  0.97641  1.0000
  H   H1459     1.0  0.38074  0.33705  0.83697  1.0000
  H   H1460     1.0  0.27526  0.41519  0.62682  1.0000
  H   H1461     1.0  0.40079  0.33983  0.82327  1.0000
  H   H1462     1.0  0.44156  0.48868  0.87708  1.0000
  H   H1463     1.0  0.40235  0.39184  0.87187  1.0000
  H   H1464     1.0  0.38225  0.38440  0.88639  1.0000
  N   N61       1.0  0.39675  0.37137  0.81596  1.0000
  C   C878      1.0  0.41618  0.36800  0.85829  1.0000
  C   C879      1.0  0.25061  0.41813  0.54329  1.0000
  H   H1465     1.0  0.44367  0.51036  0.60430  1.0000
  N   N62       1.0  0.26433  0.41804  0.56302  1.0000
  H   H1466     1.0  0.23927  0.41328  0.55739  1.0000
  C   C880      1.0  0.41368  0.37554  0.82623  1.0000
  H   H1467     1.0  0.40175  0.39724  0.80552  1.0000
  N   N63       1.0  0.40612  0.49438  0.68531  1.0000
  C   C881      1.0  0.42317  0.49665  0.67851  1.0000
  C   C882      1.0  0.40209  0.50602  0.66401  1.0000
  C   C883      1.0  0.39492  0.47687  0.67799  1.0000
  C   C884      1.0  0.40454  0.49810  0.72072  1.0000
  C   C885      1.0  0.42865  0.48349  0.69267  1.0000
  C   C886      1.0  0.41002  0.52460  0.67285  1.0000
  C   C887      1.0  0.39558  0.47084  0.64274  1.0000
  C   C888      1.0  0.38796  0.49702  0.73257  1.0000
  H   H1468     1.0  0.42578  0.49707  0.65210  1.0000
  H   H1469     1.0  0.43134  0.50887  0.68817  1.0000
  H   H1470     1.0  0.38904  0.50276  0.66315  1.0000
  H   H1471     1.0  0.40561  0.50483  0.63839  1.0000
  H   H1472     1.0  0.39687  0.46794  0.69455  1.0000
  H   H1473     1.0  0.38238  0.47545  0.68279  1.0000
  H   H1474     1.0  0.40740  0.48934  0.73606  1.0000
  H   H1475     1.0  0.41355  0.51042  0.72804  1.0000
  H   H1476     1.0  0.42691  0.48241  0.71926  1.0000
  H   H1477     1.0  0.42274  0.47113  0.68104  1.0000
  H   H1478     1.0  0.44162  0.48735  0.68790  1.0000
  H   H1479     1.0  0.40716  0.53197  0.65416  1.0000
  H   H1480     1.0  0.40564  0.52759  0.69647  1.0000
  H   H1481     1.0  0.42311  0.52878  0.67297  1.0000
  H   H1482     1.0  0.39131  0.47770  0.62538  1.0000
  H   H1483     1.0  0.38757  0.45755  0.64059  1.0000
  H   H1484     1.0  0.40763  0.47177  0.63511  1.0000
  H   H1485     1.0  0.38061  0.48427  0.74080  1.0000
  H   H1486     1.0  0.38134  0.50063  0.71412  1.0000
  H   H1487     1.0  0.38939  0.50584  0.75321  1.0000
  H   H1488     1.0  0.41440  0.56467  0.94042  1.0000
  H   H1489     1.0  0.37877  0.35294  0.78699  1.0000
  H   H1490     1.0  0.24950  0.40377  0.91099  1.0000
  H   H1491     1.0  0.25283  0.42304  0.60611  1.0000
  H   H1492     1.0  0.28932  0.43438  0.60967  1.0000
  H   H1493     1.0  0.25527  0.35740  0.98544  1.0000
  H   H1494     1.0  0.23059  0.40072  0.79423  1.0000
  H   H1495     1.0  0.25571  0.40744  0.81945  1.0000
  H   H1496     1.0  0.22832  0.41927  0.87682  1.0000
  H   H1497     1.0  0.40099  0.55385  0.97134  1.0000
  H   H1498     1.0  0.24571  0.37743  0.59264  1.0000
  H   H1499     1.0  0.25634  0.44542  0.91234  1.0000
  N   N64       1.0  0.25088  0.41681  0.86633  1.0000
  N   N65       1.0  0.41161  0.53899  0.94432  1.0000
  H   H1500     1.0  0.44040  0.53438  0.92044  1.0000
  H   H1501     1.0  0.26076  0.39323  0.54615  1.0000
  C   C889      1.0  0.24977  0.38659  0.87290  1.0000
  H   H1502     1.0  0.27300  0.36196  0.96168  1.0000
  H   H1503     1.0  0.27927  0.40860  0.87005  1.0000
  H   H1504     1.0  0.38413  0.32851  0.79939  1.0000
  C   C890      1.0  0.28057  0.42051  0.85907  1.0000
  C   C891      1.0  0.26834  0.36107  0.98696  1.0000
  H   H1505     1.0  0.24143  0.43333  0.51569  1.0000
  C   C892      1.0  0.23097  0.40311  0.82077  1.0000
  C   C893      1.0  0.24824  0.41364  0.83048  1.0000
  H   H1506     1.0  0.44069  0.47315  0.84826  1.0000
  C   C894      1.0  0.24132  0.42693  0.87724  1.0000
  S   S256      1.0  0.43979  0.54212  0.60859  1.0000
  H   H1507     1.0  0.23544  0.43964  0.91849  1.0000
  Fe  Fe129     1.0  0.45733  0.54576  0.64936  1.0000
  H   H1508     1.0  0.39487  0.55028  0.89741  1.0000
  Fe  Fe130     1.0  0.45974  0.53496  0.71859  1.0000
  H   H1509     1.0  0.22636  0.39084  0.83259  1.0000
  S   S257      1.0  0.45604  0.39131  0.82767  1.0000
  H   H1510     1.0  0.27183  0.38646  0.99058  1.0000
  C   C895      1.0  0.44394  0.53190  0.50141  1.0000
  H   H1511     1.0  0.38174  0.52859  0.98125  1.0000
  H   H1512     1.0  0.42852  0.53234  0.97125  1.0000
  C   C896      1.0  0.38847  0.52038  0.98112  1.0000
  H   H1513     1.0  0.42035  0.50539  0.99458  1.0000
  H   H1514     1.0  0.44168  0.56346  0.94270  1.0000
  S   S258      1.0  0.46411  0.52576  0.66934  1.0000
  Fe  Fe131     1.0  0.21855  0.35947  0.99605  1.0000
  H   H1515     1.0  0.43580  0.56906  0.98166  1.0000
  C   C897      1.0  0.42397  0.54245  0.97004  1.0000
  H   H1516     1.0  0.45469  0.50001  0.99075  1.0000
  H   H1517     1.0  0.37949  0.50748  0.98236  1.0000
  C   C898      1.0  0.46402  0.48499  0.87315  1.0000
  H   H1518     1.0  0.41864  0.54243  0.99453  1.0000
  H   H1519     1.0  0.22258  0.76765  0.45012  1.0000
  S   S259      1.0  0.22166  0.82463  0.25848  1.0000
  H   H1520     1.0  0.42643  0.92956  0.23423  1.0000
  H   H1521     1.0  0.42820  0.89971  0.26986  1.0000
  C   C899      1.0  0.43313  0.92749  0.32799  1.0000
  Fe  Fe132     1.0  0.23478  0.81860  0.21646  1.0000
  S   S260      1.0  0.26150  0.82402  0.22269  1.0000
  S   S261      1.0  0.22440  0.83035  0.18043  1.0000
  Fe  Fe133     1.0  0.38798  0.91421  0.17580  1.0000
  S   S262      1.0  0.36881  0.90425  0.13895  1.0000
  S   S263      1.0  0.40629  0.94047  0.18301  1.0000
  Fe  Fe134     1.0  0.38387  0.87968  0.19723  1.0000
  S   S264      1.0  0.36453  0.86683  0.16114  1.0000
  S   S265      1.0  0.39596  0.86607  0.22607  1.0000
  Fe  Fe135     1.0  0.37986  0.88589  0.12579  1.0000
  S   S266      1.0  0.38236  0.88137  0.07180  1.0000
  Fe  Fe136     1.0  0.35444  0.88578  0.17676  1.0000
  S   S267      1.0  0.32760  0.88098  0.17693  1.0000
  S   S268      1.0  0.39982  0.89695  0.16022  1.0000
  S   S269      1.0  0.37300  0.89758  0.21530  1.0000
  H   H1522     1.0  0.25194  0.84930  0.28806  1.0000
  H   H1523     1.0  0.27098  0.89918  0.25309  1.0000
  S   S270      1.0  0.41876  0.88490  0.37133  1.0000
  C   C900      1.0  0.40066  0.88260  0.05394  1.0000
  C   C901      1.0  0.41357  0.88367  0.07283  1.0000
  C   C902      1.0  0.42790  0.88447  0.05792  1.0000
  C   C903      1.0  0.31479  0.82919  0.13676  1.0000
  C   C904      1.0  0.44495  0.92028  0.31374  1.0000
  N   N66       1.0  0.26039  0.87307  0.26435  1.0000
  H   H1524     1.0  0.41242  0.88355  0.09895  1.0000
  H   H1525     1.0  0.34822  0.88257  0.07335  1.0000
  H   H1526     1.0  0.43280  0.94492  0.11756  1.0000
  H   H1527     1.0  0.43990  0.90695  0.32008  1.0000
  C   C905      1.0  0.40191  0.87110  0.26668  1.0000
  C   C906      1.0  0.39543  0.88012  0.28667  1.0000
  C   C907      1.0  0.40052  0.88397  0.31882  1.0000
  C   C908      1.0  0.41251  0.87935  0.33097  1.0000
  C   C909      1.0  0.41912  0.87047  0.31090  1.0000
  C   C910      1.0  0.41365  0.86614  0.27906  1.0000
  H   H1528     1.0  0.38630  0.88389  0.27751  1.0000
  H   H1529     1.0  0.39523  0.89068  0.33429  1.0000
  H   H1530     1.0  0.42821  0.86666  0.32010  1.0000
  H   H1531     1.0  0.41866  0.85907  0.26380  1.0000
  C   C911      1.0  0.30945  0.86462  0.18919  1.0000
  C   C912      1.0  0.30900  0.85217  0.21046  1.0000
  C   C913      1.0  0.29428  0.83974  0.21990  1.0000
  C   C914      1.0  0.27976  0.83944  0.20812  1.0000
  C   C915      1.0  0.28023  0.85173  0.18638  1.0000
  C   C916      1.0  0.29493  0.86428  0.17727  1.0000
  H   H1532     1.0  0.31999  0.85221  0.22000  1.0000
  H   H1533     1.0  0.29414  0.83035  0.23674  1.0000
  H   H1534     1.0  0.26924  0.85158  0.17668  1.0000
  H   H1535     1.0  0.29506  0.87378  0.16071  1.0000
  H   H1536     1.0  0.25193  0.85316  0.22874  1.0000
  C   C917      1.0  0.40773  0.95645  0.15607  1.0000
  H   H1537     1.0  0.34755  0.83433  0.11942  1.0000
  H   H1538     1.0  0.34056  0.82282  0.08163  1.0000
  C   C918      1.0  0.39461  0.95618  0.13880  1.0000
  H   H1539     1.0  0.32233  0.82197  0.13268  1.0000
  N   N67       1.0  0.44870  0.92227  0.27794  1.0000
  H   H1540     1.0  0.38332  0.94583  0.14133  1.0000
  H   H1541     1.0  0.43588  0.93067  0.35394  1.0000
  H   H1542     1.0  0.32630  0.86218  0.04406  1.0000
  H   H1543     1.0  0.31237  0.86202  0.07516  1.0000
  H   H1544     1.0  0.43804  0.95716  0.06663  1.0000
  H   H1545     1.0  0.43835  0.90890  0.23382  1.0000
  H   H1546     1.0  0.42215  0.96195  0.08182  1.0000
  H   H1547     1.0  0.42239  0.94963  0.47313  1.0000
  C   C919      1.0  0.45749  0.89725  0.27411  1.0000
  H   H1548     1.0  0.43178  0.91535  0.46959  1.0000
  C   C920      1.0  0.32152  0.84649  0.12100  1.0000
  H   H1549     1.0  0.38553  0.91356  0.02994  1.0000
  H   H1550     1.0  0.32065  0.83241  0.04143  1.0000
  C   C921      1.0  0.33603  0.87929  0.08360  1.0000
  C   C922      1.0  0.45455  0.94012  0.26757  1.0000
  Fe  Fe137     1.0  0.44326  0.88905  0.39049  1.0000
  H   H1551     1.0  0.43395  0.93919  0.31688  1.0000
  H   H1552     1.0  0.23798  0.86168  0.23891  1.0000
  H   H1553     1.0  0.24740  0.86841  0.18388  1.0000
  Fe  Fe138     1.0  0.46070  0.90239  0.45398  1.0000
  C   C923      1.0  0.42793  0.96780  0.03165  1.0000
  C   C924      1.0  0.34783  0.83497  0.09264  1.0000
  H   H1554     1.0  0.43251  0.96999  0.16544  1.0000
  C   C925      1.0  0.41326  0.92892  0.08691  1.0000
  H   H1555     1.0  0.42153  0.97930  0.23166  1.0000
  H   H1556     1.0  0.31582  0.82051  0.07691  1.0000
  C   C926      1.0  0.42962  0.88458  0.02401  1.0000
  H   H1557     1.0  0.33648  0.87980  0.11035  1.0000
  H   H1558     1.0  0.28219  0.87892  0.23570  1.0000
  H   H1559     1.0  0.33188  0.88907  0.07590  1.0000
  C   C927      1.0  0.25516  0.87572  0.20369  1.0000
  C   C928      1.0  0.34336  0.84927  0.08124  1.0000
  H   H1560     1.0  0.26689  0.89502  0.29479  1.0000
  C   C929      1.0  0.29827  0.83006  0.06377  1.0000
  H   H1561     1.0  0.45080  0.85723  0.04465  1.0000
  H   H1562     1.0  0.41073  0.91677  0.02632  1.0000
  C   C930      1.0  0.43449  0.91184  0.25818  1.0000
  C   C931      1.0  0.25312  0.86233  0.29327  1.0000
  H   H1563     1.0  0.31232  0.85183  0.12548  1.0000
  H   H1564     1.0  0.26091  0.86647  0.31458  1.0000
  H   H1565     1.0  0.33178  0.85444  0.13574  1.0000
  H   H1566     1.0  0.41157  0.90936  0.23957  1.0000
  S   S271      1.0  0.44821  0.87675  0.43394  1.0000
  C   C932      1.0  0.32457  0.86223  0.07087  1.0000
  H   H1567     1.0  0.37315  0.92393  0.04453  1.0000
  H   H1568     1.0  0.29099  0.81711  0.05612  1.0000
  H   H1569     1.0  0.29697  0.83836  0.04500  1.0000
  H   H1570     1.0  0.45184  0.82909  0.47606  1.0000
  H   H1571     1.0  0.41688  0.93497  0.00416  1.0000
  H   H1572     1.0  0.22763  0.85844  0.28678  1.0000
  H   H1573     1.0  0.35129  0.86037  0.09482  1.0000
  H   H1574     1.0  0.34717  0.85155  0.05533  1.0000
  H   H1575     1.0  0.39535  0.94670  0.06872  1.0000
  H   H1576     1.0  0.29323  0.83260  0.08700  1.0000
  H   H1577     1.0  0.45596  0.83846  0.01000  1.0000
  H   H1578     1.0  0.43843  0.93147  0.09032  1.0000
  C   C933      1.0  0.38423  0.92192  0.04938  1.0000
  C   C934      1.0  0.42229  0.96999  0.15268  1.0000
  H   H1579     1.0  0.29162  0.89447  0.28817  1.0000
  C   C935      1.0  0.31583  0.83215  0.06657  1.0000
  N   N68       1.0  0.32620  0.84722  0.08552  1.0000
  H   H1580     1.0  0.38570  0.96946  0.10613  1.0000
  H   H1581     1.0  0.30257  0.82171  0.12858  1.0000
  H   H1582     1.0  0.42074  0.91821  0.32664  1.0000
  H   H1583     1.0  0.46004  0.70037  0.31015  1.0000
  S   S272      1.0  0.44788  0.88534  0.00680  1.0000
  C   C936      1.0  0.28932  0.88111  0.28475  1.0000
  C   C937      1.0  0.39834  0.93890  0.05003  1.0000
  H   H1584     1.0  0.23214  0.85184  0.32418  1.0000
  H   H1585     1.0  0.39821  0.94472  0.02639  1.0000
  H   H1586     1.0  0.41207  0.90231  0.45926  1.0000
  H   H1587     1.0  0.43772  0.88501  0.07276  1.0000
  H   H1588     1.0  0.39241  0.88179  0.00518  1.0000
  H   H1589     1.0  0.25292  0.88729  0.20646  1.0000
  C   C938      1.0  0.25086  0.86522  0.23472  1.0000
  H   H1590     1.0  0.44852  0.88986  0.25623  1.0000
  H   H1591     1.0  0.45590  0.92518  0.32845  1.0000
  C   C939      1.0  0.41682  0.88382  0.00507  1.0000
  H   H1592     1.0  0.27592  0.85969  0.25598  1.0000
  H   H1593     1.0  0.24881  0.90478  0.25050  1.0000
  C   C940      1.0  0.24677  0.89456  0.26781  1.0000
  H   H1594     1.0  0.23609  0.88403  0.25966  1.0000
  H   H1595     1.0  0.30077  0.88042  0.27644  1.0000
  H   H1596     1.0  0.38236  0.91560  0.07296  1.0000
  H   H1597     1.0  0.21694  0.77233  0.38457  1.0000
  C   C941      1.0  0.27675  0.87274  0.25867  1.0000
  C   C942      1.0  0.26202  0.89077  0.27027  1.0000
  H   H1598     1.0  0.44526  0.94535  0.27050  1.0000
  H   H1599     1.0  0.23779  0.87344  0.31797  1.0000
  H   H1600     1.0  0.31391  0.83080  0.16336  1.0000
  C   C943      1.0  0.40234  0.88264  0.02001  1.0000
  H   H1601     1.0  0.24379  0.89892  0.29159  1.0000
  C   C944      1.0  0.39598  0.96961  0.11901  1.0000
  H   H1602     1.0  0.41887  0.92397  0.45066  1.0000
  H   H1603     1.0  0.26757  0.87876  0.19532  1.0000
  H   H1604     1.0  0.41719  0.92303  0.27363  1.0000
  H   H1605     1.0  0.28634  0.87463  0.30821  1.0000
  C   C945      1.0  0.23677  0.86168  0.30568  1.0000
  H   H1606     1.0  0.21641  0.78259  0.43329  1.0000
  S   S273      1.0  0.45415  0.91454  0.41260  1.0000
  H   H1607     1.0  0.40501  0.93135  0.10478  1.0000
  C   C946      1.0  0.42187  0.91912  0.25145  1.0000
  C   C947      1.0  0.42595  0.95626  0.06061  1.0000
  H   H1608     1.0  0.40796  0.91532  0.08197  1.0000
  H   H1609     1.0  0.43067  0.97402  0.26499  1.0000
  S   S274      1.0  0.21549  0.79282  0.20996  1.0000
  H   H1610     1.0  0.22308  0.79181  0.48703  1.0000
  N   N69       1.0  0.41449  0.93852  0.05619  1.0000
  H   H1611     1.0  0.45537  0.86548  0.08422  1.0000
  C   C948      1.0  0.42874  0.93251  0.10558  1.0000
  C   C949      1.0  0.45925  0.85893  0.06453  1.0000
  H   H1612     1.0  0.45320  0.89285  0.29881  1.0000
  C   C950      1.0  0.41947  0.91493  0.46849  1.0000
  H   H1613     1.0  0.43613  0.91924  0.04049  1.0000
  H   H1614     1.0  0.42633  0.92333  0.12522  1.0000
  H   H1615     1.0  0.46095  0.69571  0.35180  1.0000
  H   H1616     1.0  0.41704  0.97032  0.02781  1.0000
  C   C951      1.0  0.41888  0.93003  0.02756  1.0000
  H   H1617     1.0  0.44510  0.94148  0.03484  1.0000
  C   C952      1.0  0.46191  0.91613  0.27078  1.0000
  H   H1618     1.0  0.36038  0.83766  0.08517  1.0000
  C   C953      1.0  0.43573  0.92980  0.02651  1.0000
  H   H1619     1.0  0.43906  0.92825  0.00096  1.0000
  H   H1620     1.0  0.43146  0.96291  0.00909  1.0000
  H   H1621     1.0  0.45400  0.84854  0.45807  1.0000
  H   H1622     1.0  0.44261  0.94093  0.49083  1.0000
  H   H1623     1.0  0.43506  0.83474  0.47268  1.0000
  H   H1624     1.0  0.43999  0.97629  0.22596  1.0000
  H   H1625     1.0  0.40246  0.93906  0.48674  1.0000
  C   C954      1.0  0.44801  0.83974  0.47756  1.0000
  H   H1626     1.0  0.45811  0.84683  0.07446  1.0000
  H   H1627     1.0  0.45745  0.94098  0.24114  1.0000
  H   H1628     1.0  0.41818  0.97219  0.49319  1.0000
  H   H1629     1.0  0.43752  0.98004  0.03704  1.0000
  C   C955      1.0  0.41478  0.94605  0.49539  1.0000
  H   H1630     1.0  0.42992  0.87871  0.49461  1.0000
  H   H1631     1.0  0.24221  0.80498  0.82748  1.0000
  S   S275      1.0  0.22706  0.81996  0.72880  1.0000
  C   C956      1.0  0.44767  0.92784  0.77649  1.0000
  S   S276      1.0  0.22588  0.79164  0.67412  1.0000
  C   C957      1.0  0.32679  0.81495  0.56633  1.0000
  Fe  Fe139     1.0  0.24260  0.81792  0.68665  1.0000
  S   S277      1.0  0.26923  0.82341  0.69515  1.0000
  S   S278      1.0  0.23125  0.82898  0.65095  1.0000
  Fe  Fe140     1.0  0.39544  0.91864  0.65644  1.0000
  S   S279      1.0  0.37887  0.90048  0.62155  1.0000
  S   S280      1.0  0.41461  0.94407  0.64581  1.0000
  Fe  Fe141     1.0  0.38943  0.89205  0.70792  1.0000
  S   S281      1.0  0.37281  0.87153  0.67619  1.0000
  S   S282      1.0  0.39418  0.89136  0.76168  1.0000
  Fe  Fe142     1.0  0.39059  0.88337  0.63586  1.0000
  S   S283      1.0  0.39668  0.86969  0.59348  1.0000
  Fe  Fe143     1.0  0.36195  0.88983  0.66386  1.0000
  S   S284      1.0  0.33512  0.88283  0.65536  1.0000
  S   S285      1.0  0.40801  0.90186  0.66885  1.0000
  S   S286      1.0  0.37766  0.90994  0.69758  1.0000
  H   H1632     1.0  0.32756  0.82755  0.63137  1.0000
  C   C958      1.0  0.39570  0.92713  0.55503  1.0000
  H   H1633     1.0  0.35049  0.86454  0.53454  1.0000
  C   C959      1.0  0.41371  0.88070  0.56942  1.0000
  C   C960      1.0  0.41550  0.87466  0.53837  1.0000
  C   C961      1.0  0.42887  0.88331  0.51869  1.0000
  C   C962      1.0  0.44075  0.89790  0.53022  1.0000
  C   C963      1.0  0.43912  0.90371  0.56152  1.0000
  C   C964      1.0  0.42557  0.89532  0.58082  1.0000
  H   H1634     1.0  0.40639  0.86336  0.52934  1.0000
  H   H1635     1.0  0.23038  0.76032  0.74119  1.0000
  H   H1636     1.0  0.25148  0.79724  0.73993  1.0000
  H   H1637     1.0  0.42442  0.90004  0.60475  1.0000
  C   C965      1.0  0.40941  0.88697  0.78042  1.0000
  C   C966      1.0  0.41138  0.88964  0.81400  1.0000
  C   C967      1.0  0.42334  0.88642  0.83009  1.0000
  C   C968      1.0  0.43325  0.88014  0.81284  1.0000
  C   C969      1.0  0.43126  0.87741  0.77926  1.0000
  C   C970      1.0  0.41949  0.88096  0.76302  1.0000
  H   H1638     1.0  0.40356  0.89418  0.82765  1.0000
  H   H1639     1.0  0.42465  0.88843  0.85596  1.0000
  H   H1640     1.0  0.43886  0.87253  0.76575  1.0000
  H   H1641     1.0  0.41805  0.87880  0.73720  1.0000
  C   C971      1.0  0.31693  0.86659  0.66828  1.0000
  C   C972      1.0  0.31654  0.85376  0.68857  1.0000
  C   C973      1.0  0.30188  0.84081  0.69668  1.0000
  C   C974      1.0  0.28733  0.84048  0.68490  1.0000
  C   C975      1.0  0.28771  0.85339  0.66487  1.0000
  C   C976      1.0  0.30237  0.86627  0.65661  1.0000
  H   H1642     1.0  0.32753  0.85379  0.69804  1.0000
  H   H1643     1.0  0.30182  0.83097  0.71224  1.0000
  H   H1644     1.0  0.27671  0.85341  0.65555  1.0000
  H   H1645     1.0  0.30242  0.87608  0.64097  1.0000
  H   H1646     1.0  0.27454  0.97865  0.89694  1.0000
  C   C977      1.0  0.41297  0.95979  0.62184  1.0000
  H   H1647     1.0  0.30642  0.83385  0.62884  1.0000
  C   C978      1.0  0.42698  0.97193  0.60934  1.0000
  C   C979      1.0  0.39837  0.96096  0.61619  1.0000
  H   H1648     1.0  0.41536  0.90872  0.51893  1.0000
  H   H1649     1.0  0.44363  0.92138  0.85931  1.0000
  H   H1650     1.0  0.38751  0.95167  0.62575  1.0000
  H   H1651     1.0  0.44401  0.95939  0.55580  1.0000
  S   S287      1.0  0.44827  0.87565  0.83226  1.0000
  H   H1652     1.0  0.28477  0.80224  0.79479  1.0000
  H   H1653     1.0  0.41845  0.92624  0.56532  1.0000
  Fe  Fe144     1.0  0.45695  0.89099  0.95471  1.0000
  H   H1654     1.0  0.44643  0.96794  0.51514  1.0000
  H   H1655     1.0  0.43409  0.96503  0.72918  1.0000
  H   H1656     1.0  0.25824  0.77462  0.80143  1.0000
  H   H1657     1.0  0.24517  0.97116  0.87234  1.0000
  H   H1658     1.0  0.35157  0.86944  0.60899  1.0000
  H   H1659     1.0  0.44872  0.95211  0.81804  1.0000
  C   C980      1.0  0.41449  0.96218  0.51143  1.0000
  H   H1660     1.0  0.40220  0.96057  0.51893  1.0000
  H   H1661     1.0  0.23086  0.78805  0.74572  1.0000
  H   H1662     1.0  0.41851  0.94627  0.56307  1.0000
  H   H1663     1.0  0.34083  0.87584  0.55854  1.0000
  H   H1664     1.0  0.44086  0.97626  0.67411  1.0000
  H   H1665     1.0  0.24373  0.77222  0.71055  1.0000
  C   C981      1.0  0.41321  0.91753  0.50236  1.0000
  C   C982      1.0  0.44732  0.95800  0.53028  1.0000
  H   H1666     1.0  0.27705  0.78763  0.76302  1.0000
  H   H1667     1.0  0.23137  0.76186  0.79669  1.0000
  C   C983      1.0  0.45365  0.94329  0.82762  1.0000
  C   C984      1.0  0.24203  0.80404  0.80063  1.0000
  H   H1668     1.0  0.35214  0.82313  0.61376  1.0000
  H   H1669     1.0  0.44374  0.92106  0.72561  1.0000
  H   H1670     1.0  0.45195  0.90859  0.74723  1.0000
  C   C985      1.0  0.22806  0.77382  0.84034  1.0000
  S   S288      1.0  0.46307  0.87284  0.92276  1.0000
  H   H1671     1.0  0.36412  0.84421  0.62603  1.0000
  H   H1672     1.0  0.26645  0.82290  0.80054  1.0000
  C   C986      1.0  0.27434  0.79669  0.77884  1.0000
  H   H1673     1.0  0.43829  0.97096  0.61322  1.0000
  H   H1674     1.0  0.44830  0.91488  0.57084  1.0000
  H   H1675     1.0  0.36193  0.88271  0.55695  1.0000
  H   H1676     1.0  0.45088  0.85204  0.98528  1.0000
  C   C987      1.0  0.30632  0.83472  0.60215  1.0000
  H   H1677     1.0  0.23930  0.77620  0.85313  1.0000
  H   H1678     1.0  0.21939  0.76143  0.84787  1.0000
  C   C988      1.0  0.32185  0.84800  0.58880  1.0000
  H   H1679     1.0  0.43821  0.91681  0.78736  1.0000
  N   N70       1.0  0.41995  0.93501  0.51615  1.0000
  H   H1680     1.0  0.44364  0.85580  0.51300  1.0000
  H   H1681     1.0  0.44116  0.93591  0.77053  1.0000
  H   H1682     1.0  0.26191  0.79289  0.82519  1.0000
  H   H1683     1.0  0.46087  0.87539  0.59314  1.0000
  H   H1684     1.0  0.32285  0.81049  0.59107  1.0000
  H   H1685     1.0  0.25125  0.83089  0.79746  1.0000
  C   C989      1.0  0.25932  0.78776  0.80011  1.0000
  H   H1686     1.0  0.33862  0.84810  0.64337  1.0000
  H   H1687     1.0  0.31617  0.81266  0.55132  1.0000
  H   H1688     1.0  0.33625  0.83775  0.54074  1.0000
  H   H1689     1.0  0.23025  0.80389  0.79342  1.0000
  N   N71       1.0  0.24386  0.78835  0.78896  1.0000
  H   H1690     1.0  0.39271  0.92990  0.58011  1.0000
  H   H1691     1.0  0.42243  0.96707  0.53216  1.0000
  H   H1692     1.0  0.44548  0.83792  0.52919  1.0000
  H   H1693     1.0  0.42106  0.97460  0.71730  1.0000
  C   C990      1.0  0.33826  0.83333  0.56463  1.0000
  H   H1694     1.0  0.41797  0.88381  0.97895  1.0000
  H   H1695     1.0  0.32307  0.85972  0.60187  1.0000
  H   H1696     1.0  0.31962  0.84996  0.56314  1.0000
  H   H1697     1.0  0.25170  0.76718  0.74616  1.0000
  H   H1698     1.0  0.36234  0.85957  0.58642  1.0000
  S   S289      1.0  0.45013  0.90301  0.91303  1.0000
  H   H1699     1.0  0.27403  0.80692  0.76389  1.0000
  C   C991      1.0  0.41394  0.93407  0.55067  1.0000
  C   C992      1.0  0.24215  0.78694  0.75267  1.0000
  C   C993      1.0  0.35258  0.83370  0.62964  1.0000
  H   H1700     1.0  0.35062  0.83367  0.56230  1.0000
  C   C994      1.0  0.21612  0.96760  0.91462  1.0000
  C   C995      1.0  0.23021  0.77380  0.80318  1.0000
  C   C996      1.0  0.35084  0.86125  0.58755  1.0000
  H   H1701     1.0  0.29630  0.83856  0.59696  1.0000
  C   C997      1.0  0.45925  0.87287  0.56673  1.0000
  H   H1702     1.0  0.35233  0.82967  0.65505  1.0000
  C   C998      1.0  0.45237  0.92140  0.74449  1.0000
  H   H1703     1.0  0.22341  0.97858  0.86830  1.0000
  S   S290      1.0  0.45760  0.90950  0.50624  1.0000
  C   C999      1.0  0.43358  0.97723  0.72363  1.0000
  H   H1704     1.0  0.39055  0.91342  0.55191  1.0000
  H   H1705     1.0  0.25619  0.82147  0.76269  1.0000
  C   C1000     1.0  0.24205  0.77065  0.73718  1.0000
  H   H1706     1.0  0.30341  0.82236  0.59088  1.0000
  H   H1707     1.0  0.46150  0.84033  0.96807  1.0000
  H   H1708     1.0  0.42923  0.92444  0.83331  1.0000
  H   H1709     1.0  0.44137  0.93171  0.52918  1.0000
  C   C1001     1.0  0.25483  0.82058  0.78933  1.0000
  C   C1002     1.0  0.35076  0.87143  0.55747  1.0000
  N   N72       1.0  0.33698  0.84481  0.59136  1.0000
  C   C1003     1.0  0.46039  0.84737  0.99010  1.0000
  C   C1004     1.0  0.33819  0.83857  0.62460  1.0000
  H   H1710     1.0  0.38989  0.93279  0.53845  1.0000
  H   H1711     1.0  0.33297  0.80697  0.55672  1.0000
  H   H1712     1.0  0.24892  0.97065  0.91424  1.0000
  H   H1713     1.0  0.46011  0.95990  0.53021  1.0000
  Fe  Fe145     1.0  0.45858  0.88677  0.88096  1.0000
  C   C1005     1.0  0.45097  0.84808  0.51143  1.0000
  C   C1006     1.0  0.44004  0.93073  0.84785  1.0000
  H   H1714     1.0  0.22208  0.95869  0.91578  1.0000
  H   H1715     1.0  0.46173  0.95931  0.75210  1.0000
  Fe  Fe146     1.0  0.21474  0.82928  0.69208  1.0000
  H   H1716     1.0  0.43667  0.93751  0.86785  1.0000
  C   C1007     1.0  0.43783  0.94066  0.51591  1.0000
  C   C1008     1.0  0.39788  0.97456  0.59910  1.0000
  H   H1717     1.0  0.40005  0.91300  0.50032  1.0000
  H   H1718     1.0  0.44627  0.86660  0.56297  1.0000
  H   H1719     1.0  0.38659  0.97564  0.59541  1.0000
  N   N73       1.0  0.46060  0.93604  0.80069  1.0000
  H   H1720     1.0  0.45594  0.91157  0.81960  1.0000
  H   H1721     1.0  0.22281  0.78287  0.84843  1.0000
  H   H1722     1.0  0.21875  0.77284  0.79277  1.0000
  H   H1723     1.0  0.46304  0.95060  0.84488  1.0000
  H   H1724     1.0  0.46379  0.88507  0.55465  1.0000
  H   H1725     1.0  0.46352  0.85020  0.56937  1.0000
  C   C1009     1.0  0.25088  0.97921  0.89351  1.0000
  H   H1726     1.0  0.46434  0.87901  0.49866  1.0000
  H   H1727     1.0  0.46409  0.92950  0.73460  1.0000
  Fe  Fe147     1.0  0.69351  0.12700  0.29443  1.0000
  H   H1728     1.0  0.52117  0.99415  0.32358  1.0000
  S   S291      1.0  0.66834  0.12033  0.31698  1.0000
  S   S292      1.0  0.70027  0.12241  0.24347  1.0000
  H   H1729     1.0  0.64781  0.15058  0.31673  1.0000
  Fe  Fe148     1.0  0.57096  0.05987  0.30724  1.0000
  S   S293      1.0  0.55737  0.03336  0.29089  1.0000
  S   S294      1.0  0.59639  0.07150  0.28497  1.0000
  Fe  Fe149     1.0  0.54092  0.06012  0.34372  1.0000
  S   S295      1.0  0.52558  0.03407  0.32890  1.0000
  S   S296      1.0  0.53173  0.07474  0.37945  1.0000
  Fe  Fe150     1.0  0.54685  0.02842  0.34108  1.0000
  S   S297      1.0  0.54445  0.00704  0.37409  1.0000
  Fe  Fe151     1.0  0.53717  0.04124  0.27976  1.0000
  S   S298      1.0  0.52487  0.03139  0.23167  1.0000
  S   S299      1.0  0.56183  0.05422  0.35857  1.0000
  S   S300      1.0  0.55109  0.06796  0.29338  1.0000
  H   H1730     1.0  0.51322  0.03933  0.44003  1.0000
  H   H1731     1.0  0.48037  0.99150  0.40853  1.0000
  C   C1010     1.0  0.65767  0.17671  0.22553  1.0000
  H   H1732     1.0  0.53367  0.03682  0.40211  1.0000
  S   S301      1.0  0.47767  0.05636  0.15758  1.0000
  H   H1733     1.0  0.46758  0.99191  0.23024  1.0000
  C   C1011     1.0  0.49311  0.00975  0.46114  1.0000
  H   H1734     1.0  0.47740  0.03291  0.39305  1.0000
  H   H1735     1.0  0.66086  0.13323  0.18325  1.0000
  C   C1012     1.0  0.51946  0.03128  0.44739  1.0000
  H   H1736     1.0  0.64001  0.15287  0.27864  1.0000
  C   C1013     1.0  0.51344  0.06478  0.40042  1.0000
  C   C1014     1.0  0.50118  0.05123  0.38670  1.0000
  C   C1015     1.0  0.48682  0.04335  0.40397  1.0000
  H   H1737     1.0  0.68103  0.13694  0.19534  1.0000
  C   C1016     1.0  0.49681  0.06242  0.44899  1.0000
  C   C1017     1.0  0.51109  0.07052  0.43142  1.0000
  H   H1738     1.0  0.50273  0.04690  0.36265  1.0000
  H   H1739     1.0  0.52284  0.03242  0.01534  1.0000
  H   H1740     1.0  0.52653  0.00248  0.43654  1.0000
  H   H1741     1.0  0.52049  0.08106  0.44213  1.0000
  C   C1018     1.0  0.51205  0.03877  0.21115  1.0000
  C   C1019     1.0  0.50589  0.03156  0.18110  1.0000
  C   C1020     1.0  0.49558  0.03698  0.16401  1.0000
  C   C1021     1.0  0.49127  0.04963  0.17697  1.0000
  C   C1022     1.0  0.49746  0.05685  0.20698  1.0000
  C   C1023     1.0  0.50782  0.05148  0.22399  1.0000
  H   H1742     1.0  0.50906  0.02167  0.17103  1.0000
  H   H1743     1.0  0.49088  0.03130  0.14099  1.0000
  H   H1744     1.0  0.49419  0.06665  0.21719  1.0000
  H   H1745     1.0  0.51248  0.05715  0.24707  1.0000
  C   C1024     1.0  0.64856  0.10602  0.30811  1.0000
  C   C1025     1.0  0.64476  0.09678  0.27917  1.0000
  C   C1026     1.0  0.62880  0.08633  0.27269  1.0000
  C   C1027     1.0  0.61637  0.08473  0.29510  1.0000
  C   C1028     1.0  0.62019  0.09393  0.32404  1.0000
  C   C1029     1.0  0.63612  0.10454  0.33035  1.0000
  H   H1746     1.0  0.65411  0.09767  0.26180  1.0000
  H   H1747     1.0  0.62609  0.07927  0.25026  1.0000
  H   H1748     1.0  0.61086  0.09294  0.34156  1.0000
  H   H1749     1.0  0.63882  0.11162  0.35277  1.0000
  C   C1030     1.0  0.52861  0.98767  0.36849  1.0000
  C   C1031     1.0  0.50508  0.01032  0.40737  1.0000
  H   H1750     1.0  0.50810  0.98857  0.45022  1.0000
  H   H1751     1.0  0.48020  0.01371  0.22773  1.0000
  H   H1752     1.0  0.64351  0.13430  0.28765  1.0000
  H   H1753     1.0  0.64466  0.15006  0.22355  1.0000
  C   C1032     1.0  0.47626  0.10054  0.39882  1.0000
  C   C1033     1.0  0.65726  0.15895  0.22113  1.0000
  H   H1754     1.0  0.51589  0.01137  0.39309  1.0000
  S   S302      1.0  0.71111  0.11802  0.31649  1.0000
  H   H1755     1.0  0.66014  0.15787  0.19509  1.0000
  C   C1034     1.0  0.48462  0.04877  0.43526  1.0000
  H   H1756     1.0  0.65939  0.18136  0.25078  1.0000
  H   H1757     1.0  0.49525  0.06674  0.47307  1.0000
  H   H1758     1.0  0.48059  0.10825  0.46731  1.0000
  H   H1759     1.0  0.48631  0.11057  0.41075  1.0000
  C   C1035     1.0  0.53542  0.03704  0.42857  1.0000
  H   H1760     1.0  0.48673  0.99616  0.46480  1.0000
  H   H1761     1.0  0.50128  0.01999  0.39772  1.0000
  C   C1036     1.0  0.64813  0.14798  0.29033  1.0000
  H   H1762     1.0  0.66699  0.18551  0.20968  1.0000
  H   H1763     1.0  0.50175  0.05653  0.00422  1.0000
  S   S303      1.0  0.47142  0.06191  0.06334  1.0000
  H   H1764     1.0  0.48499  0.01371  0.44667  1.0000
  H   H1765     1.0  0.49554  0.98282  0.40419  1.0000
  N   N74       1.0  0.50867  0.01329  0.44302  1.0000
  H   H1766     1.0  0.47458  0.07797  0.44341  1.0000
  H   H1767     1.0  0.52773  0.01618  0.49717  1.0000
  C   C1037     1.0  0.52226  0.00326  0.48813  1.0000
  N   N75       1.0  0.66808  0.15412  0.24205  1.0000
  C   C1038     1.0  0.66443  0.13585  0.23626  1.0000
  C   C1039     1.0  0.66541  0.15645  0.27770  1.0000
  C   C1040     1.0  0.68533  0.16354  0.23278  1.0000
  C   C1041     1.0  0.66822  0.13084  0.20194  1.0000
  H   H1768     1.0  0.66918  0.16970  0.28476  1.0000
  C   C1042     1.0  0.69388  0.18090  0.24816  1.0000
  H   H1769     1.0  0.67116  0.13140  0.25332  1.0000
  H   H1770     1.0  0.65166  0.12821  0.24100  1.0000
  H   H1771     1.0  0.47899  0.08928  0.39640  1.0000
  H   H1772     1.0  0.67306  0.15194  0.29228  1.0000
  H   H1773     1.0  0.69258  0.15635  0.23951  1.0000
  H   H1774     1.0  0.68682  0.16503  0.20604  1.0000
  C   C1043     1.0  0.51573  0.01978  0.00587  1.0000
  H   H1775     1.0  0.66541  0.11725  0.20145  1.0000
  H   H1776     1.0  0.64595  0.17680  0.21884  1.0000
  H   H1777     1.0  0.50352  0.01942  0.00308  1.0000
  H   H1778     1.0  0.49093  0.99280  0.37116  1.0000
  H   H1779     1.0  0.68757  0.18931  0.24490  1.0000
  H   H1780     1.0  0.70581  0.18678  0.23643  1.0000
  H   H1781     1.0  0.69601  0.17999  0.27428  1.0000
  N   N76       1.0  0.57122  0.06189  0.18746  1.0000
  C   C1044     1.0  0.55590  0.06415  0.18093  1.0000
  C   C1045     1.0  0.57969  0.07424  0.21358  1.0000
  C   C1046     1.0  0.56677  0.04455  0.20012  1.0000
  C   C1047     1.0  0.58082  0.06430  0.15634  1.0000
  C   C1048     1.0  0.54498  0.05231  0.15537  1.0000
  C   C1049     1.0  0.58335  0.09262  0.20628  1.0000
  C   C1050     1.0  0.58048  0.03949  0.20992  1.0000
  C   C1051     1.0  0.59902  0.06939  0.15931  1.0000
  H   H1782     1.0  0.54873  0.06290  0.20373  1.0000
  H   H1783     1.0  0.55832  0.07684  0.17202  1.0000
  H   H1784     1.0  0.59115  0.07352  0.21963  1.0000
  H   H1785     1.0  0.57262  0.07130  0.23662  1.0000
  H   H1786     1.0  0.55873  0.04267  0.22168  1.0000
  H   H1787     1.0  0.55999  0.03506  0.18196  1.0000
  H   H1788     1.0  0.57625  0.05281  0.14104  1.0000
  H   H1789     1.0  0.57932  0.07425  0.14195  1.0000
  H   H1790     1.0  0.55118  0.05271  0.13182  1.0000
  H   H1791     1.0  0.53956  0.03936  0.16399  1.0000
  H   H1792     1.0  0.53494  0.05623  0.15092  1.0000
  H   H1793     1.0  0.59214  0.10055  0.22400  1.0000
  H   H1794     1.0  0.58846  0.09612  0.18167  1.0000
  H   H1795     1.0  0.57254  0.09552  0.20955  1.0000
  H   H1796     1.0  0.58755  0.03829  0.18854  1.0000
  H   H1797     1.0  0.57531  0.02700  0.22102  1.0000
  H   H1798     1.0  0.58820  0.04785  0.22853  1.0000
  H   H1799     1.0  0.60339  0.06388  0.13858  1.0000
  H   H1800     1.0  0.60295  0.06526  0.18142  1.0000
  H   H1801     1.0  0.60530  0.08303  0.15694  1.0000
  H   H1802     1.0  0.47610  0.10492  0.37382  1.0000
  C   C1052     1.0  0.51644  0.00171  0.45305  1.0000
  H   H1803     1.0  0.54257  0.02968  0.43441  1.0000
  H   H1804     1.0  0.54256  0.05019  0.43518  1.0000
  H   H1805     1.0  0.48875  0.99295  0.00045  1.0000
  H   H1806     1.0  0.46800  0.02899  0.24821  1.0000
  C   C1053     1.0  0.47645  0.09630  0.48019  1.0000
  S   S304      1.0  0.71106  0.15383  0.29538  1.0000
  H   H1807     1.0  0.51599  0.01090  0.02438  1.0000
  C   C1054     1.0  0.49220  0.99332  0.39788  1.0000
  H   H1808     1.0  0.51239  0.98653  0.00287  1.0000
  H   H1809     1.0  0.53196  0.99850  0.48909  1.0000
  H   H1810     1.0  0.47886  1.00000  0.19442  1.0000
  H   H1811     1.0  0.49690  0.03193  0.49169  1.0000
  C   C1055     1.0  0.47185  0.00286  0.21431  1.0000
  C   C1056     1.0  0.46625  0.08144  0.45888  1.0000
  H   H1812     1.0  0.48715  0.09427  0.48807  1.0000
  C   C1057     1.0  0.49382  0.01839  0.49441  1.0000
  Fe  Fe152     1.0  0.46478  0.04755  0.10984  1.0000
  C   C1058     1.0  0.51887  0.98464  0.34157  1.0000
  H   H1813     1.0  0.52239  0.03470  0.47308  1.0000
  S   S305      1.0  0.46632  0.03817  0.45569  1.0000
  H   H1814     1.0  0.49318  0.08117  0.99884  1.0000
  Fe  Fe153     1.0  0.68536  0.12378  0.78541  1.0000
  C   C1059     1.0  0.56034  0.06424  0.69028  1.0000
  S   S306      1.0  0.65998  0.11745  0.80681  1.0000
  C   C1060     1.0  0.46896  0.01609  0.72757  1.0000
  H   H1815     1.0  0.64400  0.07414  0.80355  1.0000
  Fe  Fe154     1.0  0.56262  0.05811  0.79902  1.0000
  S   S307      1.0  0.54397  0.03987  0.76667  1.0000
  S   S308      1.0  0.58777  0.06901  0.77513  1.0000
  Fe  Fe155     1.0  0.53744  0.05347  0.85382  1.0000
  S   S309      1.0  0.51748  0.03512  0.82544  1.0000
  S   S310      1.0  0.53417  0.06211  0.90504  1.0000
  Fe  Fe156     1.0  0.53532  0.02414  0.81102  1.0000
  S   S311      1.0  0.53019  0.99652  0.80874  1.0000
  Fe  Fe157     1.0  0.52753  0.05223  0.78337  1.0000
  S   S312      1.0  0.51063  0.06018  0.75431  1.0000
  S   S313      1.0  0.55491  0.04133  0.84226  1.0000
  S   S314      1.0  0.54651  0.07161  0.81284  1.0000
  C   C1061     1.0  0.58208  0.10953  0.74981  1.0000
  H   H1816     1.0  0.48182  0.01336  0.50603  1.0000
  C   C1062     1.0  0.54764  0.09767  0.72975  1.0000
  C   C1063     1.0  0.66454  0.07321  0.73653  1.0000
  S   S315      1.0  0.48746  0.04343  0.60852  1.0000
  Fe  Fe158     1.0  0.70961  0.10949  0.76113  1.0000
  H   H1817     1.0  0.64222  0.05784  0.75757  1.0000
  C   C1064     1.0  0.50311  0.98655  0.84741  1.0000
  H   H1818     1.0  0.58832  0.09882  0.67821  1.0000
  H   H1819     1.0  0.50230  0.99824  0.84171  1.0000
  H   H1820     1.0  0.57023  0.07025  0.67304  1.0000
  C   C1065     1.0  0.51627  0.05357  0.92805  1.0000
  C   C1066     1.0  0.50294  0.04060  0.91597  1.0000
  C   C1067     1.0  0.48935  0.03324  0.93578  1.0000
  C   C1068     1.0  0.51938  0.98823  0.97994  1.0000
  S   S316      1.0  0.47202  0.06534  0.53939  1.0000
  C   C1069     1.0  0.51562  0.05946  0.95981  1.0000
  H   H1821     1.0  0.50319  0.03605  0.89152  1.0000
  H   H1822     1.0  0.47923  0.02298  0.92639  1.0000
  H   H1823     1.0  0.46609  0.98774  0.64454  1.0000
  H   H1824     1.0  0.52589  0.06950  0.96936  1.0000
  C   C1070     1.0  0.50375  0.05458  0.71425  1.0000
  C   C1071     1.0  0.49217  0.05998  0.70253  1.0000
  C   C1072     1.0  0.48686  0.05651  0.67040  1.0000
  C   C1073     1.0  0.49326  0.04778  0.64950  1.0000
  C   C1074     1.0  0.50471  0.04222  0.66134  1.0000
  C   C1075     1.0  0.50987  0.04550  0.69358  1.0000
  H   H1825     1.0  0.48740  0.06706  0.71832  1.0000
  H   H1826     1.0  0.47805  0.06087  0.66163  1.0000
  H   H1827     1.0  0.50966  0.03536  0.64539  1.0000
  H   H1828     1.0  0.51866  0.04111  0.70230  1.0000
  C   C1076     1.0  0.63993  0.10418  0.79708  1.0000
  C   C1077     1.0  0.63575  0.09626  0.76687  1.0000
  C   C1078     1.0  0.61981  0.08557  0.76079  1.0000
  C   C1079     1.0  0.60773  0.08262  0.78464  1.0000
  C   C1080     1.0  0.61189  0.09060  0.81477  1.0000
  C   C1081     1.0  0.62783  0.10128  0.82086  1.0000
  H   H1829     1.0  0.64475  0.09848  0.74808  1.0000
  H   H1830     1.0  0.61681  0.07960  0.73730  1.0000
  H   H1831     1.0  0.60283  0.08857  0.83343  1.0000
  H   H1832     1.0  0.63082  0.10732  0.84430  1.0000
  C   C1082     1.0  0.52290  0.01740  0.97299  1.0000
  H   H1833     1.0  0.58813  0.11890  0.73114  1.0000
  N   N77       1.0  0.65989  0.06113  0.79448  1.0000
  H   H1834     1.0  0.56502  0.06080  0.71240  1.0000
  H   H1835     1.0  0.56618  0.08397  0.75512  1.0000
  C   C1083     1.0  0.67753  0.06490  0.79486  1.0000
  H   H1836     1.0  0.58783  0.11499  0.65434  1.0000
  C   C1084     1.0  0.47096  0.00115  0.65115  1.0000
  C   C1085     1.0  0.50194  0.05219  0.97956  1.0000
  H   H1837     1.0  0.55692  0.10286  0.66581  1.0000
  C   C1086     1.0  0.53338  0.09778  0.71032  1.0000
  S   S317      1.0  0.47199  0.02805  0.99231  1.0000
  H   H1838     1.0  0.65945  0.07028  0.71192  1.0000
  C   C1087     1.0  0.48663  0.98619  0.97705  1.0000
  C   C1088     1.0  0.65072  0.04496  0.81119  1.0000
  H   H1839     1.0  0.55241  0.05239  0.67886  1.0000
  H   H1840     1.0  0.53817  0.00300  0.93172  1.0000
  H   H1841     1.0  0.59156  0.10804  0.76439  1.0000
  H   H1842     1.0  0.65450  0.04506  0.83651  1.0000
  H   H1843     1.0  0.52477  0.10006  0.72733  1.0000
  C   C1089     1.0  0.65633  0.07536  0.80887  1.0000
  H   H1844     1.0  0.65079  0.08487  0.85453  1.0000
  H   H1845     1.0  0.57573  0.09390  0.64317  1.0000
  C   C1090     1.0  0.65895  0.07892  0.84543  1.0000
  H   H1846     1.0  0.56997  0.11739  0.69221  1.0000
  H   H1847     1.0  0.65601  0.06771  0.86020  1.0000
  S   S318      1.0  0.70151  0.11387  0.81100  1.0000
  C   C1091     1.0  0.48654  0.08604  0.98243  1.0000
  H   H1848     1.0  0.52681  0.08577  0.69802  1.0000
  H   H1849     1.0  0.53081  0.01161  0.87882  1.0000
  H   H1850     1.0  0.50214  0.01638  0.51122  1.0000
  H   H1851     1.0  0.47883  0.02072  0.70971  1.0000
  N   N78       1.0  0.51632  0.00022  0.95793  1.0000
  H   H1852     1.0  0.49566  0.98636  0.92928  1.0000
  C   C1092     1.0  0.63249  0.03974  0.81274  1.0000
  H   H1853     1.0  0.51368  0.01355  0.89746  1.0000
  H   H1854     1.0  0.47466  0.98502  0.96911  1.0000
  H   H1855     1.0  0.62717  0.02810  0.82675  1.0000
  C   C1093     1.0  0.57189  0.09251  0.73484  1.0000
  H   H1856     1.0  0.54149  0.06753  0.71686  1.0000
  C   C1094     1.0  0.68443  0.06120  0.82611  1.0000
  H   H1857     1.0  0.52064  0.98871  0.91340  1.0000
  H   H1858     1.0  0.65327  0.03468  0.79909  1.0000
  H   H1859     1.0  0.53361  0.02672  0.91003  1.0000
  C   C1095     1.0  0.55054  0.07487  0.69864  1.0000
  S   S319      1.0  0.69245  0.11789  0.73542  1.0000
  H   H1860     1.0  0.66395  0.08523  0.74396  1.0000
  C   C1096     1.0  0.48883  0.03888  0.96772  1.0000
  H   H1861     1.0  0.62895  0.04917  0.82542  1.0000
  H   H1862     1.0  0.48732  0.06911  0.91517  1.0000
  H   H1863     1.0  0.68090  0.05775  0.77538  1.0000
  H   H1864     1.0  0.54269  0.08954  0.75108  1.0000
  C   C1097     1.0  0.52577  0.01401  0.90220  1.0000
  H   H1865     1.0  0.46943  0.05200  0.92735  1.0000
  H   H1866     1.0  0.57509  0.11419  0.76680  1.0000
  C   C1098     1.0  0.56628  0.10424  0.68378  1.0000
  H   H1867     1.0  0.47127  0.10322  0.95678  1.0000
  C   C1099     1.0  0.58020  0.10262  0.66397  1.0000
  H   H1868     1.0  0.53708  0.10790  0.69240  1.0000
  H   H1869     1.0  0.55344  0.11047  0.73976  1.0000
  H   H1870     1.0  0.58044  0.08758  0.72393  1.0000
  H   H1871     1.0  0.67716  0.07462  0.73412  1.0000
  H   H1872     1.0  0.52112  0.02660  0.95697  1.0000
  H   H1873     1.0  0.68439  0.07821  0.78939  1.0000
  H   H1874     1.0  0.68057  0.04764  0.82974  1.0000
  H   H1875     1.0  0.54376  0.07493  0.67659  1.0000
  N   N79       1.0  0.55945  0.09235  0.71123  1.0000
  C   C1100     1.0  0.47419  0.06335  0.91275  1.0000
  H   H1876     1.0  0.62711  0.03701  0.78843  1.0000
  C   C1101     1.0  0.49892  0.99506  0.95029  1.0000
  H   H1877     1.0  0.49640  0.00593  0.94264  1.0000
  H   H1878     1.0  0.68155  0.06712  0.84789  1.0000
  H   H1879     1.0  0.67133  0.08765  0.85007  1.0000
  C   C1102     1.0  0.65479  0.05903  0.75955  1.0000
  H   H1880     1.0  0.47875  0.00777  0.63061  1.0000
  C   C1103     1.0  0.52553  0.00082  0.92672  1.0000
  S   S320      1.0  0.70420  0.15000  0.78607  1.0000
  H   H1881     1.0  0.65529  0.04737  0.74890  1.0000
  H   H1882     1.0  0.47861  0.00313  0.67243  1.0000
  H   H1883     1.0  0.46986  0.09729  0.50256  1.0000
  H   H1884     1.0  0.66386  0.08713  0.79696  1.0000
  H   H1885     1.0  0.69762  0.06625  0.82361  1.0000
  H   H1886     1.0  0.47200  0.02546  0.74758  1.0000
  S   S321      1.0  0.71310  0.08529  0.75340  1.0000
  H   H1887     1.0  0.51248  0.99586  0.50478  1.0000
  H   H1888     1.0  0.53602  0.02163  0.97591  1.0000
  Fe  Fe159     1.0  0.71241  0.14329  0.73773  1.0000
  H   H1889     1.0  0.49300  0.08857  0.95886  1.0000
  H   H1890     1.0  0.53205  0.99327  0.98745  1.0000
  C   C1104     1.0  0.46658  0.07624  0.91976  1.0000
  C   C1105     1.0  0.51547  0.98256  0.83408  1.0000
  H   H1891     1.0  0.71381  0.15268  0.56464  1.0000
  H   H1892     1.0  0.47011  0.06086  0.97696  1.0000
  Fe  Fe160     1.0  0.46784  0.04682  0.57948  1.0000
  H   H1893     1.0  0.47619  0.08856  0.91476  1.0000
  H   H1894     1.0  0.48677  0.09782  0.99358  1.0000
  H   H1895     1.0  0.46838  0.00429  0.73812  1.0000
  C   C1106     1.0  0.46935  0.07318  0.97950  1.0000
  H   H1896     1.0  0.47219  0.05922  0.88703  1.0000
  C   C1107     1.0  0.62304  0.57003  0.01769  1.0000
  H   H1897     1.0  0.61607  0.55788  0.08978  1.0000
  S   S322      1.0  0.49578  0.43401  0.33212  1.0000
  H   H1898     1.0  0.48717  0.64417  0.21816  1.0000
  C   C1108     1.0  0.60248  0.53185  0.09732  1.0000
  S   S323      1.0  0.48167  0.39515  0.26625  1.0000
  Fe  Fe161     1.0  0.56994  0.48829  0.01831  1.0000
  C   C1109     1.0  0.61839  0.51088  0.03942  1.0000
  H   H1899     1.0  0.62796  0.58321  0.01007  1.0000
  Fe  Fe162     1.0  0.54473  0.46601  0.06597  1.0000
  S   S324      1.0  0.52611  0.47512  0.05072  1.0000
  S   S325      1.0  0.54000  0.44678  0.10532  1.0000
  S   S326      1.0  0.66579  0.54056  0.03913  1.0000
  H   H1900     1.0  0.54496  0.47507  0.17460  1.0000
  Fe  Fe163     1.0  0.54578  0.50021  0.05164  1.0000
  S   S327      1.0  0.54280  0.52329  0.07097  1.0000
  S   S328      1.0  0.55184  0.46180  0.01487  1.0000
  S   S329      1.0  0.56415  0.49152  0.07064  1.0000
  H   H1901     1.0  0.48438  0.47475  0.19958  1.0000
  S   S330      1.0  0.69943  0.56223  0.47062  1.0000
  Fe  Fe164     1.0  0.47768  0.41236  0.30416  1.0000
  H   H1902     1.0  0.47422  0.44099  0.46216  1.0000
  C   C1110     1.0  0.66197  0.50491  0.46664  1.0000
  Fe  Fe165     1.0  0.47984  0.53252  0.18272  1.0000
  S   S331      1.0  0.48522  0.55321  0.14757  1.0000
  S   S332      1.0  0.49230  0.51440  0.18451  1.0000
  Fe  Fe166     1.0  0.48004  0.56794  0.18892  1.0000
  S   S333      1.0  0.49981  0.59413  0.19687  1.0000
  S   S334      1.0  0.47616  0.54736  0.22509  1.0000
  C   C1111     1.0  0.50417  0.61570  0.20560  1.0000
  C   C1112     1.0  0.49235  0.62225  0.20894  1.0000
  C   C1113     1.0  0.52016  0.62667  0.20903  1.0000
  H   H1903     1.0  0.48000  0.61409  0.20640  1.0000
  H   H1904     1.0  0.52945  0.62183  0.20664  1.0000
  C   C1114     1.0  0.47202  0.43453  0.43818  1.0000
  H   H1905     1.0  0.63690  0.52253  0.07421  1.0000
  H   H1906     1.0  0.48552  0.45885  0.39447  1.0000
  H   H1907     1.0  0.48859  0.51753  0.10540  1.0000
  H   H1908     1.0  0.66057  0.47071  0.49525  1.0000
  C   C1115     1.0  0.68589  0.51751  0.41404  1.0000
  C   C1116     1.0  0.47496  0.45927  0.40812  1.0000
  H   H1909     1.0  0.58277  0.57067  0.08433  1.0000
  H   H1910     1.0  0.68618  0.48470  0.44335  1.0000
  H   H1911     1.0  0.67735  0.52379  0.41344  1.0000
  C   C1117     1.0  0.52952  0.52083  0.10396  1.0000
  C   C1118     1.0  0.52118  0.50522  0.11735  1.0000
  C   C1119     1.0  0.50995  0.50343  0.14237  1.0000
  C   C1120     1.0  0.50715  0.51722  0.15450  1.0000
  C   C1121     1.0  0.51575  0.53288  0.14159  1.0000
  C   C1122     1.0  0.52690  0.53467  0.11639  1.0000
  H   H1912     1.0  0.52317  0.49449  0.10808  1.0000
  H   H1913     1.0  0.50309  0.49125  0.15157  1.0000
  H   H1914     1.0  0.51376  0.54363  0.15089  1.0000
  H   H1915     1.0  0.53336  0.54680  0.10623  1.0000
  C   C1123     1.0  0.49243  0.42426  0.16107  1.0000
  C   C1124     1.0  0.49394  0.43459  0.13454  1.0000
  C   C1125     1.0  0.50856  0.44197  0.11796  1.0000
  C   C1126     1.0  0.52176  0.43875  0.12721  1.0000
  C   C1127     1.0  0.52024  0.42831  0.15362  1.0000
  C   C1128     1.0  0.50569  0.42125  0.17081  1.0000
  H   H1916     1.0  0.48372  0.43692  0.12681  1.0000
  H   H1917     1.0  0.50951  0.44989  0.09766  1.0000
  H   H1918     1.0  0.53038  0.42566  0.16081  1.0000
  H   H1919     1.0  0.50465  0.41325  0.19111  1.0000
  C   C1129     1.0  0.50338  0.43427  0.37142  1.0000
  C   C1130     1.0  0.49996  0.41979  0.38917  1.0000
  C   C1131     1.0  0.50619  0.42069  0.42043  1.0000
  C   C1132     1.0  0.51574  0.43605  0.43443  1.0000
  C   C1133     1.0  0.51901  0.45054  0.41679  1.0000
  C   C1134     1.0  0.51294  0.44962  0.38540  1.0000
  H   H1920     1.0  0.49267  0.40789  0.37871  1.0000
  H   H1921     1.0  0.50362  0.40941  0.43385  1.0000
  H   H1922     1.0  0.52637  0.46243  0.42719  1.0000
  H   H1923     1.0  0.51571  0.46089  0.37185  1.0000
  H   H1924     1.0  0.61191  0.52965  0.11079  1.0000
  H   H1925     1.0  0.51465  0.41648  0.07676  1.0000
  C   C1135     1.0  0.58416  0.55938  0.09324  1.0000
  H   H1926     1.0  0.47290  0.48146  0.11465  1.0000
  C   C1136     1.0  0.50358  0.49102  0.25722  1.0000
  H   H1927     1.0  0.50609  0.43720  0.25285  1.0000
  H   H1928     1.0  0.51883  0.45511  0.18937  1.0000
  H   H1929     1.0  0.50667  0.53064  0.05791  1.0000
  H   H1930     1.0  0.47365  0.45306  0.19185  1.0000
  H   H1931     1.0  0.48455  0.42088  0.01564  1.0000
  S   S335      1.0  0.70617  0.53680  0.00631  1.0000
  H   H1932     1.0  0.54462  0.47241  0.21723  1.0000
  H   H1933     1.0  0.56557  0.53475  0.45800  1.0000
  C   C1137     1.0  0.61454  0.50829  0.00663  1.0000
  S   S336      1.0  0.52310  0.43649  0.47403  1.0000
  H   H1934     1.0  0.59521  0.56328  0.10731  1.0000
  N   N80       1.0  0.67692  0.50136  0.46778  1.0000
  H   H1935     1.0  0.48973  0.46759  0.45165  1.0000
  H   H1936     1.0  0.48243  0.48007  0.01488  1.0000
  H   H1937     1.0  0.50275  0.38829  0.00033  1.0000
  C   C1138     1.0  0.50683  0.40685  0.05989  1.0000
  H   H1938     1.0  0.46905  0.47094  0.04856  1.0000
  H   H1939     1.0  0.51568  0.63883  0.14336  1.0000
  H   H1940     1.0  0.46700  0.55270  0.49585  1.0000
  H   H1941     1.0  0.51028  0.49354  0.28016  1.0000
  H   H1942     1.0  0.46952  0.46550  0.39180  1.0000
  Fe  Fe167     1.0  0.71372  0.58697  0.49364  1.0000
  H   H1943     1.0  0.54321  0.49091  0.20049  1.0000
  C   C1139     1.0  0.52131  0.46828  0.19568  1.0000
  C   C1140     1.0  0.48723  0.49636  0.05795  1.0000
  C   C1141     1.0  0.48328  0.52002  0.08331  1.0000
  N   N81       1.0  0.47524  0.50423  0.06392  1.0000
  H   H1944     1.0  0.65786  0.45922  0.45842  1.0000
  C   C1142     1.0  0.51055  0.42914  0.02253  1.0000
  C   C1143     1.0  0.49649  0.63938  0.21568  1.0000
  C   C1144     1.0  0.63412  0.52059  0.04876  1.0000
  H   H1945     1.0  0.57585  0.54948  0.04659  1.0000
  H   H1946     1.0  0.47162  0.47173  0.45339  1.0000
  H   H1947     1.0  0.52032  0.39137  0.07127  1.0000
  H   H1948     1.0  0.49334  0.49575  0.08058  1.0000
  H   H1949     1.0  0.50120  0.37991  0.05269  1.0000
  C   C1145     1.0  0.51768  0.46459  0.25542  1.0000
  C   C1146     1.0  0.64634  0.52769  0.02556  1.0000
  H   H1950     1.0  0.60928  0.50524  0.05757  1.0000
  H   H1951     1.0  0.46877  0.42608  0.37975  1.0000
  H   H1952     1.0  0.59566  0.52024  0.08403  1.0000
  H   H1953     1.0  0.59454  0.53444  0.11549  1.0000
  H   H1954     1.0  0.68141  0.50580  0.39970  1.0000
  H   H1955     1.0  0.57260  0.52348  0.48488  1.0000
  H   H1956     1.0  0.49718  0.50437  0.04224  1.0000
  H   H1957     1.0  0.61001  0.57591  0.05660  1.0000
  H   H1958     1.0  0.49116  0.42900  0.05577  1.0000
  H   H1959     1.0  0.48017  0.51373  0.01505  1.0000
  H   H1960     1.0  0.50238  0.38685  0.09390  1.0000
  H   H1961     1.0  0.52590  0.49558  0.23383  1.0000
  C   C1147     1.0  0.59669  0.53632  0.02341  1.0000
  C   C1148     1.0  0.68976  0.51483  0.44913  1.0000
  C   C1149     1.0  0.53952  0.47728  0.19772  1.0000
  H   H1962     1.0  0.66439  0.51779  0.47556  1.0000
  H   H1963     1.0  0.66728  0.48295  0.42983  1.0000
  C   C1150     1.0  0.48131  0.47108  0.43741  1.0000
  N   N82       1.0  0.51177  0.46958  0.22520  1.0000
  C   C1151     1.0  0.51816  0.44707  0.25459  1.0000
  H   H1964     1.0  0.51774  0.47333  0.17406  1.0000
  H   H1965     1.0  0.48815  0.48381  0.42848  1.0000
  H   H1966     1.0  0.52587  0.44544  0.23479  1.0000
  H   H1967     1.0  0.51004  0.46487  0.27670  1.0000
  C   C1152     1.0  0.67453  0.48481  0.45200  1.0000
  H   H1968     1.0  0.69313  0.52701  0.46202  1.0000
  H   H1969     1.0  0.49182  0.48099  0.26127  1.0000
  C   C1153     1.0  0.49670  0.53422  0.06580  1.0000
  S   S337      1.0  0.47370  0.41534  0.18081  1.0000
  H   H1970     1.0  0.52976  0.47367  0.26161  1.0000
  H   H1971     1.0  0.49150  0.46348  0.16973  1.0000
  H   H1972     1.0  0.52312  0.44506  0.27771  1.0000
  H   H1973     1.0  0.69696  0.52596  0.40184  1.0000
  H   H1974     1.0  0.51072  0.49234  0.20649  1.0000
  C   C1154     1.0  0.49472  0.45802  0.22037  1.0000
  H   H1975     1.0  0.65023  0.54073  0.48485  1.0000
  C   C1155     1.0  0.48575  0.46288  0.19383  1.0000
  C   C1156     1.0  0.51333  0.48735  0.22920  1.0000
  H   H1976     1.0  0.49447  0.40560  0.06610  1.0000
  C   C1157     1.0  0.66681  0.46913  0.47301  1.0000
  H   H1977     1.0  0.47037  0.44831  0.34496  1.0000
  C   C1158     1.0  0.52789  0.41340  0.01882  1.0000
  C   C1159     1.0  0.56742  0.53309  0.48396  1.0000
  H   H1978     1.0  0.48398  0.43629  0.42813  1.0000
  H   H1979     1.0  0.48763  0.45625  0.24320  1.0000
  C   C1160     1.0  0.58365  0.54739  0.06483  1.0000
  H   H1980     1.0  0.49404  0.44535  0.21386  1.0000
  H   H1981     1.0  0.51452  0.43458  0.99844  1.0000
  H   H1982     1.0  0.65787  0.50434  0.44136  1.0000
  H   H1983     1.0  0.46766  0.54449  0.44180  1.0000
  H   H1984     1.0  0.62165  0.52847  0.47013  1.0000
  S   S338      1.0  0.54857  0.48624  0.48915  1.0000
  H   H1985     1.0  0.63216  0.56820  0.03275  1.0000
  C   C1161     1.0  0.50781  0.39024  0.06938  1.0000
  C   C1162     1.0  0.48132  0.47903  0.04165  1.0000
  H   H1986     1.0  0.50099  0.50209  0.25109  1.0000
  H   H1987     1.0  0.49699  0.63652  0.12770  1.0000
  H   H1988     1.0  0.70085  0.51231  0.44740  1.0000
  H   H1989     1.0  0.67582  0.46408  0.47959  1.0000
  C   C1163     1.0  0.60728  0.56651  0.03662  1.0000
  H   H1990     1.0  0.57427  0.55301  0.11058  1.0000
  H   H1991     1.0  0.50170  0.54483  0.08303  1.0000
  S   S339      1.0  0.70994  0.57084  0.04561  1.0000
  H   H1992     1.0  0.64290  0.48041  0.47521  1.0000
  N   N83       1.0  0.59947  0.54925  0.04986  1.0000
  Fe  Fe168     1.0  0.69085  0.55163  0.01549  1.0000
  H   H1993     1.0  0.70851  0.51126  0.49814  1.0000
  H   H1994     1.0  0.59010  0.52367  0.03308  1.0000
  H   H1995     1.0  0.51917  0.43800  0.03951  1.0000
  C   C1164     1.0  0.61030  0.54662  0.07440  1.0000
  H   H1996     1.0  0.53614  0.42237  0.03628  1.0000
  N   N84       1.0  0.51107  0.41212  0.02516  1.0000
  H   H1997     1.0  0.62045  0.54462  0.06207  1.0000
  H   H1998     1.0  0.49225  0.53894  0.04502  1.0000
  C   C1165     1.0  0.52430  0.64380  0.21582  1.0000
  C   C1166     1.0  0.64735  0.49316  0.48553  1.0000
  H   H1999     1.0  0.69824  0.48893  0.49560  1.0000
  H   H2000     1.0  0.59010  0.55326  0.48419  1.0000
  H   H2001     1.0  0.57680  0.53440  0.07263  1.0000
  H   H2002     1.0  0.51377  0.64198  0.10055  1.0000
  H   H2003     1.0  0.48736  0.39465  0.01445  1.0000
  H   H2004     1.0  0.48878  0.47232  0.04967  1.0000
  C   C1167     1.0  0.50997  0.64397  0.12541  1.0000
  H   H2005     1.0  0.63749  0.49757  0.48305  1.0000
  H   H2006     1.0  0.46572  0.51916  0.03665  1.0000
  H   H2007     1.0  0.52894  0.40130  0.02270  1.0000
  H   H2008     1.0  0.60815  0.53615  0.01390  1.0000
  H   H2009     1.0  0.59905  0.56949  0.02074  1.0000
  H   H2010     1.0  0.47078  0.41211  0.46208  1.0000
  C   C1168     1.0  0.49424  0.43020  0.02957  1.0000
  H   H2011     1.0  0.47448  0.52516  0.09225  1.0000
  H   H2012     1.0  0.57494  0.53630  0.00047  1.0000
  S   S340      1.0  0.46643  0.42350  0.26862  1.0000
  C   C1169     1.0  0.46996  0.50885  0.03245  1.0000
  C   C1170     1.0  0.62538  0.52496  0.49251  1.0000
  H   H2013     1.0  0.46636  0.50597  0.24050  1.0000
  H   H2014     1.0  0.49483  0.44264  0.02248  1.0000
  C   C1171     1.0  0.46460  0.48799  0.11671  1.0000
  Fe  Fe169     1.0  0.46884  0.40536  0.23205  1.0000
  H   H2015     1.0  0.46929  0.49865  0.13381  1.0000
  Fe  Fe170     1.0  0.53428  0.47267  0.99971  1.0000
  H   H2016     1.0  0.46849  0.53259  0.49338  1.0000
  S   S341      1.0  0.55264  0.49878  0.99949  1.0000
  C   C1172     1.0  0.49949  0.39933  0.00317  1.0000
  H   H2017     1.0  0.57405  0.55946  0.49253  1.0000
  H   H2018     1.0  0.46659  0.49056  0.26782  1.0000
  S   S342      1.0  0.71393  0.61122  0.47430  1.0000
  H   H2019     1.0  0.55553  0.52843  0.49594  1.0000
  Fe  Fe171     1.0  0.48196  0.40186  0.81371  1.0000
  S   S343      1.0  0.47964  0.41985  0.77784  1.0000
  S   S344      1.0  0.50253  0.41027  0.84912  1.0000
  Fe  Fe172     1.0  0.47529  0.39925  0.74135  1.0000
  S   S345      1.0  0.48237  0.40386  0.68804  1.0000
  S   S346      1.0  0.47933  0.38162  0.77615  1.0000
  Fe  Fe173     1.0  0.56902  0.48841  0.52168  1.0000
  H   H2020     1.0  0.46889  0.49870  0.86996  1.0000
  H   H2021     1.0  0.50773  0.38927  0.56932  1.0000
  Fe  Fe174     1.0  0.54566  0.46832  0.57501  1.0000
  S   S347      1.0  0.52403  0.46511  0.54665  1.0000
  S   S348      1.0  0.54407  0.45913  0.62663  1.0000
  C   C1173     1.0  0.50221  0.38057  0.61792  1.0000
  H   H2022     1.0  0.55809  0.41018  0.63808  1.0000
  Fe  Fe175     1.0  0.53701  0.49184  0.53397  1.0000
  S   S349      1.0  0.52349  0.50875  0.53148  1.0000
  S   S350      1.0  0.55833  0.46104  0.53348  1.0000
  S   S351      1.0  0.55786  0.49575  0.56556  1.0000
  H   H2023     1.0  0.50725  0.41626  0.96021  1.0000
  C   C1174     1.0  0.51139  0.39450  0.59402  1.0000
  H   H2024     1.0  0.50971  0.48997  0.88585  1.0000
  S   S352      1.0  0.59462  0.49717  0.99334  1.0000
  H   H2025     1.0  0.54892  0.42220  0.57510  1.0000
  Fe  Fe176     1.0  0.48861  0.54541  0.67266  1.0000
  S   S353      1.0  0.48244  0.56502  0.64837  1.0000
  S   S354      1.0  0.51012  0.53873  0.66470  1.0000
  Fe  Fe177     1.0  0.47717  0.57196  0.69893  1.0000
  S   S355      1.0  0.48198  0.59860  0.71700  1.0000
  S   S356      1.0  0.48493  0.55344  0.72331  1.0000
  C   C1175     1.0  0.49937  0.61736  0.71636  1.0000
  C   C1176     1.0  0.51393  0.61810  0.70318  1.0000
  C   C1177     1.0  0.49845  0.63204  0.72941  1.0000
  H   H2026     1.0  0.51489  0.60697  0.69310  1.0000
  H   H2027     1.0  0.48728  0.63165  0.73970  1.0000
  H   H2028     1.0  0.68390  0.51514  0.51272  1.0000
  H   H2029     1.0  0.59892  0.53867  0.52163  1.0000
  H   H2030     1.0  0.49483  0.46979  0.89056  1.0000
  C   C1178     1.0  0.48859  0.48206  0.61329  1.0000
  C   C1179     1.0  0.61394  0.51334  0.51265  1.0000
  C   C1180     1.0  0.62678  0.51523  0.98341  1.0000
  H   H2031     1.0  0.54014  0.48951  0.66535  1.0000
  H   H2032     1.0  0.58650  0.52789  0.97625  1.0000
  H   H2033     1.0  0.49694  0.39498  0.95089  1.0000
  H   H2034     1.0  0.50220  0.38559  0.64287  1.0000
  C   C1181     1.0  0.51972  0.51707  0.56847  1.0000
  C   C1182     1.0  0.52904  0.51810  0.59544  1.0000
  C   C1183     1.0  0.52618  0.52518  0.62451  1.0000
  C   C1184     1.0  0.51372  0.53085  0.62712  1.0000
  C   C1185     1.0  0.50430  0.52974  0.60023  1.0000
  C   C1186     1.0  0.50743  0.52304  0.57083  1.0000
  H   H2035     1.0  0.53856  0.51360  0.59387  1.0000
  H   H2036     1.0  0.53352  0.52606  0.64526  1.0000
  H   H2037     1.0  0.49469  0.53415  0.60207  1.0000
  H   H2038     1.0  0.50023  0.52235  0.54997  1.0000
  C   C1187     1.0  0.49898  0.42070  0.67297  1.0000
  C   C1188     1.0  0.49891  0.42541  0.64069  1.0000
  C   C1189     1.0  0.51243  0.43763  0.62656  1.0000
  C   C1190     1.0  0.52625  0.44514  0.64454  1.0000
  C   C1191     1.0  0.52616  0.44086  0.67718  1.0000
  C   C1192     1.0  0.51256  0.42871  0.69142  1.0000
  H   H2039     1.0  0.48842  0.41929  0.62631  1.0000
  H   H2040     1.0  0.51229  0.44084  0.60148  1.0000
  H   H2041     1.0  0.53680  0.44663  0.69131  1.0000
  H   H2042     1.0  0.51277  0.42514  0.71629  1.0000
  C   C1193     1.0  0.50536  0.42498  0.88114  1.0000
  C   C1194     1.0  0.49291  0.42919  0.89332  1.0000
  C   C1195     1.0  0.49556  0.44074  0.91910  1.0000
  C   C1196     1.0  0.51066  0.44822  0.93299  1.0000
  C   C1197     1.0  0.52309  0.44394  0.92101  1.0000
  C   C1198     1.0  0.52041  0.43230  0.89535  1.0000
  H   H2043     1.0  0.48119  0.42328  0.88325  1.0000
  H   H2044     1.0  0.48581  0.44380  0.92846  1.0000
  H   H2045     1.0  0.53481  0.44969  0.93126  1.0000
  H   H2046     1.0  0.53010  0.42907  0.88619  1.0000
  C   C1199     1.0  0.64678  0.52730  0.52928  1.0000
  C   C1200     1.0  0.52731  0.63327  0.70320  1.0000
  H   H2047     1.0  0.48872  0.45872  0.62937  1.0000
  S   S357      1.0  0.59366  0.50450  0.50002  1.0000
  H   H2048     1.0  0.50512  0.49575  0.70523  1.0000
  C   C1201     1.0  0.47871  0.45106  0.70015  1.0000
  S   S358      1.0  0.71287  0.54578  0.52833  1.0000
  C   C1202     1.0  0.48975  0.48513  0.85376  1.0000
  H   H2049     1.0  0.53038  0.40210  0.52975  1.0000
  C   C1203     1.0  0.49756  0.40493  0.96870  1.0000
  H   H2050     1.0  0.54518  0.54965  0.56377  1.0000
  H   H2051     1.0  0.52953  0.39569  0.64767  1.0000
  H   H2052     1.0  0.59378  0.56831  0.57104  1.0000
  H   H2053     1.0  0.67342  0.49395  0.51855  1.0000
  S   S359      1.0  0.51334  0.46282  0.96514  1.0000
  H   H2054     1.0  0.47850  0.48512  0.72208  1.0000
  H   H2055     1.0  0.47107  0.44786  0.81323  1.0000
  H   H2056     1.0  0.49364  0.49874  0.85035  1.0000
  H   H2057     1.0  0.58781  0.53705  0.59349  1.0000
  C   C1204     1.0  0.55543  0.55385  0.54647  1.0000
  H   H2058     1.0  0.59334  0.54982  0.98110  1.0000
  C   C1205     1.0  0.55044  0.41742  0.63996  1.0000
  C   C1206     1.0  0.53546  0.38836  0.58682  1.0000
  C   C1207     1.0  0.59236  0.56716  0.54428  1.0000
  C   C1208     1.0  0.53482  0.41845  0.98452  1.0000
  C   C1209     1.0  0.55261  0.39429  0.57294  1.0000
  C   C1210     1.0  0.53572  0.41672  0.57569  1.0000
  H   H2059     1.0  0.48674  0.45252  0.84269  1.0000
  H   H2060     1.0  0.60719  0.55029  0.57734  1.0000
  H   H2061     1.0  0.55083  0.42150  0.66571  1.0000
  N   N85       1.0  0.49844  0.47643  0.66830  1.0000
  C   C1211     1.0  0.51508  0.48139  0.65433  1.0000
  C   C1212     1.0  0.48711  0.46973  0.64062  1.0000
  C   C1213     1.0  0.49596  0.46304  0.69291  1.0000
  C   C1214     1.0  0.49713  0.49162  0.68411  1.0000
  C   C1215     1.0  0.52870  0.48645  0.67891  1.0000
  H   H2062     1.0  0.55035  0.55088  0.52191  1.0000
  H   H2063     1.0  0.56146  0.40338  0.58873  1.0000
  H   H2064     1.0  0.50661  0.40443  0.59740  1.0000
  H   H2065     1.0  0.51610  0.47120  0.63897  1.0000
  H   H2066     1.0  0.70786  0.53800  0.79002  1.0000
  H   H2067     1.0  0.65176  0.53015  0.97455  1.0000
  H   H2068     1.0  0.61760  0.58316  0.54473  1.0000
  N   N86       1.0  0.47196  0.47666  0.85044  1.0000
  H   H2069     1.0  0.46680  0.48354  0.89869  1.0000
  H   H2070     1.0  0.53226  0.42681  0.58583  1.0000
  H   H2071     1.0  0.47564  0.47405  0.79888  1.0000
  S   S360      1.0  0.70435  0.57834  0.54368  1.0000
  H   H2072     1.0  0.52876  0.40864  0.96634  1.0000
  H   H2073     1.0  0.47452  0.46499  0.64888  1.0000
  H   H2074     1.0  0.62403  0.51328  0.95796  1.0000
  C   C1216     1.0  0.46624  0.45862  0.85920  1.0000
  H   H2075     1.0  0.52785  0.37991  0.56792  1.0000
  C   C1217     1.0  0.61902  0.50897  0.54148  1.0000
  C   C1218     1.0  0.53026  0.41385  0.54021  1.0000
  H   H2076     1.0  0.46702  0.49478  0.77845  1.0000
  H   H2077     1.0  0.50696  0.37062  0.61798  1.0000
  H   H2078     1.0  0.55542  0.42898  0.62579  1.0000
  H   H2079     1.0  0.48741  0.49358  0.62245  1.0000
  H   H2080     1.0  0.50136  0.46855  0.71647  1.0000
  H   H2081     1.0  0.61047  0.50007  0.55728  1.0000
  C   C1219     1.0  0.46951  0.49529  0.80473  1.0000
  H   H2082     1.0  0.56894  0.54631  0.57993  1.0000
  S   S361      1.0  0.66733  0.53447  0.53983  1.0000
  C   C1220     1.0  0.49663  0.48289  0.88635  1.0000
  C   C1221     1.0  0.64164  0.53196  0.50079  1.0000
  C   C1222     1.0  0.46788  0.47789  0.81562  1.0000
  C   C1223     1.0  0.56646  0.54462  0.55357  1.0000
  H   H2083     1.0  0.58673  0.57608  0.53886  1.0000
  H   H2084     1.0  0.49988  0.48517  0.59928  1.0000
  H   H2085     1.0  0.53848  0.63363  0.69297  1.0000
  C   C1224     1.0  0.47373  0.44821  0.83934  1.0000
  H   H2086     1.0  0.60094  0.52827  0.57572  1.0000
  C   C1225     1.0  0.53305  0.40672  0.63180  1.0000
  H   H2087     1.0  0.51798  0.49207  0.63792  1.0000
  C   C1226     1.0  0.60900  0.57434  0.52780  1.0000
  C   C1227     1.0  0.63531  0.51583  0.54959  1.0000
  H   H2088     1.0  0.54751  0.41995  0.98413  1.0000
  H   H2089     1.0  0.60869  0.58100  0.50535  1.0000
  H   H2090     1.0  0.53475  0.38009  0.60749  1.0000
  H   H2091     1.0  0.53835  0.42416  0.52514  1.0000
  H   H2092     1.0  0.49609  0.48089  0.83437  1.0000
  H   H2093     1.0  0.71294  0.55031  0.82645  1.0000
  C   C1228     1.0  0.59669  0.53858  0.57374  1.0000
  C   C1229     1.0  0.57875  0.54981  0.49834  1.0000
  H   H2094     1.0  0.56132  0.56746  0.54989  1.0000
  N   N87       1.0  0.52930  0.40161  0.59683  1.0000
  H   H2095     1.0  0.52965  0.49773  0.69305  1.0000
  H   H2096     1.0  0.52583  0.41374  0.64067  1.0000
  N   N88       1.0  0.58177  0.54982  0.53402  1.0000
  H   H2097     1.0  0.55927  0.53112  0.55035  1.0000
  H   H2098     1.0  0.52769  0.47622  0.69541  1.0000
  S   S362      1.0  0.69863  0.56628  0.96926  1.0000
  C   C1230     1.0  0.58948  0.53764  0.54002  1.0000
  H   H2099     1.0  0.58073  0.52473  0.53693  1.0000
  H   H2100     1.0  0.50174  0.50254  0.66798  1.0000
  H   H2101     1.0  0.47868  0.44317  0.72095  1.0000
  Fe  Fe178     1.0  0.69174  0.55299  0.52118  1.0000
  H   H2102     1.0  0.51814  0.41392  0.53806  1.0000
  H   H2103     1.0  0.63908  0.51209  0.57168  1.0000
  H   H2104     1.0  0.48954  0.37484  0.61073  1.0000
  H   H2105     1.0  0.50220  0.45485  0.68488  1.0000
  H   H2106     1.0  0.49182  0.48777  0.90723  1.0000
  H   H2107     1.0  0.50020  0.64131  0.61189  1.0000
  H   H2108     1.0  0.48611  0.40657  0.96670  1.0000
  H   H2109     1.0  0.49489  0.63771  0.65369  1.0000
  H   H2110     1.0  0.64944  0.49319  0.51183  1.0000
  H   H2111     1.0  0.55352  0.39969  0.54855  1.0000
  H   H2112     1.0  0.48012  0.50262  0.69776  1.0000
  H   H2113     1.0  0.46841  0.43517  0.84758  1.0000
  H   H2114     1.0  0.53470  0.43050  0.97706  1.0000
  H   H2115     1.0  0.55609  0.38343  0.57003  1.0000
  H   H2116     1.0  0.48168  0.50470  0.80816  1.0000
  C   C1231     1.0  0.48063  0.49008  0.69713  1.0000
  H   H2117     1.0  0.51358  0.63786  0.64013  1.0000
  H   H2118     1.0  0.47379  0.44240  0.67942  1.0000
  H   H2119     1.0  0.46795  0.45709  0.88535  1.0000
  H   H2120     1.0  0.61400  0.56491  0.52160  1.0000
  H   H2121     1.0  0.69998  0.49975  0.53355  1.0000
  H   H2122     1.0  0.46498  0.54023  0.53120  1.0000
  C   C1232     1.0  0.68238  0.50276  0.50232  1.0000
  C   C1233     1.0  0.69817  0.50046  0.50720  1.0000
  H   H2123     1.0  0.47886  0.47618  0.59584  1.0000
  H   H2124     1.0  0.47072  0.48258  0.68146  1.0000
  C   C1234     1.0  0.50499  0.64389  0.63668  1.0000
  C   C1235     1.0  0.64256  0.52483  0.99275  1.0000
  Fe  Fe179     1.0  0.53716  0.45961  0.50405  1.0000
  H   H2125     1.0  0.47069  0.45750  0.70668  1.0000
  C   C1236     1.0  0.58732  0.53797  0.99392  1.0000
  H   H2126     1.0  0.62133  0.56233  0.99532  1.0000
  Fe  Fe180     1.0  0.68476  0.88112  0.08876  1.0000
  S   S363      1.0  0.69662  0.90170  0.05373  1.0000
  S   S364      1.0  0.65944  0.86179  0.09071  1.0000
  N   N89       1.0  0.48421  0.86315  0.02813  1.0000
  S   S365      1.0  0.69895  0.89552  0.13135  1.0000
  S   S366      1.0  0.70144  0.86837  0.07697  1.0000
  S   S367      1.0  0.69320  0.77868  0.36309  1.0000
  S   S368      1.0  0.67836  0.80447  0.33446  1.0000
  Fe  Fe181     1.0  0.69191  0.80317  0.37841  1.0000
  Fe  Fe182     1.0  0.68182  0.78162  0.31689  1.0000
  S   S369      1.0  0.66505  0.76162  0.28413  1.0000
  C   C1237     1.0  0.68367  0.72165  0.24818  1.0000
  C   C1238     1.0  0.59591  0.87300  0.47996  1.0000
  H   H2127     1.0  0.47192  0.96502  0.27711  1.0000
  N   N90       1.0  0.59204  0.81252  0.12498  1.0000
  Fe  Fe183     1.0  0.55295  0.79359  0.45284  1.0000
  C   C1239     1.0  0.66146  0.83632  0.37765  1.0000
  S   S370      1.0  0.54925  0.76954  0.42537  1.0000
  Fe  Fe184     1.0  0.54859  0.82572  0.47277  1.0000
  S   S371      1.0  0.53998  0.84723  0.46804  1.0000
  C   C1240     1.0  0.50424  0.89342  0.01932  1.0000
  S   S372      1.0  0.54936  0.78571  0.06714  1.0000
  S   S373      1.0  0.56464  0.81996  0.43578  1.0000
  H   H2128     1.0  0.60623  0.78904  0.07186  1.0000
  Fe  Fe185     1.0  0.47689  0.91585  0.38857  1.0000
  H   H2129     1.0  0.67822  0.86674  0.46051  1.0000
  S   S374      1.0  0.48750  0.93726  0.35345  1.0000
  H   H2130     1.0  0.50394  0.66510  0.11933  1.0000
  H   H2131     1.0  0.70333  0.77632  0.43438  1.0000
  S   S375      1.0  0.47992  0.85852  0.41076  1.0000
  C   C1241     1.0  0.55910  0.68060  0.13695  1.0000
  S   S376      1.0  0.48483  0.90602  0.43230  1.0000
  Fe  Fe186     1.0  0.47202  0.88064  0.41014  1.0000
  Fe  Fe187     1.0  0.54673  0.73310  0.25296  1.0000
  S   S377      1.0  0.57179  0.74191  0.23399  1.0000
  S   S378      1.0  0.53817  0.75212  0.27562  1.0000
  Fe  Fe188     1.0  0.53902  0.69644  0.23152  1.0000
  S   S379      1.0  0.56409  0.70285  0.21272  1.0000
  S   S380      1.0  0.51685  0.67199  0.22688  1.0000
  Fe  Fe189     1.0  0.57215  0.71914  0.25753  1.0000
  S   S381      1.0  0.59038  0.72168  0.29621  1.0000
  Fe  Fe190     1.0  0.56157  0.72535  0.19104  1.0000
  S   S382      1.0  0.56906  0.73248  0.13874  1.0000
  S   S383      1.0  0.54720  0.71087  0.27822  1.0000
  S   S384      1.0  0.53635  0.71840  0.20795  1.0000
  H   H2132     1.0  0.63201  0.83432  0.07052  1.0000
  H   H2133     1.0  0.64188  0.84427  0.47656  1.0000
  H   H2134     1.0  0.47998  0.94942  0.27945  1.0000
  C   C1242     1.0  0.51247  0.65033  0.21923  1.0000
  H   H2135     1.0  0.61074  0.90238  0.46043  1.0000
  C   C1243     1.0  0.54704  0.76574  0.38328  1.0000
  C   C1244     1.0  0.54902  0.75164  0.37027  1.0000
  C   C1245     1.0  0.54713  0.74785  0.33703  1.0000
  C   C1246     1.0  0.54252  0.75775  0.31668  1.0000
  C   C1247     1.0  0.54060  0.77192  0.32959  1.0000
  C   C1248     1.0  0.54308  0.77606  0.36273  1.0000
  H   H2136     1.0  0.55191  0.74350  0.38607  1.0000
  H   H2137     1.0  0.54866  0.73693  0.32744  1.0000
  H   H2138     1.0  0.53701  0.77963  0.31398  1.0000
  H   H2139     1.0  0.54145  0.78691  0.37253  1.0000
  C   C1249     1.0  0.56323  0.74699  0.11870  1.0000
  C   C1250     1.0  0.56941  0.75238  0.08759  1.0000
  C   C1251     1.0  0.56511  0.76401  0.07113  1.0000
  C   C1252     1.0  0.55450  0.77031  0.08564  1.0000
  C   C1253     1.0  0.54818  0.76474  0.11656  1.0000
  C   C1254     1.0  0.55256  0.75322  0.13310  1.0000
  H   H2140     1.0  0.57765  0.74760  0.07625  1.0000
  H   H2141     1.0  0.57005  0.76817  0.04733  1.0000
  H   H2142     1.0  0.53997  0.76954  0.12799  1.0000
  H   H2143     1.0  0.54770  0.74920  0.15701  1.0000
  C   C1255     1.0  0.52313  0.84998  0.45179  1.0000
  C   C1256     1.0  0.51029  0.83688  0.43842  1.0000
  C   C1257     1.0  0.49726  0.83977  0.42595  1.0000
  C   C1258     1.0  0.49683  0.85576  0.42661  1.0000
  C   C1259     1.0  0.50965  0.86886  0.44007  1.0000
  C   C1260     1.0  0.52269  0.86597  0.45255  1.0000
  H   H2144     1.0  0.51039  0.82451  0.43761  1.0000
  H   H2145     1.0  0.48744  0.82953  0.41557  1.0000
  H   H2146     1.0  0.50962  0.88125  0.44053  1.0000
  C   C1261     1.0  0.70909  0.84904  0.24863  1.0000
  C   C1262     1.0  0.51281  0.95971  0.38782  1.0000
  C   C1263     1.0  0.50325  0.95660  0.36050  1.0000
  H   H2147     1.0  0.71423  0.78098  0.47048  1.0000
  H   H2148     1.0  0.51061  0.95010  0.40557  1.0000
  C   C1264     1.0  0.50846  0.68315  0.31466  1.0000
  C   C1265     1.0  0.64408  0.75275  0.28876  1.0000
  C   C1266     1.0  0.63687  0.74653  0.31852  1.0000
  C   C1267     1.0  0.62038  0.73717  0.32043  1.0000
  C   C1268     1.0  0.61089  0.73428  0.29283  1.0000
  C   C1269     1.0  0.61800  0.74104  0.26332  1.0000
  C   C1270     1.0  0.63457  0.74999  0.26123  1.0000
  H   H2149     1.0  0.64411  0.74820  0.33971  1.0000
  H   H2150     1.0  0.61501  0.73179  0.34325  1.0000
  H   H2151     1.0  0.61084  0.73883  0.24188  1.0000
  H   H2152     1.0  0.64009  0.75452  0.23801  1.0000
  H   H2153     1.0  0.50626  0.69125  0.13439  1.0000
  H   H2154     1.0  0.65466  0.83888  0.02414  1.0000
  H   H2155     1.0  0.59409  0.79630  0.16250  1.0000
  H   H2156     1.0  0.54019  0.65710  0.13575  1.0000
  C   C1271     1.0  0.68379  0.86857  0.33544  1.0000
  H   H2157     1.0  0.52107  0.67285  0.07596  1.0000
  H   H2158     1.0  0.58614  0.82873  0.06708  1.0000
  H   H2159     1.0  0.47213  0.92221  0.28718  1.0000
  C   C1272     1.0  0.64431  0.86062  0.06372  1.0000
  C   C1273     1.0  0.64424  0.87455  0.04768  1.0000
  H   H2160     1.0  0.50155  0.89942  0.04136  1.0000
  C   C1274     1.0  0.68693  0.82940  0.48004  1.0000
  C   C1275     1.0  0.61936  0.84368  0.03789  1.0000
  C   C1276     1.0  0.63183  0.84519  0.05868  1.0000
  H   H2161     1.0  0.65378  0.88651  0.05146  1.0000
  C   C1277     1.0  0.54136  0.66989  0.14260  1.0000
  H   H2162     1.0  0.52845  0.69073  0.16475  1.0000
  H   H2163     1.0  0.57807  0.78665  0.13610  1.0000
  C   C1278     1.0  0.58471  0.79859  0.14892  1.0000
  H   H2164     1.0  0.48174  0.71633  0.27683  1.0000
  H   H2165     1.0  0.50185  0.70525  0.22872  1.0000
  H   H2166     1.0  0.57362  0.88570  0.39946  1.0000
  N   N91       1.0  0.52959  0.67486  0.12489  1.0000
  H   H2167     1.0  0.67496  0.72761  0.25273  1.0000
  C   C1279     1.0  0.58051  0.82062  0.11773  1.0000
  C   C1280     1.0  0.46833  0.70157  0.33024  1.0000
  H   H2168     1.0  0.60191  0.81489  0.07626  1.0000
  H   H2169     1.0  0.54231  0.70132  0.13486  1.0000
  H   H2170     1.0  0.51007  0.66323  0.15887  1.0000
  H   H2171     1.0  0.49919  0.96687  0.31620  1.0000
  N   N92       1.0  0.60143  0.77501  0.35762  1.0000
  C   C1281     1.0  0.60543  0.77464  0.32198  1.0000
  C   C1282     1.0  0.61689  0.78385  0.37492  1.0000
  C   C1283     1.0  0.59082  0.78469  0.36174  1.0000
  C   C1284     1.0  0.59293  0.75730  0.36831  1.0000
  C   C1285     1.0  0.59114  0.76776  0.29908  1.0000
  C   C1286     1.0  0.62913  0.77557  0.37211  1.0000
  C   C1287     1.0  0.59002  0.79227  0.39552  1.0000
  C   C1288     1.0  0.58958  0.75426  0.40486  1.0000
  H   H2172     1.0  0.61300  0.78733  0.31347  1.0000
  H   H2173     1.0  0.61252  0.76688  0.31718  1.0000
  H   H2174     1.0  0.61502  0.78549  0.40114  1.0000
  H   H2175     1.0  0.62282  0.79675  0.36575  1.0000
  H   H2176     1.0  0.59461  0.79537  0.34484  1.0000
  H   H2177     1.0  0.57839  0.77687  0.35505  1.0000
  H   H2178     1.0  0.58110  0.75167  0.35677  1.0000
  H   H2179     1.0  0.59908  0.74917  0.35920  1.0000
  H   H2180     1.0  0.58343  0.77499  0.30027  1.0000
  H   H2181     1.0  0.59576  0.76852  0.27381  1.0000
  H   H2182     1.0  0.58388  0.75446  0.30352  1.0000
  H   H2183     1.0  0.62405  0.76245  0.37983  1.0000
  H   H2184     1.0  0.63423  0.77642  0.34725  1.0000
  H   H2185     1.0  0.63926  0.78228  0.38824  1.0000
  H   H2186     1.0  0.58703  0.78314  0.41517  1.0000
  H   H2187     1.0  0.58046  0.79726  0.39569  1.0000
  H   H2188     1.0  0.60124  0.80290  0.40115  1.0000
  H   H2189     1.0  0.57804  0.75503  0.41207  1.0000
  H   H2190     1.0  0.59904  0.76261  0.42053  1.0000
  H   H2191     1.0  0.58891  0.74159  0.41039  1.0000
  H   H2192     1.0  0.60004  0.91496  0.40958  1.0000
  H   H2193     1.0  0.49103  0.84824  0.06130  1.0000
  H   H2194     1.0  0.69249  0.84471  0.35494  1.0000
  H   H2195     1.0  0.66732  0.82952  0.36289  1.0000
  H   H2196     1.0  0.49314  0.67996  0.27401  1.0000
  H   H2197     1.0  0.56624  0.67631  0.15328  1.0000
  S   S385      1.0  0.57103  0.79680  0.49118  1.0000
  H   H2198     1.0  0.50745  0.87137  0.00437  1.0000
  H   H2199     1.0  0.46671  0.91941  0.24570  1.0000
  H   H2200     1.0  0.55168  0.68691  0.05433  1.0000
  H   H2201     1.0  0.56297  0.67906  0.11188  1.0000
  H   H2202     1.0  0.63125  0.88397  0.01580  1.0000
  C   C1289     1.0  0.50636  0.96914  0.33749  1.0000
  H   H2203     1.0  0.61788  0.91129  0.40918  1.0000
  C   C1290     1.0  0.60002  0.89677  0.44508  1.0000
  H   H2204     1.0  0.49846  0.89027  0.48998  1.0000
  H   H2205     1.0  0.62709  0.87270  0.40989  1.0000
  H   H2206     1.0  0.49052  0.82586  0.02213  1.0000
  H   H2207     1.0  0.62707  0.89083  0.43104  1.0000
  C   C1291     1.0  0.70082  0.73473  0.24771  1.0000
  C   C1292     1.0  0.47643  0.86987  0.05438  1.0000
  H   H2208     1.0  0.59282  0.85935  0.48085  1.0000
  H   H2209     1.0  0.53936  0.69815  0.06181  1.0000
  H   H2210     1.0  0.69997  0.85985  0.43827  1.0000
  C   C1293     1.0  0.51308  0.66238  0.13282  1.0000
  N   N93       1.0  0.59408  0.87807  0.44601  1.0000
  S   S386      1.0  0.70508  0.79604  0.29157  1.0000
  H   H2211     1.0  0.49957  0.67626  0.33325  1.0000
  H   H2212     1.0  0.49740  0.89490  0.99869  1.0000
  H   H2213     1.0  0.51899  0.69280  0.32591  1.0000
  H   H2214     1.0  0.55410  0.69872  0.09068  1.0000
  C   C1294     1.0  0.69674  0.86860  0.42364  1.0000
  H   H2215     1.0  0.59099  0.90112  0.45611  1.0000
  H   H2216     1.0  0.70735  0.79604  0.45466  1.0000
  H   H2217     1.0  0.55873  0.86540  0.40171  1.0000
  H   H2218     1.0  0.51799  0.69720  0.09735  1.0000
  H   H2219     1.0  0.61583  0.81872  0.14309  1.0000
  S   S387      1.0  0.60828  0.83515  0.46838  1.0000
  H   H2220     1.0  0.62378  0.87188  0.45246  1.0000
  H   H2221     1.0  0.51170  0.69702  0.27173  1.0000
  H   H2222     1.0  0.68164  0.71166  0.26577  1.0000
  H   H2223     1.0  0.59977  0.84286  0.16333  1.0000
  H   H2224     1.0  0.67399  0.83872  0.42211  1.0000
  C   C1295     1.0  0.48449  0.84673  0.03820  1.0000
  H   H2225     1.0  0.48368  0.87268  0.07672  1.0000
  C   C1296     1.0  0.54507  0.69063  0.07386  1.0000
  H   H2226     1.0  0.47583  0.88181  0.04687  1.0000
  H   H2227     1.0  0.56957  0.87521  0.45448  1.0000
  S   S388      1.0  0.68293  0.80832  0.42762  1.0000
  H   H2228     1.0  0.59837  0.85711  0.42539  1.0000
  H   H2229     1.0  0.58403  0.79744  0.08167  1.0000
  S   S389      1.0  0.53569  0.79891  0.48736  1.0000
  C   C1297     1.0  0.50707  0.71714  0.35284  1.0000
  C   C1298     1.0  0.62131  0.87712  0.42996  1.0000
  H   H2230     1.0  0.70822  0.87884  0.41732  1.0000
  H   H2231     1.0  0.69049  0.73348  0.34269  1.0000
  H   H2232     1.0  0.61007  0.83174  0.03317  1.0000
  H   H2233     1.0  0.66868  0.82022  0.03399  1.0000
  H   H2234     1.0  0.53665  0.65189  0.21868  1.0000
  H   H2235     1.0  0.69768  0.71653  0.30533  1.0000
  C   C1299     1.0  0.69445  0.82467  0.45381  1.0000
  H   H2236     1.0  0.67738  0.72815  0.30834  1.0000
  C   C1300     1.0  0.61892  0.85766  0.02288  1.0000
  H   H2237     1.0  0.47820  0.84573  0.48527  1.0000
  Fe  Fe191     1.0  0.70231  0.81883  0.31202  1.0000
  H   H2238     1.0  0.65090  0.82675  0.38935  1.0000
  C   C1301     1.0  0.49206  0.83835  0.01336  1.0000
  S   S390      1.0  0.55837  0.82533  0.01822  1.0000
  H   H2239     1.0  0.61756  0.80151  0.10418  1.0000
  H   H2240     1.0  0.49633  0.71704  0.36610  1.0000
  H   H2241     1.0  0.60204  0.87325  0.39796  1.0000
  H   H2242     1.0  0.47252  0.83744  0.04391  1.0000
  H   H2243     1.0  0.67829  0.85523  0.32912  1.0000
  H   H2244     1.0  0.67603  0.87444  0.32537  1.0000
  C   C1302     1.0  0.53232  0.67478  0.08871  1.0000
  H   H2245     1.0  0.51691  0.72869  0.36071  1.0000
  C   C1303     1.0  0.68783  0.87639  0.44666  1.0000
  H   H2246     1.0  0.51283  0.67407  0.30292  1.0000
  H   H2247     1.0  0.69636  0.75677  0.28464  1.0000
  H   H2248     1.0  0.53547  0.66404  0.08137  1.0000
  C   C1304     1.0  0.50137  0.87505  0.02496  1.0000
  H   H2249     1.0  0.66486  0.85323  0.41692  1.0000
  H   H2250     1.0  0.47223  0.68044  0.31007  1.0000
  H   H2251     1.0  0.51701  0.90031  0.01316  1.0000
  C   C1305     1.0  0.60329  0.87093  0.42374  1.0000
  H   H2252     1.0  0.67571  0.87584  0.38081  1.0000
  C   C1306     1.0  0.50153  0.69055  0.28837  1.0000
  H   H2253     1.0  0.51745  0.72068  0.30484  1.0000
  H   H2254     1.0  0.53253  0.87623  0.46276  1.0000
  H   H2255     1.0  0.59743  0.84420  0.09676  1.0000
  C   C1307     1.0  0.60526  0.79419  0.09627  1.0000
  H   H2256     1.0  0.57692  0.83992  0.09045  1.0000
  H   H2257     1.0  0.50506  0.84535  0.01037  1.0000
  H   H2258     1.0  0.69661  0.88465  0.37362  1.0000
  H   H2259     1.0  0.65691  0.84367  0.36208  1.0000
  C   C1308     1.0  0.46928  0.95217  0.28528  1.0000
  C   C1309     1.0  0.59535  0.80507  0.09371  1.0000
  H   H2260     1.0  0.57755  0.82646  0.13968  1.0000
  C   C1310     1.0  0.63147  0.87309  0.02757  1.0000
  C   C1311     1.0  0.60766  0.82496  0.13705  1.0000
  H   H2261     1.0  0.59963  0.78340  0.11234  1.0000
  H   H2262     1.0  0.57207  0.85662  0.44243  1.0000
  Fe  Fe192     1.0  0.58152  0.82342  0.47675  1.0000
  C   C1312     1.0  0.51836  0.69795  0.12411  1.0000
  H   H2263     1.0  0.53312  0.97741  0.41244  1.0000
  H   H2264     1.0  0.60029  0.89668  0.39037  1.0000
  C   C1313     1.0  0.67222  0.84724  0.40425  1.0000
  H   H2265     1.0  0.68252  0.84098  0.03010  1.0000
  H   H2266     1.0  0.57682  0.81222  0.18733  1.0000
  H   H2267     1.0  0.56218  0.69391  0.14272  1.0000
  C   C1314     1.0  0.47961  0.69259  0.32151  1.0000
  H   H2268     1.0  0.48354  0.68923  0.34460  1.0000
  H   H2269     1.0  0.51015  0.72463  0.25154  1.0000
  H   H2270     1.0  0.60230  0.82722  0.18869  1.0000
  C   C1315     1.0  0.50536  0.71750  0.31575  1.0000
  H   H2271     1.0  0.56115  0.79860  0.16196  1.0000
  H   H2272     1.0  0.49377  0.72080  0.22525  1.0000
  C   C1316     1.0  0.53040  0.69142  0.13805  1.0000
  C   C1317     1.0  0.57250  0.80028  0.17387  1.0000
  C   C1318     1.0  0.60475  0.90499  0.41151  1.0000
  C   C1319     1.0  0.48699  0.70704  0.27024  1.0000
  H   H2273     1.0  0.50992  0.70661  0.36086  1.0000
  C   C1320     1.0  0.49905  0.71487  0.24259  1.0000
  C   C1321     1.0  0.57175  0.87258  0.40383  1.0000
  H   H2274     1.0  0.47715  0.69614  0.25967  1.0000
  Fe  Fe193     1.0  0.55815  0.79934  0.01951  1.0000
  C   C1322     1.0  0.52555  0.97517  0.39163  1.0000
  H   H2275     1.0  0.68298  0.88439  0.43378  1.0000
  H   H2276     1.0  0.68023  0.74631  0.33155  1.0000
  H   H2277     1.0  0.67429  0.82286  0.48422  1.0000
  H   H2278     1.0  0.52189  0.71125  0.13118  1.0000
  H   H2279     1.0  0.68113  0.71517  0.22429  1.0000
  C   C1323     1.0  0.60683  0.83518  0.16730  1.0000
  H   H2280     1.0  0.47484  0.71494  0.33586  1.0000
  H   H2281     1.0  0.57750  0.86765  0.38467  1.0000
  H   H2282     1.0  0.50818  0.87477  0.04688  1.0000
  H   H2283     1.0  0.56963  0.79019  0.19186  1.0000
  H   H2284     1.0  0.61908  0.84396  0.17306  1.0000
  H   H2285     1.0  0.53896  0.66975  0.16920  1.0000
  H   H2286     1.0  0.50247  0.72858  0.31121  1.0000
  N   N94       1.0  0.68807  0.86000  0.39352  1.0000
  C   C1324     1.0  0.58582  0.83410  0.09152  1.0000
  N   N95       1.0  0.49354  0.70205  0.29973  1.0000
  H   H2287     1.0  0.61397  0.83394  0.11781  1.0000
  H   H2288     1.0  0.56897  0.81104  0.10979  1.0000
  H   H2289     1.0  0.47533  0.87063  0.47376  1.0000
  C   C1325     1.0  0.57664  0.87024  0.43819  1.0000
  C   C1326     1.0  0.68641  0.73843  0.32165  1.0000
  C   C1327     1.0  0.71237  0.78660  0.44803  1.0000
  H   H2290     1.0  0.70000  0.74560  0.23544  1.0000
  H   H2291     1.0  0.46736  0.95209  0.31190  1.0000
  H   H2292     1.0  0.69824  0.84126  0.39316  1.0000
  H   H2293     1.0  0.46830  0.89449  0.26945  1.0000
  H   H2294     1.0  0.69628  0.88429  0.46497  1.0000
  C   C1328     1.0  0.71079  0.83323  0.44865  1.0000
  C   C1329     1.0  0.69786  0.85130  0.37748  1.0000
  C   C1330     1.0  0.68597  0.87281  0.37209  1.0000
  C   C1331     1.0  0.63741  0.84901  0.49733  1.0000
  H   H2295     1.0  0.69531  0.87419  0.32206  1.0000
  H   H2296     1.0  0.60848  0.87887  0.48779  1.0000
  H   H2297     1.0  0.71222  0.85328  0.01900  1.0000
  C   C1332     1.0  0.71195  0.85127  0.49557  1.0000
  C   C1333     1.0  0.70063  0.74908  0.30016  1.0000
  S   S391      1.0  0.70314  0.84265  0.28901  1.0000
  C   C1334     1.0  0.70455  0.86125  0.23534  1.0000
  H   H2298     1.0  0.69708  0.86609  0.24938  1.0000
  C   C1335     1.0  0.67382  0.83048  0.01649  1.0000
  H   H2299     1.0  0.70623  0.87688  0.19428  1.0000
  H   H2300     1.0  0.67031  0.86679  0.01558  1.0000
  H   H2301     1.0  0.70914  0.75806  0.31711  1.0000
  Fe  Fe194     1.0  0.71252  0.91547  0.09508  1.0000
  S   S392      1.0  0.46572  0.89066  0.36457  1.0000
  H   H2302     1.0  0.70805  0.73048  0.23035  1.0000
  C   C1336     1.0  0.66029  0.83491  0.00317  1.0000
  N   N96       1.0  0.70886  0.73999  0.27987  1.0000
  C   C1337     1.0  0.70963  0.72557  0.29836  1.0000
  C   C1338     1.0  0.70971  0.86738  0.20405  1.0000
  Fe  Fe195     1.0  0.71417  0.88965  0.04466  1.0000
  H   H2303     1.0  0.71292  0.71047  0.25724  1.0000
  H   H2304     1.0  0.68714  0.86319  0.00082  1.0000
  Fe  Fe196     1.0  0.68140  0.88173  0.58271  1.0000
  S   S393      1.0  0.69999  0.89644  0.54645  1.0000
  S   S394      1.0  0.65460  0.87444  0.58122  1.0000
  C   C1339     1.0  0.71342  0.83760  0.97874  1.0000
  S   S395      1.0  0.69361  0.89905  0.62333  1.0000
  S   S396      1.0  0.69267  0.86362  0.59387  1.0000
  S   S397      1.0  0.69627  0.78194  0.87207  1.0000
  S   S398      1.0  0.70090  0.81739  0.83733  1.0000
  C   C1340     1.0  0.48925  0.88821  0.50933  1.0000
  Fe  Fe197     1.0  0.68567  0.79031  0.83071  1.0000
  S   S399      1.0  0.65980  0.78653  0.82438  1.0000
  S   S400      1.0  0.70210  0.78555  0.79434  1.0000
  H   H2305     1.0  0.48368  0.95592  0.80549  1.0000
  H   H2306     1.0  0.60082  0.70056  0.84602  1.0000
  H   H2307     1.0  0.56673  0.73915  0.89118  1.0000
  Fe  Fe198     1.0  0.56957  0.80069  0.94911  1.0000
  S   S401      1.0  0.54519  0.79166  0.97231  1.0000
  S   S402      1.0  0.57990  0.78997  0.90789  1.0000
  Fe  Fe199     1.0  0.54704  0.81827  0.96948  1.0000
  S   S403      1.0  0.52498  0.82215  0.95178  1.0000
  H   H2308     1.0  0.59130  0.75273  0.87936  1.0000
  S   S404      1.0  0.55148  0.79739  0.57771  1.0000
  S   S405      1.0  0.57049  0.82657  0.94268  1.0000
  C   C1341     1.0  0.64794  0.85783  0.52189  1.0000
  Fe  Fe200     1.0  0.47579  0.92050  0.91115  1.0000
  S   S406      1.0  0.48406  0.90481  0.87760  1.0000
  S   S407      1.0  0.47933  0.94755  0.90514  1.0000
  S   S408      1.0  0.70697  0.87730  0.68618  1.0000
  Fe  Fe201     1.0  0.48793  0.89212  0.92184  1.0000
  S   S409      1.0  0.51060  0.88795  0.93414  1.0000
  H   H2309     1.0  0.51128  0.69376  0.65755  1.0000
  S   S410      1.0  0.48203  0.90983  0.95514  1.0000
  S   S411      1.0  0.58250  0.80649  0.99659  1.0000
  Fe  Fe202     1.0  0.55389  0.72673  0.76247  1.0000
  S   S412      1.0  0.57460  0.74369  0.73262  1.0000
  S   S413      1.0  0.54184  0.73513  0.80411  1.0000
  Fe  Fe203     1.0  0.55163  0.69472  0.72628  1.0000
  S   S414      1.0  0.57238  0.70962  0.69461  1.0000
  S   S415      1.0  0.54361  0.66683  0.71412  1.0000
  Fe  Fe204     1.0  0.58416  0.72371  0.73887  1.0000
  S   S416      1.0  0.60983  0.72690  0.74556  1.0000
  Fe  Fe205     1.0  0.56118  0.72832  0.69027  1.0000
  S   S417      1.0  0.56144  0.73531  0.63730  1.0000
  S   S418      1.0  0.56436  0.70760  0.77135  1.0000
  S   S419      1.0  0.53958  0.71268  0.71952  1.0000
  H   H2310     1.0  0.62169  0.86647  0.57126  1.0000
  H   H2311     1.0  0.65109  0.82305  0.99482  1.0000
  C   C1342     1.0  0.52167  0.69970  0.64122  1.0000
  H   H2312     1.0  0.53653  0.68927  0.66516  1.0000
  C   C1343     1.0  0.61550  0.85232  0.52666  1.0000
  C   C1344     1.0  0.56887  0.77512  0.87889  1.0000
  C   C1345     1.0  0.57654  0.77316  0.85013  1.0000
  C   C1346     1.0  0.56835  0.76110  0.82681  1.0000
  C   C1347     1.0  0.55240  0.75088  0.83212  1.0000
  C   C1348     1.0  0.54466  0.75300  0.86068  1.0000
  C   C1349     1.0  0.55288  0.76500  0.88411  1.0000
  H   H2313     1.0  0.58891  0.78098  0.84594  1.0000
  H   H2314     1.0  0.57440  0.75966  0.80481  1.0000
  H   H2315     1.0  0.53232  0.74508  0.86499  1.0000
  H   H2316     1.0  0.54697  0.76620  0.90646  1.0000
  C   C1350     1.0  0.55840  0.75255  0.62143  1.0000
  C   C1351     1.0  0.55950  0.75481  0.58773  1.0000
  C   C1352     1.0  0.55723  0.76836  0.57395  1.0000
  C   C1353     1.0  0.55375  0.77975  0.59379  1.0000
  C   C1354     1.0  0.55265  0.77750  0.62750  1.0000
  C   C1355     1.0  0.55501  0.76399  0.64132  1.0000
  H   H2317     1.0  0.56210  0.74601  0.57217  1.0000
  H   H2318     1.0  0.55809  0.76992  0.54798  1.0000
  H   H2319     1.0  0.54995  0.78626  0.64302  1.0000
  H   H2320     1.0  0.55410  0.76237  0.66727  1.0000
  C   C1356     1.0  0.52149  0.84070  0.94612  1.0000
  C   C1357     1.0  0.53265  0.85641  0.95442  1.0000
  C   C1358     1.0  0.52917  0.87069  0.95012  1.0000
  C   C1359     1.0  0.51451  0.86950  0.93759  1.0000
  C   C1360     1.0  0.50339  0.85379  0.92905  1.0000
  C   C1361     1.0  0.50689  0.83951  0.93325  1.0000
  H   H2321     1.0  0.54394  0.85757  0.96430  1.0000
  H   H2322     1.0  0.53789  0.88276  0.95676  1.0000
  H   H2323     1.0  0.49210  0.85263  0.91920  1.0000
  H   H2324     1.0  0.49816  0.82744  0.92670  1.0000
  C   C1362     1.0  0.49289  0.96033  0.87638  1.0000
  H   H2325     1.0  0.53537  0.65482  0.60640  1.0000
  C   C1363     1.0  0.50488  0.95604  0.86215  1.0000
  H   H2326     1.0  0.48631  0.83653  0.98948  1.0000
  H   H2327     1.0  0.50575  0.94438  0.86800  1.0000
  C   C1364     1.0  0.64618  0.76997  0.80202  1.0000
  C   C1365     1.0  0.63086  0.76970  0.79715  1.0000
  C   C1366     1.0  0.61962  0.75665  0.77959  1.0000
  C   C1367     1.0  0.62366  0.74379  0.76682  1.0000
  C   C1368     1.0  0.63902  0.74415  0.77147  1.0000
  C   C1369     1.0  0.65028  0.75722  0.78897  1.0000
  H   H2328     1.0  0.62767  0.77960  0.80710  1.0000
  H   H2329     1.0  0.60784  0.75652  0.77596  1.0000
  H   H2330     1.0  0.64219  0.73420  0.76166  1.0000
  H   H2331     1.0  0.66206  0.75734  0.79261  1.0000
  H   H2332     1.0  0.60773  0.72489  0.89284  1.0000
  H   H2333     1.0  0.60017  0.70335  0.80374  1.0000
  H   H2334     1.0  0.65914  0.82752  0.91187  1.0000
  C   C1370     1.0  0.49183  0.97543  0.86831  1.0000
  C   C1371     1.0  0.52640  0.64794  0.71631  1.0000
  H   H2335     1.0  0.68964  0.84638  0.52054  1.0000
  H   H2336     1.0  0.71044  0.82665  0.99339  1.0000
  H   H2337     1.0  0.52554  0.96388  0.83039  1.0000
  C   C1372     1.0  0.64226  0.86405  0.54877  1.0000
  Fe  Fe206     1.0  0.71263  0.80888  0.87653  1.0000
  H   H2338     1.0  0.46730  0.97149  0.78942  1.0000
  H   H2339     1.0  0.58769  0.89054  0.50705  1.0000
  H   H2340     1.0  0.67622  0.85327  0.92988  1.0000
  C   C1373     1.0  0.62607  0.86147  0.55074  1.0000
  H   H2341     1.0  0.69927  0.93258  0.69635  1.0000
  C   C1374     1.0  0.61556  0.75640  0.87274  1.0000
  H   H2342     1.0  0.62993  0.82914  0.98314  1.0000
  H   H2343     1.0  0.51774  0.70138  0.61683  1.0000
  H   H2344     1.0  0.56317  0.66888  0.61507  1.0000
  H   H2345     1.0  0.53842  0.65951  0.64813  1.0000
  H   H2346     1.0  0.67992  0.82605  0.99715  1.0000
  Fe  Fe207     1.0  0.70637  0.88202  0.63209  1.0000
  C   C1375     1.0  0.67403  0.84406  0.94946  1.0000
  N   N97       1.0  0.59118  0.72906  0.86108  1.0000
  C   C1376     1.0  0.47629  0.86223  0.99608  1.0000
  C   C1377     1.0  0.70723  0.93694  0.67492  1.0000
  H   H2347     1.0  0.59527  0.72824  0.80953  1.0000
  C   C1378     1.0  0.58543  0.70421  0.90026  1.0000
  H   H2348     1.0  0.61191  0.72981  0.83271  1.0000
  S   S420      1.0  0.60294  0.85613  0.99795  1.0000
  C   C1379     1.0  0.49510  0.85446  0.52282  1.0000
  C   C1380     1.0  0.56344  0.72598  0.88399  1.0000
  H   H2349     1.0  0.60347  0.80176  0.51177  1.0000
  C   C1381     1.0  0.60655  0.80019  0.53700  1.0000
  C   C1382     1.0  0.65057  0.85067  0.96572  1.0000
  H   H2350     1.0  0.57154  0.73032  0.83427  1.0000
  C   C1383     1.0  0.63530  0.83515  0.96000  1.0000
  H   H2351     1.0  0.52597  0.68858  0.54730  1.0000
  H   H2352     1.0  0.50958  0.67633  0.59067  1.0000
  Fe  Fe208     1.0  0.58179  0.83177  0.99163  1.0000
  Fe  Fe209     1.0  0.71335  0.91266  0.58829  1.0000
  C   C1384     1.0  0.66634  0.82690  0.93277  1.0000
  N   N98       1.0  0.66986  0.80595  0.71982  1.0000
  C   C1385     1.0  0.66033  0.81048  0.74596  1.0000
  C   C1386     1.0  0.65841  0.79375  0.69677  1.0000
  C   C1387     1.0  0.68024  0.82097  0.70113  1.0000
  C   C1388     1.0  0.68043  0.79865  0.73557  1.0000
  C   C1389     1.0  0.66988  0.82439  0.76987  1.0000
  C   C1390     1.0  0.64954  0.77608  0.70973  1.0000
  C   C1391     1.0  0.67165  0.83115  0.68584  1.0000
  C   C1392     1.0  0.69073  0.79262  0.71233  1.0000
  H   H2353     1.0  0.65107  0.81419  0.73538  1.0000
  H   H2354     1.0  0.65361  0.79950  0.76101  1.0000
  H   H2355     1.0  0.66439  0.79265  0.67356  1.0000
  H   H2356     1.0  0.64906  0.79825  0.68957  1.0000
  H   H2357     1.0  0.68974  0.82949  0.71665  1.0000
  H   H2358     1.0  0.68674  0.81740  0.68108  1.0000
  H   H2359     1.0  0.68907  0.80800  0.75173  1.0000
  H   H2360     1.0  0.67361  0.78846  0.75239  1.0000
  H   H2361     1.0  0.66145  0.82657  0.78747  1.0000
  H   H2362     1.0  0.67814  0.82084  0.78438  1.0000
  H   H2363     1.0  0.67647  0.83635  0.75775  1.0000
  H   H2364     1.0  0.64249  0.77615  0.73184  1.0000
  H   H2365     1.0  0.64101  0.76845  0.69131  1.0000
  H   H2366     1.0  0.65770  0.76970  0.71452  1.0000
  H   H2367     1.0  0.68056  0.84171  0.67251  1.0000
  H   H2368     1.0  0.66606  0.83666  0.70435  1.0000
  H   H2369     1.0  0.66270  0.82374  0.66803  1.0000
  H   H2370     1.0  0.60273  0.78664  0.54074  1.0000
  H   H2371     1.0  0.68545  0.78854  0.68831  1.0000
  H   H2372     1.0  0.60302  0.85021  0.52886  1.0000
  H   H2373     1.0  0.55779  0.68414  0.59599  1.0000
  H   H2374     1.0  0.61935  0.77004  0.86994  1.0000
  H   H2375     1.0  0.47122  0.92779  0.83982  1.0000
  H   H2376     1.0  0.65333  0.85771  0.94271  1.0000
  H   H2377     1.0  0.68797  0.87872  0.95020  1.0000
  H   H2378     1.0  0.61693  0.75430  0.89869  1.0000
  H   H2379     1.0  0.57948  0.70315  0.92437  1.0000
  N   N99       1.0  0.66503  0.84800  0.97739  1.0000
  H   H2380     1.0  0.50041  0.84540  0.51496  1.0000
  H   H2381     1.0  0.47621  0.91635  0.77072  1.0000
  H   H2382     1.0  0.71328  0.67368  0.95921  1.0000
  H   H2383     1.0  0.66041  0.85977  0.52015  1.0000
  H   H2384     1.0  0.59292  0.73014  0.91316  1.0000
  H   H2385     1.0  0.71295  0.84677  0.78016  1.0000
  C   C1393     1.0  0.51216  0.66267  0.64482  1.0000
  H   H2386     1.0  0.54047  0.69702  0.57682  1.0000
  C   C1394     1.0  0.46613  0.92349  0.81542  1.0000
  H   H2387     1.0  0.59368  0.69761  0.90184  1.0000
  H   H2388     1.0  0.52552  0.97078  0.94842  1.0000
  H   H2389     1.0  0.70489  0.86720  0.75215  1.0000
  H   H2390     1.0  0.51514  0.96196  0.98496  1.0000
  C   C1395     1.0  0.59486  0.72275  0.89232  1.0000
  H   H2391     1.0  0.48707  0.89989  0.51185  1.0000
  C   C1396     1.0  0.58596  0.87726  0.50683  1.0000
  C   C1397     1.0  0.68091  0.87967  0.97181  1.0000
  C   C1398     1.0  0.59502  0.70521  0.82746  1.0000
  H   H2392     1.0  0.55082  0.72141  0.87644  1.0000
  H   H2393     1.0  0.50243  0.86622  0.51094  1.0000
  H   H2394     1.0  0.56803  0.71042  0.84771  1.0000
  N   N100      1.0  0.52627  0.67316  0.62433  1.0000
  C   C1399     1.0  0.53290  0.69019  0.63994  1.0000
  C   C1400     1.0  0.67589  0.86406  0.99304  1.0000
  H   H2395     1.0  0.70629  0.67388  0.88584  1.0000
  H   H2396     1.0  0.68624  0.84563  0.95654  1.0000
  C   C1401     1.0  0.55598  0.67665  0.61802  1.0000
  C   C1402     1.0  0.51184  0.64722  0.72944  1.0000
  H   H2397     1.0  0.54401  0.69853  0.62790  1.0000
  C   C1403     1.0  0.71051  0.86018  0.73844  1.0000
  H   H2398     1.0  0.68880  0.89053  0.98603  1.0000
  H   H2399     1.0  0.49450  0.88667  0.53218  1.0000
  H   H2400     1.0  0.48447  0.86213  0.97573  1.0000
  H   H2401     1.0  0.62627  0.83905  0.94899  1.0000
  H   H2402     1.0  0.56087  0.68498  0.63918  1.0000
  H   H2403     1.0  0.50220  0.66701  0.64323  1.0000
  H   H2404     1.0  0.48107  0.94575  0.76772  1.0000
  C   C1404     1.0  0.51584  0.97074  0.96533  1.0000
  C   C1405     1.0  0.71308  0.68656  0.89568  1.0000
  H   H2405     1.0  0.69215  0.78165  0.72279  1.0000
  N   N101      1.0  0.60318  0.81007  0.59531  1.0000
  C   C1406     1.0  0.59776  0.80788  0.56061  1.0000
  C   C1407     1.0  0.59232  0.81640  0.61458  1.0000
  C   C1408     1.0  0.60107  0.79312  0.60732  1.0000
  C   C1409     1.0  0.62044  0.82182  0.59609  1.0000
  C   C1410     1.0  0.52051  0.67348  0.59055  1.0000
  C   C1411     1.0  0.59124  0.83249  0.60231  1.0000
  C   C1412     1.0  0.60460  0.79189  0.64319  1.0000
  C   C1413     1.0  0.62652  0.83163  0.62795  1.0000
  H   H2406     1.0  0.58481  0.80009  0.55929  1.0000
  H   H2407     1.0  0.59923  0.81998  0.54995  1.0000
  H   H2408     1.0  0.59557  0.81860  0.64036  1.0000
  H   H2409     1.0  0.58002  0.80684  0.61517  1.0000
  H   H2410     1.0  0.58864  0.78417  0.60325  1.0000
  H   H2411     1.0  0.60886  0.78804  0.59351  1.0000
  H   H2412     1.0  0.62837  0.81512  0.58971  1.0000
  H   H2413     1.0  0.62278  0.83143  0.57721  1.0000
  H   H2414     1.0  0.51087  0.65833  0.73958  1.0000
  C   C1414     1.0  0.47464  0.95012  0.78650  1.0000
  H   H2415     1.0  0.51535  0.66392  0.67086  1.0000
  H   H2416     1.0  0.58397  0.83010  0.58016  1.0000
  H   H2417     1.0  0.58509  0.83736  0.62094  1.0000
  H   H2418     1.0  0.60311  0.84224  0.59765  1.0000
  H   H2419     1.0  0.59708  0.79604  0.65981  1.0000
  H   H2420     1.0  0.61740  0.79856  0.64826  1.0000
  H   H2421     1.0  0.60168  0.77861  0.64873  1.0000
  H   H2422     1.0  0.63935  0.83398  0.63023  1.0000
  H   H2423     1.0  0.62054  0.82535  0.65029  1.0000
  H   H2424     1.0  0.62614  0.84420  0.62681  1.0000
  N   N102      1.0  0.53977  0.80520  0.84919  1.0000
  C   C1415     1.0  0.55423  0.82128  0.84716  1.0000
  C   C1416     1.0  0.52578  0.80882  0.83801  1.0000
  C   C1417     1.0  0.54266  0.79275  0.82659  1.0000
  C   C1418     1.0  0.53794  0.79951  0.88381  1.0000
  C   C1419     1.0  0.57050  0.81995  0.85170  1.0000
  C   C1420     1.0  0.52106  0.82084  0.85982  1.0000
  C   C1421     1.0  0.52814  0.77723  0.81670  1.0000
  C   C1422     1.0  0.52236  0.78509  0.89365  1.0000
  H   H2425     1.0  0.55489  0.82730  0.82333  1.0000
  H   H2426     1.0  0.55355  0.83042  0.86578  1.0000
  H   H2427     1.0  0.51489  0.79743  0.83562  1.0000
  H   H2428     1.0  0.52811  0.81402  0.81314  1.0000
  H   H2429     1.0  0.54821  0.79878  0.80342  1.0000
  H   H2430     1.0  0.55133  0.78817  0.83716  1.0000
  H   H2431     1.0  0.54775  0.79558  0.89022  1.0000
  H   H2432     1.0  0.53951  0.81001  0.90096  1.0000
  H   H2433     1.0  0.57995  0.83263  0.85202  1.0000
  H   H2434     1.0  0.57113  0.81422  0.87496  1.0000
  H   H2435     1.0  0.57351  0.81301  0.83154  1.0000
  H   H2436     1.0  0.51732  0.81574  0.88433  1.0000
  H   H2437     1.0  0.53064  0.83335  0.86174  1.0000
  H   H2438     1.0  0.51067  0.82252  0.84926  1.0000
  H   H2439     1.0  0.52130  0.77014  0.83758  1.0000
  H   H2440     1.0  0.53240  0.76867  0.80268  1.0000
  H   H2441     1.0  0.52021  0.78036  0.80040  1.0000
  H   H2442     1.0  0.52394  0.77308  0.89286  1.0000
  H   H2443     1.0  0.51194  0.78392  0.87925  1.0000
  H   H2444     1.0  0.51907  0.78725  0.91892  1.0000
  C   C1423     1.0  0.51610  0.96712  0.84093  1.0000
  H   H2445     1.0  0.62396  0.75267  0.85799  1.0000
  C   C1424     1.0  0.59875  0.72388  0.83220  1.0000
  H   H2446     1.0  0.67590  0.82288  0.92356  1.0000
  H   H2447     1.0  0.71131  0.95061  0.67298  1.0000
  C   C1425     1.0  0.47370  0.87374  0.49945  1.0000
  C   C1426     1.0  0.53845  0.66525  0.62432  1.0000
  C   C1427     1.0  0.47895  0.91927  0.79653  1.0000
  Fe  Fe210     1.0  0.71206  0.87924  0.55973  1.0000
  H   H2448     1.0  0.48064  0.86820  0.56469  1.0000
  H   H2449     1.0  0.51646  0.66088  0.57928  1.0000
  H   H2450     1.0  0.58215  0.69753  0.82646  1.0000
  H   H2451     1.0  0.61965  0.80639  0.53850  1.0000
  C   C1428     1.0  0.47768  0.84779  0.51190  1.0000
  H   H2452     1.0  0.70027  0.70191  0.88068  1.0000
  H   H2453     1.0  0.49081  0.92949  0.79884  1.0000
  C   C1429     1.0  0.53255  0.68505  0.56618  1.0000
  H   H2454     1.0  0.57311  0.86934  0.50502  1.0000
  Fe  Fe211     1.0  0.55489  0.80388  0.52427  1.0000
  H   H2455     1.0  0.49625  0.85562  0.54947  1.0000
  H   H2456     1.0  0.70270  0.80259  0.70878  1.0000
  H   H2457     1.0  0.65898  0.81688  0.94900  1.0000
  H   H2458     1.0  0.67063  0.88261  0.96465  1.0000
  H   H2459     1.0  0.59703  0.75292  0.83814  1.0000
  C   C1430     1.0  0.47089  0.96411  0.77099  1.0000
  C   C1431     1.0  0.57358  0.72362  0.85528  1.0000
  H   H2460     1.0  0.57615  0.69731  0.88278  1.0000
  H   H2461     1.0  0.63716  0.82598  0.94330  1.0000
  H   H2462     1.0  0.56382  0.71875  0.90541  1.0000
  H   H2463     1.0  0.64703  0.85849  0.98345  1.0000
  C   C1432     1.0  0.59805  0.74785  0.86218  1.0000
  H   H2464     1.0  0.52819  0.71237  0.65124  1.0000
  H   H2465     1.0  0.53980  0.67874  0.55425  1.0000
  H   H2466     1.0  0.48189  0.97287  0.75909  1.0000
  H   H2467     1.0  0.50443  0.96578  0.95229  1.0000
  H   H2468     1.0  0.70880  0.69413  0.84739  1.0000
  H   H2469     1.0  0.48233  0.97866  0.87859  1.0000
  H   H2470     1.0  0.69988  0.93173  0.65326  1.0000
  H   H2471     1.0  0.58975  0.87460  0.53073  1.0000
  S   S421      1.0  0.56665  0.83098  0.51247  1.0000
  H   H2472     1.0  0.70658  0.68665  0.91870  1.0000
  C   C1433     1.0  0.71072  0.69912  0.87256  1.0000
  H   H2473     1.0  0.47983  0.90805  0.80713  1.0000
  H   H2474     1.0  0.47404  0.87373  0.99232  1.0000
  C   C1434     1.0  0.71313  0.86269  0.70492  1.0000
  H   H2475     1.0  0.47176  0.83524  0.52267  1.0000
  N   N103      1.0  0.46812  0.85828  0.51967  1.0000
  C   C1435     1.0  0.46843  0.86199  0.55554  1.0000
  H   H2476     1.0  0.48596  0.97338  0.98080  1.0000
  C   C1436     1.0  0.69560  0.84273  0.50067  1.0000
  Fe  Fe212     1.0  0.71447  0.77966  0.83634  1.0000
  C   C1437     1.0  0.62113  0.84607  0.49981  1.0000
  Fe  Fe213     1.0  0.78355  0.03873  0.14739  1.0000
  S   S422      1.0  0.78349  0.05508  0.10586  1.0000
  S   S423      1.0  0.77372  0.01010  0.14981  1.0000
  Fe  Fe214     1.0  0.80781  0.06875  0.18515  1.0000
  S   S424      1.0  0.80986  0.08678  0.14541  1.0000
  S   S425      1.0  0.81563  0.07518  0.23755  1.0000
  Fe  Fe215     1.0  0.78332  0.07410  0.14338  1.0000
  S   S426      1.0  0.77175  0.09274  0.13844  1.0000
  Fe  Fe216     1.0  0.81007  0.06665  0.11062  1.0000
  S   S427      1.0  0.82183  0.06786  0.06088  1.0000
  S   S428      1.0  0.78105  0.05696  0.18466  1.0000
  S   S429      1.0  0.81033  0.04950  0.15052  1.0000
  Fe  Fe217     1.0  0.88187  0.13252  0.35575  1.0000
  S   S430      1.0  0.89720  0.12880  0.39475  1.0000
  S   S431      1.0  0.88034  0.12129  0.30499  1.0000
  Fe  Fe218     1.0  0.87616  0.15973  0.39422  1.0000
  S   S432      1.0  0.89098  0.15814  0.43544  1.0000
  S   S433      1.0  0.86434  0.17810  0.38994  1.0000
  Fe  Fe219     1.0  0.90872  0.15674  0.39767  1.0000
  S   S434      1.0  0.93522  0.17156  0.40823  1.0000
  Fe  Fe220     1.0  0.87834  0.13052  0.42953  1.0000
  S   S435      1.0  0.87219  0.11751  0.47822  1.0000
  S   S436      1.0  0.89461  0.16033  0.35683  1.0000
  S   S437      1.0  0.86221  0.13221  0.39031  1.0000
  H   H2477     1.0  0.78300  0.08679  0.07077  1.0000
  S   S438      1.0  0.73816  0.14090  0.26427  1.0000
  Fe  Fe221     1.0  0.81091  0.23668  0.01940  1.0000
  S   S439      1.0  0.72046  0.16347  0.19988  1.0000
  C   C1438     1.0  0.91348  0.10856  0.28806  1.0000
  H   H2478     1.0  0.81763  0.00906  0.07762  1.0000
  H   H2479     1.0  0.81673  0.11783  0.28527  1.0000
  Fe  Fe222     1.0  0.78708  0.21071  0.06578  1.0000
  S   S440      1.0  0.78499  0.22999  0.03252  1.0000
  S   S441      1.0  0.78296  0.20731  0.12033  1.0000
  C   C1439     1.0  0.80245  0.11294  0.22811  1.0000
  H   H2480     1.0  0.79835  0.08649  0.04351  1.0000
  H   H2481     1.0  0.80967  0.00583  0.02459  1.0000
  C   C1440     1.0  0.79611  0.01504  0.08029  1.0000
  H   H2482     1.0  0.75003  0.15685  0.13496  1.0000
  H   H2483     1.0  0.81936  0.25633  0.42158  1.0000
  S   S442      1.0  0.77418  0.21211  0.45744  1.0000
  S   S443      1.0  0.81317  0.21857  0.05488  1.0000
  H   H2484     1.0  0.77831  0.11720  0.31138  1.0000
  C   C1441     1.0  0.83733  0.28287  0.02850  1.0000
  H   H2485     1.0  0.78225  0.26627  0.42190  1.0000
  C   C1442     1.0  0.80465  0.13503  0.03024  1.0000
  H   H2486     1.0  0.81149  0.03063  0.45605  1.0000
  C   C1443     1.0  0.79951  0.02588  0.46780  1.0000
  C   C1444     1.0  0.73803  0.17531  0.17794  1.0000
  C   C1445     1.0  0.73666  0.18125  0.14720  1.0000
  C   C1446     1.0  0.75029  0.19070  0.12888  1.0000
  C   C1447     1.0  0.76545  0.19461  0.14146  1.0000
  C   C1448     1.0  0.76681  0.18876  0.17226  1.0000
  C   C1449     1.0  0.75320  0.17899  0.19027  1.0000
  H   H2487     1.0  0.72499  0.17854  0.13749  1.0000
  H   H2488     1.0  0.74904  0.19529  0.10541  1.0000
  H   H2489     1.0  0.77848  0.19180  0.18232  1.0000
  H   H2490     1.0  0.75444  0.17457  0.21393  1.0000
  C   C1450     1.0  0.76658  0.19521  0.42950  1.0000
  C   C1451     1.0  0.75531  0.19520  0.40674  1.0000
  C   C1452     1.0  0.74903  0.18202  0.38413  1.0000
  C   C1453     1.0  0.75403  0.16871  0.38399  1.0000
  C   C1454     1.0  0.76522  0.16869  0.40696  1.0000
  C   C1455     1.0  0.77144  0.18182  0.42961  1.0000
  H   H2491     1.0  0.75142  0.20546  0.40648  1.0000
  H   H2492     1.0  0.74043  0.18220  0.36668  1.0000
  H   H2493     1.0  0.75790  0.11472  0.27053  1.0000
  H   H2494     1.0  0.78015  0.18166  0.44682  1.0000
  C   C1456     1.0  0.85843  0.18552  0.42582  1.0000
  C   C1457     1.0  0.84635  0.19177  0.42502  1.0000
  C   C1458     1.0  0.84147  0.19774  0.45351  1.0000
  S   S444      1.0  0.72333  0.09216  0.25158  1.0000
  C   C1459     1.0  0.74409  0.99214  0.12191  1.0000
  C   C1460     1.0  0.86589  0.18563  0.45501  1.0000
  H   H2495     1.0  0.84058  0.19178  0.40241  1.0000
  H   H2496     1.0  0.83197  0.20229  0.45288  1.0000
  H   H2497     1.0  0.82801  0.25651  0.15895  1.0000
  H   H2498     1.0  0.87522  0.18089  0.45588  1.0000
  H   H2499     1.0  0.95417  0.23106  0.39105  1.0000
  C   C1461     1.0  0.95330  0.18202  0.38591  1.0000
  N   N104      1.0  0.75707  0.14424  0.09582  1.0000
  H   H2500     1.0  0.94268  0.17960  0.33921  1.0000
  C   C1462     1.0  0.83381  0.08832  0.25520  1.0000
  C   C1463     1.0  0.83441  0.09009  0.28910  1.0000
  C   C1464     1.0  0.84840  0.10054  0.30456  1.0000
  C   C1465     1.0  0.86214  0.10899  0.28628  1.0000
  C   C1466     1.0  0.86165  0.10705  0.25235  1.0000
  C   C1467     1.0  0.84750  0.09692  0.23681  1.0000
  H   H2501     1.0  0.82400  0.08319  0.30355  1.0000
  H   H2502     1.0  0.84866  0.10170  0.33067  1.0000
  H   H2503     1.0  0.87226  0.11344  0.23800  1.0000
  H   H2504     1.0  0.84725  0.09558  0.21072  1.0000
  H   H2505     1.0  0.78012  0.11741  0.02223  1.0000
  C   C1468     1.0  0.84037  0.09617  0.47418  1.0000
  H   H2506     1.0  0.77704  0.09919  0.22492  1.0000
  C   C1469     1.0  0.83637  0.08535  0.04203  1.0000
  C   C1470     1.0  0.84591  0.09935  0.05969  1.0000
  C   C1471     1.0  0.85770  0.11272  0.04367  1.0000
  H   H2507     1.0  0.84126  0.09890  0.44862  1.0000
  H   H2508     1.0  0.79393  0.03808  0.04305  1.0000
  H   H2509     1.0  0.84448  0.09969  0.08573  1.0000
  H   H2510     1.0  0.86529  0.12333  0.05758  1.0000
  C   C1472     1.0  0.75809  0.09242  0.16956  1.0000
  C   C1473     1.0  0.74994  0.07798  0.18696  1.0000
  C   C1474     1.0  0.73904  0.07798  0.21156  1.0000
  C   C1475     1.0  0.73634  0.09245  0.21919  1.0000
  C   C1476     1.0  0.74454  0.10693  0.20188  1.0000
  C   C1477     1.0  0.75541  0.10690  0.17716  1.0000
  H   H2511     1.0  0.75187  0.06673  0.18122  1.0000
  H   H2512     1.0  0.94161  0.21010  0.39785  1.0000
  H   H2513     1.0  0.74266  0.11818  0.20790  1.0000
  H   H2514     1.0  0.76200  0.11819  0.16443  1.0000
  H   H2515     1.0  0.72450  0.13950  0.14057  1.0000
  C   C1478     1.0  0.75801  0.99182  0.13500  1.0000
  H   H2516     1.0  0.74247  0.00377  0.12085  1.0000
  H   H2517     1.0  0.78830  0.09180  0.32110  1.0000
  H   H2518     1.0  0.81262  0.10911  0.23158  1.0000
  H   H2519     1.0  0.77002  0.12952  0.11183  1.0000
  H   H2520     1.0  0.84008  0.24437  0.11552  1.0000
  H   H2521     1.0  0.79369  0.12750  0.28346  1.0000
  C   C1479     1.0  0.74945  0.14419  0.12867  1.0000
  C   C1480     1.0  0.80957  0.11164  0.30666  1.0000
  H   H2522     1.0  0.80519  0.12540  0.23887  1.0000
  H   H2523     1.0  0.81127  0.28045  0.43112  1.0000
  H   H2524     1.0  0.76216  0.08847  0.30755  1.0000
  H   H2525     1.0  0.81430  0.23989  0.13605  1.0000
  C   C1481     1.0  0.82229  0.25327  0.13483  1.0000
  C   C1482     1.0  0.81719  0.11521  0.01261  1.0000
  H   H2526     1.0  0.81322  0.14570  0.01664  1.0000
  H   H2527     1.0  0.82301  0.10703  0.02144  1.0000
  H   H2528     1.0  0.79070  0.98284  0.06969  1.0000
  C   C1483     1.0  0.78190  0.11719  0.28538  1.0000
  H   H2529     1.0  0.73273  0.06674  0.22492  1.0000
  H   H2530     1.0  0.88224  0.26573  0.01719  1.0000
  C   C1484     1.0  0.73145  0.16138  0.46844  1.0000
  H   H2531     1.0  0.79772  0.08718  0.28631  1.0000
  H   H2532     1.0  0.82149  0.03097  0.07252  1.0000
  C   C1485     1.0  0.76444  0.06935  0.27621  1.0000
  H   H2533     1.0  0.81708  0.10691  0.32096  1.0000
  H   H2534     1.0  0.92126  0.13503  0.04482  1.0000
  H   H2535     1.0  0.80715  0.12084  0.32258  1.0000
  H   H2536     1.0  0.76730  0.01976  0.08433  1.0000
  C   C1486     1.0  0.84898  0.19784  0.48269  1.0000
  H   H2537     1.0  0.86496  0.22992  0.03502  1.0000
  C   C1487     1.0  0.80213  0.11102  0.06487  1.0000
  H   H2538     1.0  0.94403  0.15297  0.01147  1.0000
  H   H2539     1.0  0.76940  0.13108  0.06908  1.0000
  H   H2540     1.0  0.79074  0.15334  0.11443  1.0000
  H   H2541     1.0  0.90180  0.09815  0.29180  1.0000
  H   H2542     1.0  0.89805  0.19103  0.41360  1.0000
  S   S445      1.0  0.74687  0.15181  0.35590  1.0000
  H   H2543     1.0  0.83452  0.14959  0.44057  1.0000
  H   H2544     1.0  0.81866  0.27407  0.46558  1.0000
  H   H2545     1.0  0.76581  0.06673  0.25017  1.0000
  H   H2546     1.0  0.81155  0.29662  0.14165  1.0000
  H   H2547     1.0  0.75640  0.14141  0.14786  1.0000
  H   H2548     1.0  0.84583  0.26625  0.11161  1.0000
  H   H2549     1.0  0.77279  0.06587  0.29062  1.0000
  C   C1488     1.0  0.76417  0.01583  0.05892  1.0000
  C   C1489     1.0  0.82966  0.30640  0.04019  1.0000
  H   H2550     1.0  0.81580  0.07917  0.47230  1.0000
  H   H2551     1.0  0.73339  0.15822  0.09227  1.0000
  H   H2552     1.0  0.93464  0.21153  0.34395  1.0000
  C   C1490     1.0  0.83849  0.08503  0.00823  1.0000
  H   H2553     1.0  0.83116  0.25195  0.08505  1.0000
  H   H2554     1.0  0.79934  0.25183  0.41012  1.0000
  C   C1491     1.0  0.79216  0.25873  0.49778  1.0000
  C   C1492     1.0  0.91155  0.20436  0.45449  1.0000
  H   H2555     1.0  0.77345  0.99535  0.48913  1.0000
  C   C1493     1.0  0.91022  0.20046  0.41780  1.0000
  H   H2556     1.0  0.73090  0.12391  0.15419  1.0000
  H   H2557     1.0  0.79446  0.17492  0.11462  1.0000
  C   C1494     1.0  0.92254  0.20181  0.34697  1.0000
  H   H2558     1.0  0.77775  0.25104  0.09297  1.0000
  H   H2559     1.0  0.73774  0.15492  0.45378  1.0000
  C   C1495     1.0  0.94367  0.22297  0.40536  1.0000
  H   H2560     1.0  0.80945  0.10800  0.08308  1.0000
  H   H2561     1.0  0.94066  0.13732  0.40455  1.0000
  C   C1496     1.0  0.76219  0.12977  0.09177  1.0000
  H   H2562     1.0  0.89548  0.23171  0.35951  1.0000
  C   C1497     1.0  0.76383  0.26400  0.45630  1.0000
  H   H2563     1.0  0.79687  0.29442  0.45572  1.0000
  C   C1498     1.0  0.78497  0.16239  0.11802  1.0000
  C   C1499     1.0  0.79652  0.00033  0.02820  1.0000
  C   C1500     1.0  0.73188  0.13228  0.13363  1.0000
  H   H2564     1.0  0.94651  0.11395  0.32853  1.0000
  C   C1501     1.0  0.81402  0.01941  0.08510  1.0000
  N   N105      1.0  0.93523  0.13143  0.32067  1.0000
  H   H2565     1.0  0.83575  0.14415  0.04202  1.0000
  C   C1502     1.0  0.91931  0.11707  0.32106  1.0000
  C   C1503     1.0  0.93784  0.14003  0.35327  1.0000
  C   C1504     1.0  0.93597  0.14392  0.29532  1.0000
  H   H2566     1.0  0.86266  0.28909  0.02861  1.0000
  H   H2567     1.0  0.81738  0.13483  0.10717  1.0000
  C   C1505     1.0  0.93835  0.12942  0.38228  1.0000
  C   C1506     1.0  0.92205  0.14999  0.29589  1.0000
  C   C1507     1.0  0.79158  0.98287  0.04295  1.0000
  H   H2568     1.0  0.82038  0.31122  0.04314  1.0000
  H   H2569     1.0  0.90982  0.12083  0.33150  1.0000
  H   H2570     1.0  0.84469  0.21889  0.02071  1.0000
  H   H2571     1.0  0.94904  0.15127  0.35327  1.0000
  H   H2572     1.0  0.92839  0.14481  0.35905  1.0000
  H   H2573     1.0  0.94711  0.15520  0.29756  1.0000
  H   H2574     1.0  0.93656  0.13878  0.27063  1.0000
  H   H2575     1.0  0.78390  0.09462  0.03093  1.0000
  C   C1508     1.0  0.77923  0.26143  0.44698  1.0000
  H   H2576     1.0  0.91153  0.19331  0.46743  1.0000
  C   C1509     1.0  0.90060  0.23634  0.38361  1.0000
  N   N106      1.0  0.81261  0.12373  0.04098  1.0000
  C   C1510     1.0  0.85748  0.31087  0.03920  1.0000
  H   H2577     1.0  0.94806  0.12475  0.37990  1.0000
  H   H2578     1.0  0.76515  0.27705  0.45269  1.0000
  H   H2579     1.0  0.94685  0.11981  0.28779  1.0000
  H   H2580     1.0  0.92679  0.16374  0.29434  1.0000
  H   H2581     1.0  0.91435  0.14660  0.31774  1.0000
  H   H2582     1.0  0.91449  0.14525  0.27431  1.0000
  N   N107      1.0  0.91332  0.21510  0.39613  1.0000
  C   C1511     1.0  0.90085  0.22207  0.40479  1.0000
  H   H2583     1.0  0.81065  0.29319  0.09788  1.0000
  C   C1512     1.0  0.91079  0.20905  0.36142  1.0000
  C   C1513     1.0  0.92962  0.22857  0.40044  1.0000
  H   H2584     1.0  0.75767  0.15524  0.48497  1.0000
  C   C1514     1.0  0.81990  0.13573  0.48169  1.0000
  H   H2585     1.0  0.78966  0.24569  0.49014  1.0000
  H   H2586     1.0  0.91811  0.19378  0.41210  1.0000
  H   H2587     1.0  0.88868  0.21212  0.40402  1.0000
  C   C1515     1.0  0.73993  0.15817  0.06936  1.0000
  H   H2588     1.0  0.91949  0.10712  0.33728  1.0000
  H   H2589     1.0  0.92169  0.10319  0.27710  1.0000
  H   H2590     1.0  0.89852  0.19947  0.35852  1.0000
  H   H2591     1.0  0.81001  0.03356  0.02732  1.0000
  H   H2592     1.0  0.93278  0.23706  0.37938  1.0000
  H   H2593     1.0  0.92953  0.23648  0.42193  1.0000
  H   H2594     1.0  0.84149  0.16681  0.00353  1.0000
  H   H2595     1.0  0.83728  0.14933  0.10095  1.0000
  H   H2596     1.0  0.92303  0.19140  0.36110  1.0000
  H   H2597     1.0  0.75964  0.26017  0.48123  1.0000
  H   H2598     1.0  0.91174  0.21930  0.34494  1.0000
  H   H2599     1.0  0.71997  0.15883  0.45631  1.0000
  H   H2600     1.0  0.80342  0.24356  0.44688  1.0000
  H   H2601     1.0  0.76889  0.17113  0.09577  1.0000
  S   S446      1.0  0.78023  0.19034  0.02816  1.0000
  H   H2602     1.0  0.74074  0.11024  0.07053  1.0000
  H   H2603     1.0  0.85648  0.20792  0.03219  1.0000
  C   C1516     1.0  0.82771  0.13426  0.05803  1.0000
  N   N108      1.0  0.81294  0.26389  0.12792  1.0000
  C   C1517     1.0  0.80274  0.26328  0.15758  1.0000
  C   C1518     1.0  0.82474  0.28143  0.12280  1.0000
  C   C1519     1.0  0.80332  0.25706  0.09792  1.0000
  C   C1520     1.0  0.79029  0.24594  0.16609  1.0000
  C   C1521     1.0  0.81803  0.29507  0.11962  1.0000
  C   C1522     1.0  0.78907  0.26214  0.09193  1.0000
  H   H2604     1.0  0.79614  0.27153  0.15583  1.0000
  H   H2605     1.0  0.81037  0.26811  0.17916  1.0000
  H   H2606     1.0  0.81112  0.26038  0.07593  1.0000
  H   H2607     1.0  0.79838  0.24323  0.09809  1.0000
  H   H2608     1.0  0.79590  0.23746  0.17432  1.0000
  H   H2609     1.0  0.78263  0.24719  0.18647  1.0000
  H   H2610     1.0  0.78235  0.24006  0.14560  1.0000
  Fe  Fe223     1.0  0.72908  0.14433  0.31427  1.0000
  H   H2611     1.0  0.82817  0.30715  0.11608  1.0000
  H   H2612     1.0  0.79000  0.26703  0.06701  1.0000
  C   C1523     1.0  0.77256  0.00449  0.04615  1.0000
  C   C1524     1.0  0.95365  0.18416  0.35238  1.0000
  H   H2613     1.0  0.78785  0.27168  0.10846  1.0000
  C   C1525     1.0  0.77187  0.15994  0.09307  1.0000
  H   H2614     1.0  0.92267  0.21488  0.46075  1.0000
  H   H2615     1.0  0.83193  0.28220  0.10028  1.0000
  H   H2616     1.0  0.75110  0.00875  0.05857  1.0000
  H   H2617     1.0  0.79423  0.03516  0.46301  1.0000
  H   H2618     1.0  0.91137  0.11701  0.27079  1.0000
  H   H2619     1.0  0.91249  0.24641  0.38085  1.0000
  H   H2620     1.0  0.73823  0.17499  0.46766  1.0000
  C   C1526     1.0  0.79411  0.09696  0.29753  1.0000
  H   H2621     1.0  0.80075  0.14066  0.05144  1.0000
  H   H2622     1.0  0.75731  0.08935  0.26657  1.0000
  H   H2623     1.0  0.83337  0.28536  0.14300  1.0000
  H   H2624     1.0  0.79344  0.02537  0.09166  1.0000
  C   C1527     1.0  0.76624  0.08753  0.28219  1.0000
  H   H2625     1.0  0.78957  0.00415  0.09563  1.0000
  H   H2626     1.0  0.79445  0.11605  0.07930  1.0000
  H   H2627     1.0  0.75422  0.25620  0.43997  1.0000
  H   H2628     1.0  0.92682  0.11894  0.38633  1.0000
  C   C1528     1.0  0.94796  0.12475  0.31304  1.0000
  H   H2629     1.0  0.80132  0.11447  0.20177  1.0000
  N   N109      1.0  0.78262  0.10064  0.27612  1.0000
  H   H2630     1.0  0.77325  0.12279  0.23930  1.0000
  H   H2631     1.0  0.75464  0.10306  0.08718  1.0000
  H   H2632     1.0  0.81657  0.02165  0.11133  1.0000
  H   H2633     1.0  0.82143  0.15344  0.08371  1.0000
  C   C1529     1.0  0.85704  0.21942  0.02017  1.0000
  H   H2634     1.0  0.90117  0.20685  0.46400  1.0000
  C   C1530     1.0  0.78685  0.09960  0.24087  1.0000
  C   C1531     1.0  0.83555  0.25418  0.11010  1.0000
  H   H2635     1.0  0.77208  0.13540  0.27306  1.0000
  H   H2636     1.0  0.91855  0.19674  0.32238  1.0000
  H   H2637     1.0  0.78805  0.08758  0.23541  1.0000
  H   H2638     1.0  0.75220  0.06100  0.28350  1.0000
  C   C1532     1.0  0.77057  0.12257  0.26561  1.0000
  C   C1533     1.0  0.82551  0.28934  0.03275  1.0000
  H   H2639     1.0  0.76919  0.15848  0.40702  1.0000
  H   H2640     1.0  0.76809  0.99320  0.06150  1.0000
  C   C1534     1.0  0.82597  0.08497  0.48767  1.0000
  C   C1535     1.0  0.85334  0.29380  0.03179  1.0000
  H   H2641     1.0  0.77752  0.16079  0.06859  1.0000
  H   H2642     1.0  0.78054  0.16209  0.14331  1.0000
  C   C1536     1.0  0.79125  0.09388  0.05125  1.0000
  H   H2643     1.0  0.74238  0.10901  0.11421  1.0000
  H   H2644     1.0  0.90230  0.22702  0.43007  1.0000
  C   C1537     1.0  0.82555  0.14334  0.08920  1.0000
  C   C1538     1.0  0.82404  0.14915  0.45543  1.0000
  N   N110      1.0  0.79048  0.01209  0.04583  1.0000
  C   C1539     1.0  0.85978  0.11241  0.00985  1.0000
  C   C1540     1.0  0.86132  0.19196  0.48325  1.0000
  S   S447      1.0  0.83292  0.26141  0.01876  1.0000
  H   H2645     1.0  0.79245  0.01384  0.45603  1.0000
  H   H2646     1.0  0.74934  0.17062  0.06543  1.0000
  H   H2647     1.0  0.81317  0.28130  0.02972  1.0000
  H   H2648     1.0  0.90855  0.12920  0.01085  1.0000
  N   N111      1.0  0.79339  0.26933  0.46867  1.0000
  H   H2649     1.0  0.94746  0.22479  0.43099  1.0000
  C   C1541     1.0  0.78992  0.12707  0.00905  1.0000
  H   H2650     1.0  0.91671  0.15041  0.02453  1.0000
  H   H2651     1.0  0.78449  0.28734  0.48993  1.0000
  H   H2652     1.0  0.81395  0.14606  0.43858  1.0000
  Fe  Fe224     1.0  0.71898  0.14845  0.24547  1.0000
  C   C1542     1.0  0.79528  0.28682  0.47787  1.0000
  C   C1543     1.0  0.74899  0.11223  0.09087  1.0000
  C   C1544     1.0  0.74653  0.14429  0.06816  1.0000
  C   C1545     1.0  0.80816  0.27050  0.44957  1.0000
  H   H2653     1.0  0.89264  0.24188  0.39538  1.0000
  C   C1546     1.0  0.80733  0.25456  0.43120  1.0000
  H   H2654     1.0  0.82009  0.12422  0.46967  1.0000
  H   H2655     1.0  0.76793  0.99997  0.02159  1.0000
  H   H2656     1.0  0.77604  0.24775  0.44490  1.0000
  H   H2657     1.0  0.85140  0.15496  0.48237  1.0000
  Fe  Fe225     1.0  0.71908  0.11536  0.26558  1.0000
  H   H2658     1.0  0.80727  0.13258  0.48853  1.0000
  H   H2659     1.0  0.75306  0.14533  0.04459  1.0000
  Fe  Fe226     1.0  0.80619  0.19949  0.01521  1.0000
  H   H2660     1.0  0.73137  0.15609  0.04939  1.0000
  S   S448      1.0  0.81841  0.18125  0.01461  1.0000
  H   H2661     1.0  0.72630  0.12431  0.11269  1.0000
  C   C1547     1.0  0.85365  0.10355  0.49373  1.0000
  H   H2662     1.0  0.76670  0.02691  0.04376  1.0000
  H   H2663     1.0  0.83453  0.12656  0.06454  1.0000
  H   H2664     1.0  0.77164  0.02199  0.49098  1.0000
  C   C1548     1.0  0.79679  0.02855  0.02886  1.0000
  H   H2665     1.0  0.73609  0.13251  0.06591  1.0000
  H   H2666     1.0  0.78551  0.13683  0.00249  1.0000
  H   H2667     1.0  0.82631  0.16165  0.46579  1.0000
  H   H2668     1.0  0.79199  0.99805  0.00306  1.0000
  H   H2669     1.0  0.82090  0.29826  0.48909  1.0000
  C   C1549     1.0  0.91931  0.13909  0.02055  1.0000
  H   H2670     1.0  0.84774  0.13351  0.48254  1.0000
  H   H2671     1.0  0.80662  0.10685  0.99932  1.0000
  H   H2672     1.0  0.86193  0.25210  0.01727  1.0000
  H   H2673     1.0  0.93787  0.13160  0.00171  1.0000
  C   C1550     1.0  0.93443  0.14247  0.99928  1.0000
  C   C1551     1.0  0.87189  0.25951  0.00132  1.0000
  C   C1552     1.0  0.84730  0.14392  0.49815  1.0000
  Fe  Fe227     1.0  0.79118  0.21352  0.49819  1.0000
  Fe  Fe228     1.0  0.78392  0.03489  0.63938  1.0000
  S   S449      1.0  0.77436  0.04649  0.60130  1.0000
  S   S450      1.0  0.77712  0.00659  0.64427  1.0000
  Fe  Fe229     1.0  0.80800  0.06906  0.66324  1.0000
  S   S451      1.0  0.80007  0.08225  0.62547  1.0000
  S   S452      1.0  0.82768  0.08896  0.69203  1.0000
  Fe  Fe230     1.0  0.77532  0.06559  0.63960  1.0000
  S   S453      1.0  0.76018  0.08101  0.64121  1.0000
  Fe  Fe231     1.0  0.79996  0.06252  0.59033  1.0000
  S   S454      1.0  0.80625  0.06721  0.53670  1.0000
  S   S455      1.0  0.78303  0.05307  0.67915  1.0000
  S   S456      1.0  0.80976  0.05016  0.62646  1.0000
  Fe  Fe232     1.0  0.86382  0.12340  0.86736  1.0000
  S   S457      1.0  0.88424  0.12254  0.89623  1.0000
  S   S458      1.0  0.84774  0.10004  0.84031  1.0000
  Fe  Fe233     1.0  0.86949  0.15821  0.89198  1.0000
  S   S459      1.0  0.89045  0.16029  0.92189  1.0000
  S   S460      1.0  0.85947  0.17819  0.89066  1.0000
  Fe  Fe234     1.0  0.89820  0.14863  0.87914  1.0000
  S   S461      1.0  0.92333  0.15338  0.85863  1.0000
  Fe  Fe235     1.0  0.87516  0.13421  0.93691  1.0000
  H   H2674     1.0  0.72872  0.10723  0.70049  1.0000
  S   S462      1.0  0.87824  0.14863  0.84748  1.0000
  S   S463      1.0  0.85374  0.13305  0.90976  1.0000
  C   C1553     1.0  0.85073  0.30275  0.52443  1.0000
  S   S464      1.0  0.72982  0.13417  0.75940  1.0000
  S   S465      1.0  0.74110  0.15039  0.84359  1.0000
  C   C1554     1.0  0.89165  0.31287  0.56056  1.0000
  H   H2675     1.0  0.88048  0.25830  0.95317  1.0000
  H   H2676     1.0  0.88214  0.11310  0.69516  1.0000
  H   H2677     1.0  0.87961  0.09714  0.84042  1.0000
  Fe  Fe236     1.0  0.79158  0.20089  0.56677  1.0000
  H   H2678     1.0  0.96089  0.13964  0.93293  1.0000
  S   S466      1.0  0.77950  0.17968  0.60206  1.0000
  S   S467      1.0  0.78447  0.22086  0.54729  1.0000
  H   H2679     1.0  0.81550  0.01964  0.56056  1.0000
  H   H2680     1.0  0.74436  0.17776  0.74561  1.0000
  H   H2681     1.0  0.82774  0.11490  0.51902  1.0000
  H   H2682     1.0  0.79580  0.04150  0.98526  1.0000
  C   C1555     1.0  0.77996  0.99684  0.51222  1.0000
  S   S468      1.0  0.75933  0.20424  0.95892  1.0000
  S   S469      1.0  0.81683  0.21860  0.57397  1.0000
  H   H2683     1.0  0.75616  0.20655  0.73999  1.0000
  C   C1556     1.0  0.83138  0.28406  0.56196  1.0000
  C   C1557     1.0  0.92855  0.17316  0.97309  1.0000
  C   C1558     1.0  0.84017  0.28661  0.53293  1.0000
  H   H2684     1.0  0.80346  0.14562  0.53111  1.0000
  C   C1559     1.0  0.79049  0.01698  0.55874  1.0000
  C   C1560     1.0  0.73670  0.16784  0.67267  1.0000
  C   C1561     1.0  0.74129  0.18198  0.65306  1.0000
  C   C1562     1.0  0.75452  0.18600  0.63170  1.0000
  C   C1563     1.0  0.76322  0.17582  0.62957  1.0000
  C   C1564     1.0  0.75864  0.16171  0.64922  1.0000
  C   C1565     1.0  0.74551  0.15776  0.67074  1.0000
  H   H2685     1.0  0.88757  0.24806  0.98190  1.0000
  H   H2686     1.0  0.75792  0.19691  0.61680  1.0000
  H   H2687     1.0  0.76523  0.15369  0.64763  1.0000
  H   H2688     1.0  0.74205  0.14678  0.68545  1.0000
  C   C1566     1.0  0.75410  0.18880  0.92767  1.0000
  C   C1567     1.0  0.76398  0.18043  0.91867  1.0000
  C   C1568     1.0  0.75967  0.16864  0.89312  1.0000
  C   C1569     1.0  0.74541  0.16494  0.87638  1.0000
  C   C1570     1.0  0.73544  0.17320  0.88550  1.0000
  C   C1571     1.0  0.73982  0.18511  0.91092  1.0000
  H   H2689     1.0  0.77501  0.18315  0.93121  1.0000
  H   H2690     1.0  0.76749  0.16235  0.88626  1.0000
  H   H2691     1.0  0.72439  0.17046  0.87300  1.0000
  H   H2692     1.0  0.73208  0.19151  0.91770  1.0000
  C   C1572     1.0  0.84723  0.17799  0.92441  1.0000
  C   C1573     1.0  0.84886  0.17092  0.95350  1.0000
  H   H2693     1.0  0.75910  0.01505  0.56113  1.0000
  C   C1574     1.0  0.82886  0.17955  0.97925  1.0000
  C   C1575     1.0  0.82692  0.18624  0.94997  1.0000
  C   C1576     1.0  0.83617  0.18556  0.92266  1.0000
  H   H2694     1.0  0.85742  0.16514  0.95512  1.0000
  H   H2695     1.0  0.87991  0.14137  0.77770  1.0000
  H   H2696     1.0  0.81835  0.19200  0.94838  1.0000
  H   H2697     1.0  0.83475  0.19087  0.90009  1.0000
  H   H2698     1.0  0.86909  0.26970  0.99091  1.0000
  C   C1577     1.0  0.94260  0.16933  0.86475  1.0000
  C   C1578     1.0  0.92770  0.13039  0.94372  1.0000
  H   H2699     1.0  0.93507  0.18418  0.89824  1.0000
  C   C1579     1.0  0.83166  0.09198  0.73408  1.0000
  C   C1580     1.0  0.84134  0.10793  0.74539  1.0000
  C   C1581     1.0  0.84579  0.11076  0.77813  1.0000
  C   C1582     1.0  0.84102  0.09756  0.79973  1.0000
  C   C1583     1.0  0.83103  0.08169  0.78859  1.0000
  C   C1584     1.0  0.82623  0.07893  0.75602  1.0000
  H   H2700     1.0  0.84552  0.11814  0.72865  1.0000
  H   H2701     1.0  0.85311  0.12309  0.78655  1.0000
  H   H2702     1.0  0.82718  0.07139  0.80515  1.0000
  H   H2703     1.0  0.81883  0.06659  0.74768  1.0000
  C   C1585     1.0  0.76576  0.14836  0.52854  1.0000
  H   H2704     1.0  0.72691  0.06122  0.73930  1.0000
  H   H2705     1.0  0.77902  0.23227  0.78400  1.0000
  C   C1586     1.0  0.82462  0.08130  0.52088  1.0000
  C   C1587     1.0  0.83783  0.08886  0.54049  1.0000
  H   H2706     1.0  0.90101  0.31226  0.54364  1.0000
  H   H2707     1.0  0.85149  0.09815  0.96613  1.0000
  C   C1588     1.0  0.80918  0.29620  0.50054  1.0000
  H   H2708     1.0  0.83698  0.08613  0.56605  1.0000
  H   H2709     1.0  0.86252  0.10543  0.54220  1.0000
  C   C1589     1.0  0.74754  0.08207  0.67340  1.0000
  C   C1590     1.0  0.74275  0.09558  0.67493  1.0000
  C   C1591     1.0  0.73243  0.09683  0.69971  1.0000
  C   C1592     1.0  0.72659  0.08439  0.72285  1.0000
  C   C1593     1.0  0.73142  0.07089  0.72146  1.0000
  C   C1594     1.0  0.74200  0.06979  0.69696  1.0000
  H   H2710     1.0  0.74696  0.10508  0.65669  1.0000
  H   H2711     1.0  0.79271  0.12199  0.98595  1.0000
  H   H2712     1.0  0.80738  0.12744  0.56464  1.0000
  H   H2713     1.0  0.74557  0.05930  0.69584  1.0000
  C   C1595     1.0  0.74780  0.98932  0.61481  1.0000
  C   C1596     1.0  0.76182  0.98877  0.62692  1.0000
  H   H2714     1.0  0.74608  0.00093  0.61537  1.0000
  H   H2715     1.0  0.90186  0.12233  0.95496  1.0000
  H   H2716     1.0  0.84352  0.23664  0.98577  1.0000
  H   H2717     1.0  0.89512  0.09464  0.81683  1.0000
  C   C1597     1.0  0.80357  0.01093  0.56870  1.0000
  H   H2718     1.0  0.73006  0.17064  0.58106  1.0000
  H   H2719     1.0  0.83480  0.15556  0.55422  1.0000
  H   H2720     1.0  0.79005  0.99290  0.50667  1.0000
  H   H2721     1.0  0.92368  0.30353  0.60842  1.0000
  H   H2722     1.0  0.91837  0.12016  0.74606  1.0000
  C   C1598     1.0  0.72862  0.19456  0.77884  1.0000
  H   H2723     1.0  0.88633  0.28819  0.58199  1.0000
  H   H2724     1.0  0.82673  0.29606  0.60490  1.0000
  C   C1599     1.0  0.85230  0.09981  0.52690  1.0000
  N   N112      1.0  0.78625  0.01478  0.52341  1.0000
  C   C1600     1.0  0.84998  0.09857  0.99215  1.0000
  H   H2725     1.0  0.77292  0.18472  0.73085  1.0000
  S   S470      1.0  0.81715  0.26417  0.57323  1.0000
  H   H2726     1.0  0.87650  0.31217  0.61784  1.0000
  H   H2727     1.0  0.93467  0.11985  0.79168  1.0000
  S   S471      1.0  0.79667  0.19246  0.51732  1.0000
  C   C1601     1.0  0.86375  0.21955  0.98559  1.0000
  C   C1602     1.0  0.96261  0.14904  0.95253  1.0000
  N   N113      1.0  0.83057  0.14022  0.51070  1.0000
  H   H2728     1.0  0.87016  0.23942  0.91294  1.0000
  H   H2729     1.0  0.89702  0.12468  0.82414  1.0000
  H   H2730     1.0  0.96251  0.20454  0.90878  1.0000
  C   C1603     1.0  0.83027  0.15521  0.52929  1.0000
  H   H2731     1.0  0.73454  0.18984  0.65435  1.0000
  N   N114      1.0  0.75672  0.19426  0.78498  1.0000
  C   C1604     1.0  0.75258  0.17836  0.76546  1.0000
  C   C1605     1.0  0.74154  0.19369  0.80144  1.0000
  C   C1606     1.0  0.76876  0.19453  0.80984  1.0000
  C   C1607     1.0  0.76359  0.20856  0.76199  1.0000
  C   C1608     1.0  0.76662  0.17521  0.74913  1.0000
  H   H2732     1.0  0.79573  0.02134  0.97712  1.0000
  C   C1609     1.0  0.77077  0.20602  0.83973  1.0000
  C   C1610     1.0  0.76659  0.22610  0.77561  1.0000
  H   H2733     1.0  0.74616  0.16748  0.78100  1.0000
  H   H2734     1.0  0.74364  0.20389  0.81937  1.0000
  H   H2735     1.0  0.73617  0.18215  0.81594  1.0000
  H   H2736     1.0  0.76572  0.18188  0.81982  1.0000
  H   H2737     1.0  0.78077  0.19799  0.79842  1.0000
  H   H2738     1.0  0.77510  0.17420  0.76699  1.0000
  H   H2739     1.0  0.77318  0.14354  0.51295  1.0000
  C   C1611     1.0  0.94512  0.18278  0.88601  1.0000
  C   C1612     1.0  0.87666  0.24974  0.97412  1.0000
  H   H2740     1.0  0.77367  0.21911  0.83353  1.0000
  H   H2741     1.0  0.78074  0.20569  0.85433  1.0000
  H   H2742     1.0  0.76014  0.20157  0.85594  1.0000
  H   H2743     1.0  0.75834  0.22639  0.79540  1.0000
  H   H2744     1.0  0.76471  0.23374  0.75617  1.0000
  Fe  Fe237     1.0  0.72070  0.13948  0.80781  1.0000
  H   H2745     1.0  0.85850  0.21815  0.91972  1.0000
  H   H2746     1.0  0.77526  0.20919  0.75204  1.0000
  H   H2747     1.0  0.86032  0.15740  0.54134  1.0000
  Fe  Fe238     1.0  0.81037  0.23815  0.55034  1.0000
  H   H2748     1.0  0.76247  0.17926  0.54356  1.0000
  N   N115      1.0  0.78707  0.10743  0.73413  1.0000
  C   C1613     1.0  0.78625  0.09007  0.72679  1.0000
  C   C1614     1.0  0.78901  0.11611  0.70215  1.0000
  C   C1615     1.0  0.77157  0.10592  0.75062  1.0000
  C   C1616     1.0  0.80094  0.11579  0.75615  1.0000
  C   C1617     1.0  0.78246  0.07822  0.75585  1.0000
  C   C1618     1.0  0.80479  0.11929  0.68362  1.0000
  C   C1619     1.0  0.76652  0.12087  0.74885  1.0000
  C   C1620     1.0  0.80529  0.13437  0.76391  1.0000
  H   H2749     1.0  0.77715  0.08391  0.70809  1.0000
  H   H2750     1.0  0.79769  0.09030  0.71634  1.0000
  H   H2751     1.0  0.78811  0.12838  0.70475  1.0000
  H   H2752     1.0  0.77910  0.10888  0.68577  1.0000
  H   H2753     1.0  0.76147  0.09531  0.74011  1.0000
  H   H2754     1.0  0.77162  0.10303  0.77673  1.0000
  H   H2755     1.0  0.79872  0.10962  0.78006  1.0000
  H   H2756     1.0  0.81186  0.11413  0.74699  1.0000
  H   H2757     1.0  0.78200  0.06592  0.74713  1.0000
  H   H2758     1.0  0.79188  0.08253  0.77430  1.0000
  H   H2759     1.0  0.77069  0.07611  0.76713  1.0000
  H   H2760     1.0  0.80483  0.12583  0.66082  1.0000
  H   H2761     1.0  0.81525  0.12732  0.69762  1.0000
  H   H2762     1.0  0.80621  0.10764  0.67647  1.0000
  H   H2763     1.0  0.77573  0.13263  0.75738  1.0000
  H   H2764     1.0  0.75582  0.11844  0.76462  1.0000
  H   H2765     1.0  0.76292  0.12236  0.72399  1.0000
  H   H2766     1.0  0.79858  0.13602  0.78561  1.0000
  H   H2767     1.0  0.80349  0.14146  0.74360  1.0000
  H   H2768     1.0  0.81821  0.14025  0.76899  1.0000
  H   H2769     1.0  0.77972  0.03618  0.52356  1.0000
  H   H2770     1.0  0.93592  0.12376  0.94501  1.0000
  C   C1621     1.0  0.73773  0.15184  0.55750  1.0000
  H   H2771     1.0  0.88256  0.09754  0.74988  1.0000
  S   S472      1.0  0.81665  0.23208  0.50004  1.0000
  H   H2772     1.0  0.77665  0.26894  0.52633  1.0000
  H   H2773     1.0  0.88506  0.14160  0.73517  1.0000
  H   H2774     1.0  0.92742  0.13338  0.91764  1.0000
  C   C1622     1.0  0.92461  0.12389  0.79609  1.0000
  C   C1623     1.0  0.91127  0.11726  0.95283  1.0000
  H   H2775     1.0  0.90886  0.14617  0.78994  1.0000
  H   H2776     1.0  0.74827  0.15543  0.57337  1.0000
  H   H2777     1.0  0.82999  0.11867  0.96668  1.0000
  C   C1624     1.0  0.75313  0.17689  0.52517  1.0000
  H   H2778     1.0  0.93304  0.17384  0.99798  1.0000
  C   C1625     1.0  0.77941  0.25772  0.52385  1.0000
  H   H2779     1.0  0.83435  0.24730  0.94241  1.0000
  C   C1626     1.0  0.88980  0.14554  0.75978  1.0000
  C   C1627     1.0  0.88057  0.29471  0.56727  1.0000
  H   H2780     1.0  0.95421  0.15776  0.83207  1.0000
  H   H2781     1.0  0.82353  0.13512  0.97614  1.0000
  H   H2782     1.0  0.75996  0.18084  0.50202  1.0000
  H   H2783     1.0  0.73273  0.20637  0.76537  1.0000
  Fe  Fe239     1.0  0.82145  0.21137  0.52342  1.0000
  C   C1628     1.0  0.77449  0.02270  0.51711  1.0000
  H   H2784     1.0  0.90755  0.10754  0.93351  1.0000
  H   H2785     1.0  0.76110  0.13958  0.54886  1.0000
  C   C1629     1.0  0.84778  0.23378  0.96202  1.0000
  H   H2786     1.0  0.89398  0.23493  0.93793  1.0000
  C   C1630     1.0  0.92151  0.31324  0.59461  1.0000
  C   C1631     1.0  0.84604  0.24627  0.93802  1.0000
  C   C1632     1.0  0.82844  0.12658  0.98683  1.0000
  C   C1633     1.0  0.96073  0.19438  0.89184  1.0000
  H   H2787     1.0  0.72435  0.18397  0.76155  1.0000
  H   H2788     1.0  0.83408  0.12809  0.55356  1.0000
  H   H2789     1.0  0.91180  0.11088  0.97546  1.0000
  H   H2790     1.0  0.81351  0.16325  0.55594  1.0000
  H   H2791     1.0  0.81342  0.16606  0.51387  1.0000
  H   H2792     1.0  0.76185  0.16312  0.73589  1.0000
  H   H2793     1.0  0.80742  0.10712  0.56046  1.0000
  H   H2794     1.0  0.92960  0.13765  0.79545  1.0000
  H   H2795     1.0  0.79985  0.11486  0.52821  1.0000
  C   C1634     1.0  0.74513  0.18939  0.53262  1.0000
  C   C1635     1.0  0.89223  0.11436  0.71108  1.0000
  H   H2796     1.0  0.91060  0.14860  0.96771  1.0000
  H   H2797     1.0  0.80798  0.28977  0.52391  1.0000
  C   C1636     1.0  0.88614  0.11112  0.74650  1.0000
  C   C1637     1.0  0.81412  0.15724  0.53222  1.0000
  H   H2798     1.0  0.90121  0.12702  0.70718  1.0000
  C   C1638     1.0  0.95591  0.16804  0.84862  1.0000
  H   H2799     1.0  0.83855  0.16676  0.51763  1.0000
  H   H2800     1.0  0.91904  0.30808  0.56979  1.0000
  C   C1639     1.0  0.91206  0.11622  0.76971  1.0000
  H   H2801     1.0  0.77368  0.16057  0.53828  1.0000
  N   N116      1.0  0.89770  0.12078  0.77209  1.0000
  H   H2802     1.0  0.86718  0.19206  0.50579  1.0000
  H   H2803     1.0  0.85531  0.25888  0.94114  1.0000
  N   N117      1.0  0.93350  0.14613  0.96395  1.0000
  C   C1640     1.0  0.82613  0.12536  0.53238  1.0000
  C   C1641     1.0  0.75820  0.01522  0.53450  1.0000
  H   H2804     1.0  0.73258  0.13800  0.55656  1.0000
  H   H2805     1.0  0.80385  0.01066  0.59555  1.0000
  S   S473      1.0  0.80575  0.21782  0.97818  1.0000
  H   H2806     1.0  0.91983  0.11975  0.82071  1.0000
  H   H2807     1.0  0.89745  0.10528  0.70293  1.0000
  H   H2808     1.0  0.95496  0.16862  0.96555  1.0000
  C   C1642     1.0  0.86841  0.22909  0.92992  1.0000
  C   C1643     1.0  0.92286  0.15545  0.95836  1.0000
  H   H2809     1.0  0.83892  0.22128  0.95532  1.0000
  C   C1644     1.0  0.79106  0.02851  0.99400  1.0000
  C   C1645     1.0  0.76895  0.98379  0.53612  1.0000
  C   C1646     1.0  0.72557  0.15712  0.57630  1.0000
  H   H2810     1.0  0.88157  0.21285  0.93717  1.0000
  H   H2811     1.0  0.87467  0.11283  0.74886  1.0000
  H   H2812     1.0  0.86911  0.29378  0.57868  1.0000
  H   H2813     1.0  0.85920  0.13616  0.53686  1.0000
  H   H2814     1.0  0.94947  0.16033  0.92600  1.0000
  H   H2815     1.0  0.88639  0.22426  0.90068  1.0000
  C   C1647     1.0  0.80915  0.11858  0.54686  1.0000
  H   H2816     1.0  0.81014  0.01832  0.50670  1.0000
  S   S474      1.0  0.84320  0.20484  0.51917  1.0000
  C   C1648     1.0  0.83350  0.29784  0.58244  1.0000
  H   H2817     1.0  0.78391  0.25638  0.54798  1.0000
  C   C1649     1.0  0.88483  0.09839  0.81558  1.0000
  H   H2818     1.0  0.92147  0.15663  0.93191  1.0000
  H   H2819     1.0  0.87544  0.08956  0.80014  1.0000
  H   H2820     1.0  0.84612  0.24196  0.91258  1.0000
  H   H2821     1.0  0.85668  0.20731  0.97442  1.0000
  C   C1650     1.0  0.90301  0.13929  0.76767  1.0000
  H   H2822     1.0  0.79457  0.03034  0.56590  1.0000
  H   H2823     1.0  0.87845  0.11896  0.80545  1.0000
  H   H2824     1.0  0.74930  0.19954  0.51465  1.0000
  H   H2825     1.0  0.89482  0.15934  0.76040  1.0000
  C   C1651     1.0  0.88957  0.11652  0.80478  1.0000
  H   H2826     1.0  0.90854  0.10251  0.76982  1.0000
  H   H2827     1.0  0.78009  0.01074  0.57469  1.0000
  H   H2828     1.0  0.91236  0.14390  0.74844  1.0000
  H   H2829     1.0  0.96297  0.14360  0.97634  1.0000
  H   H2830     1.0  0.83118  0.07425  0.99436  1.0000
  H   H2831     1.0  0.74870  0.19519  0.55689  1.0000
  S   S475      1.0  0.71977  0.16312  0.69868  1.0000
  H   H2832     1.0  0.72352  0.15130  0.60056  1.0000
  H   H2833     1.0  0.80378  0.26248  0.51012  1.0000
  C   C1652     1.0  0.94994  0.15676  0.95153  1.0000
  C   C1653     1.0  0.88353  0.22515  0.92678  1.0000
  C   C1654     1.0  0.83977  0.17180  0.98087  1.0000
  N   N118      1.0  0.74262  0.15866  0.52391  1.0000
  H   H2834     1.0  0.87745  0.28787  0.54381  1.0000
  H   H2835     1.0  0.83872  0.27618  0.51691  1.0000
  C   C1655     1.0  0.86026  0.14755  0.52389  1.0000
  H   H2836     1.0  0.72112  0.14132  0.50213  1.0000
  H   H2837     1.0  0.77794  0.02386  0.99248  1.0000
  S   S476      1.0  0.87504  0.12927  0.99081  1.0000
  H   H2838     1.0  0.71964  0.16001  0.51422  1.0000
  N   N119      1.0  0.86415  0.23332  0.96363  1.0000
  C   C1656     1.0  0.80134  0.02423  0.50445  1.0000
  H   H2839     1.0  0.87209  0.15198  0.51146  1.0000
  C   C1657     1.0  0.72811  0.15497  0.50347  1.0000
  Fe  Fe240     1.0  0.77999  0.20985  0.99358  1.0000
  H   H2840     1.0  0.80915  0.30869  0.50632  1.0000
  H   H2841     1.0  0.73205  0.18427  0.53199  1.0000
  H   H2842     1.0  0.93802  0.18209  0.95774  1.0000
  H   H2843     1.0  0.76250  0.98849  0.55402  1.0000
  C   C1658     1.0  0.75214  0.14946  0.50832  1.0000
  H   H2844     1.0  0.75106  0.00263  0.52496  1.0000
  H   H2845     1.0  0.89961  0.30515  0.62320  1.0000
  H   H2846     1.0  0.84053  0.13364  0.99617  1.0000
  H   H2847     1.0  0.76830  0.24672  0.51949  1.0000
  H   H2848     1.0  0.80732  0.03704  0.51443  1.0000
  H   H2849     1.0  0.91847  0.17738  0.97401  1.0000
  H   H2850     1.0  0.71812  0.19400  0.79375  1.0000
  H   H2851     1.0  0.80143  0.99824  0.55954  1.0000
  H   H2852     1.0  0.74428  0.13643  0.50204  1.0000
  H   H2853     1.0  0.85737  0.30458  0.50182  1.0000
  H   H2854     1.0  0.75137  0.02307  0.52957  1.0000
  H   H2855     1.0  0.87588  0.21960  0.98857  1.0000
  H   H2856     1.0  0.89590  0.53375  0.22467  1.0000
  H   H2857     1.0  0.84558  0.52868  0.35260  1.0000
  H   H2858     1.0  0.95875  0.53491  0.27830  1.0000
  H   H2859     1.0  0.81104  0.63891  0.31964  1.0000
  C   C1659     1.0  0.93239  0.45108  0.20859  1.0000
  H   H2860     1.0  0.92629  0.46672  0.24381  1.0000
  H   H2861     1.0  0.83173  0.54690  0.34406  1.0000
  Fe  Fe241     1.0  0.81169  0.55611  0.25464  1.0000
  S   S477      1.0  0.82290  0.57593  0.29204  1.0000
  S   S478      1.0  0.81712  0.53252  0.24983  1.0000
  Fe  Fe242     1.0  0.78978  0.57298  0.23111  1.0000
  S   S479      1.0  0.79974  0.59392  0.26726  1.0000
  S   S480      1.0  0.76932  0.57564  0.20383  1.0000
  Fe  Fe243     1.0  0.82355  0.59386  0.25315  1.0000
  S   S481      1.0  0.84448  0.61861  0.25231  1.0000
  Fe  Fe244     1.0  0.79814  0.57455  0.30334  1.0000
  S   S482      1.0  0.79229  0.57901  0.35571  1.0000
  S   S483      1.0  0.81400  0.57421  0.21428  1.0000
  S   S484      1.0  0.78656  0.55341  0.26862  1.0000
  Fe  Fe245     1.0  0.88721  0.47211  0.35756  1.0000
  S   S485      1.0  0.90192  0.46298  0.32448  1.0000
  S   S486      1.0  0.88333  0.46605  0.41118  1.0000
  Fe  Fe246     1.0  0.88299  0.49502  0.30548  1.0000
  S   S487      1.0  0.89780  0.48728  0.26861  1.0000
  S   S488      1.0  0.87671  0.51805  0.30010  1.0000
  Fe  Fe247     1.0  0.88418  0.46130  0.28621  1.0000
  S   S489      1.0  0.87735  0.43673  0.25854  1.0000
  Fe  Fe248     1.0  0.91431  0.48942  0.30972  1.0000
  S   S490      1.0  0.94108  0.49894  0.30239  1.0000
  S   S491      1.0  0.86824  0.46873  0.32076  1.0000
  S   S492      1.0  0.90080  0.49888  0.34516  1.0000
  Fe  Fe249     1.0  0.87879  0.39939  0.08551  1.0000
  S   S493      1.0  0.87974  0.37628  0.10674  1.0000
  S   S494      1.0  0.87203  0.42003  0.10747  1.0000
  Fe  Fe250     1.0  0.89416  0.39467  0.02120  1.0000
  H   H2862     1.0  0.72529  0.60997  0.37462  1.0000
  H   H2863     1.0  0.75283  0.60300  0.27287  1.0000
  Fe  Fe251     1.0  0.87159  0.36386  0.05791  1.0000
  S   S495      1.0  0.84998  0.33874  0.05374  1.0000
  Fe  Fe252     1.0  0.90450  0.38498  0.08495  1.0000
  S   S496      1.0  0.92516  0.38632  0.11638  1.0000
  S   S497      1.0  0.86878  0.38674  0.03824  1.0000
  S   S498      1.0  0.90393  0.40869  0.06714  1.0000
  C   C1660     1.0  0.94406  0.40201  0.10875  1.0000
  H   H2864     1.0  0.93844  0.40775  0.06138  1.0000
  C   C1661     1.0  0.93773  0.53206  0.24880  1.0000
  C   C1662     1.0  0.75488  0.60150  0.06156  1.0000
  H   H2865     1.0  0.88852  0.63552  0.19464  1.0000
  C   C1663     1.0  0.73198  0.61804  0.35448  1.0000
  C   C1664     1.0  0.78500  0.64307  0.02852  1.0000
  C   C1665     1.0  0.87546  0.43242  0.21646  1.0000
  C   C1666     1.0  0.87398  0.41656  0.20528  1.0000
  C   C1667     1.0  0.87299  0.41262  0.17198  1.0000
  C   C1668     1.0  0.87305  0.42442  0.14955  1.0000
  C   C1669     1.0  0.87420  0.44019  0.16072  1.0000
  C   C1670     1.0  0.87560  0.44426  0.19403  1.0000
  H   H2866     1.0  0.87372  0.40728  0.22252  1.0000
  H   H2867     1.0  0.87196  0.40040  0.16373  1.0000
  H   H2868     1.0  0.87422  0.44937  0.14358  1.0000
  H   H2869     1.0  0.87662  0.45646  0.20238  1.0000
  C   C1671     1.0  0.88714  0.44964  0.42905  1.0000
  C   C1672     1.0  0.88528  0.44752  0.46276  1.0000
  C   C1673     1.0  0.94043  0.46559  0.47661  1.0000
  C   C1674     1.0  0.89525  0.42531  0.45992  1.0000
  C   C1675     1.0  0.89691  0.42729  0.42617  1.0000
  C   C1676     1.0  0.89276  0.43928  0.41075  1.0000
  H   H2870     1.0  0.92721  0.54533  0.35361  1.0000
  C   C1677     1.0  0.91126  0.40437  0.18801  1.0000
  H   H2871     1.0  0.90153  0.41955  0.41188  1.0000
  H   H2872     1.0  0.89409  0.44063  0.38478  1.0000
  C   C1678     1.0  0.78392  0.52124  0.32558  1.0000
  H   H2873     1.0  0.92598  0.45123  0.11808  1.0000
  C   C1679     1.0  0.78065  0.62025  0.08610  1.0000
  N   N120      1.0  0.80834  0.53187  0.36287  1.0000
  C   C1680     1.0  0.83383  0.52879  0.26389  1.0000
  C   C1681     1.0  0.84704  0.54138  0.27744  1.0000
  C   C1682     1.0  0.86001  0.53782  0.28820  1.0000
  C   C1683     1.0  0.85991  0.52163  0.28597  1.0000
  C   C1684     1.0  0.84665  0.50901  0.27265  1.0000
  C   C1685     1.0  0.83375  0.51261  0.26157  1.0000
  H   H2874     1.0  0.84735  0.55389  0.27933  1.0000
  H   H2875     1.0  0.87018  0.54770  0.29842  1.0000
  H   H2876     1.0  0.84635  0.49651  0.27069  1.0000
  H   H2877     1.0  0.82362  0.50276  0.25111  1.0000
  C   C1686     1.0  0.75111  0.55838  0.10086  1.0000
  C   C1687     1.0  0.74343  0.56600  0.12141  1.0000
  C   C1688     1.0  0.74919  0.57120  0.15281  1.0000
  C   C1689     1.0  0.76262  0.56879  0.16407  1.0000
  C   C1690     1.0  0.77034  0.56124  0.14344  1.0000
  C   C1691     1.0  0.76459  0.55606  0.11202  1.0000
  H   H2878     1.0  0.73297  0.56771  0.11327  1.0000
  H   H2879     1.0  0.74312  0.57698  0.16861  1.0000
  H   H2880     1.0  0.78067  0.55931  0.15178  1.0000
  H   H2881     1.0  0.77059  0.55014  0.09639  1.0000
  C   C1692     1.0  0.74640  0.55315  0.41523  1.0000
  C   C1693     1.0  0.74808  0.54708  0.38413  1.0000
  C   C1694     1.0  0.76201  0.55489  0.36537  1.0000
  C   C1695     1.0  0.77454  0.56857  0.37800  1.0000
  C   C1696     1.0  0.77301  0.57436  0.40939  1.0000
  C   C1697     1.0  0.75893  0.56685  0.42775  1.0000
  H   H2882     1.0  0.73845  0.53644  0.37431  1.0000
  H   H2883     1.0  0.76305  0.55031  0.34124  1.0000
  H   H2884     1.0  0.78269  0.58487  0.41942  1.0000
  H   H2885     1.0  0.75786  0.57154  0.45176  1.0000
  H   H2886     1.0  0.93733  0.51299  0.42221  1.0000
  C   C1698     1.0  0.74457  0.60653  0.08641  1.0000
  C   C1699     1.0  0.73148  0.62518  0.45567  1.0000
  H   H2887     1.0  0.91018  0.53922  0.32860  1.0000
  H   H2888     1.0  0.93455  0.42555  0.14564  1.0000
  H   H2889     1.0  0.91533  0.54862  0.21496  1.0000
  H   H2890     1.0  0.79198  0.54413  0.37353  1.0000
  C   C1700     1.0  0.84852  0.63136  0.21812  1.0000
  C   C1701     1.0  0.84076  0.62565  0.18886  1.0000
  H   H2891     1.0  0.89789  0.44214  0.06377  1.0000
  C   C1702     1.0  0.75802  0.63161  0.43326  1.0000
  H   H2892     1.0  0.83207  0.61306  0.18683  1.0000
  S   S499      1.0  0.89665  0.37117  0.03758  1.0000
  H   H2893     1.0  0.93472  0.46757  0.34427  1.0000
  C   C1703     1.0  0.81844  0.63747  0.29908  1.0000
  Fe  Fe253     1.0  0.72563  0.55701  0.03289  1.0000
  C   C1704     1.0  0.86355  0.44639  0.04617  1.0000
  H   H2894     1.0  0.72254  0.64465  0.45183  1.0000
  H   H2895     1.0  0.95123  0.57740  0.30047  1.0000
  H   H2896     1.0  0.93487  0.45432  0.37627  1.0000
  C   C1705     1.0  0.87285  0.45956  0.07146  1.0000
  H   H2897     1.0  0.93351  0.47065  0.49293  1.0000
  H   H2898     1.0  0.73325  0.59573  0.09046  1.0000
  S   S500      1.0  0.74450  0.55173  0.06097  1.0000
  C   C1706     1.0  0.92002  0.45535  0.22907  1.0000
  H   H2899     1.0  0.94070  0.44898  0.22575  1.0000
  H   H2900     1.0  0.85276  0.44897  0.04092  1.0000
  H   H2901     1.0  0.85910  0.43426  0.05877  1.0000
  H   H2902     1.0  0.96175  0.46614  0.00174  1.0000
  H   H2903     1.0  0.93125  0.51853  0.25333  1.0000
  H   H2904     1.0  0.92819  0.46513  0.15265  1.0000
  C   C1707     1.0  0.93818  0.56031  0.26156  1.0000
  H   H2905     1.0  0.88906  0.47111  0.01843  1.0000
  H   H2906     1.0  0.74299  0.58052  0.31421  1.0000
  H   H2907     1.0  0.92973  0.56645  0.26774  1.0000
  H   H2908     1.0  0.88382  0.45816  0.07898  1.0000
  H   H2909     1.0  0.86526  0.45791  0.09359  1.0000
  H   H2910     1.0  0.87550  0.47236  0.06311  1.0000
  C   C1708     1.0  0.93177  0.53854  0.30450  1.0000
  C   C1709     1.0  0.77613  0.53923  0.02468  1.0000
  C   C1710     1.0  0.92017  0.45372  0.14040  1.0000
  H   H2911     1.0  0.91773  0.46911  0.39246  1.0000
  N   N121      1.0  0.92580  0.43642  0.18563  1.0000
  H   H2912     1.0  0.83138  0.54203  0.38578  1.0000
  H   H2913     1.0  0.93199  0.48817  0.37860  1.0000
  H   H2914     1.0  0.81096  0.63326  0.27748  1.0000
  H   H2915     1.0  0.79294  0.60434  0.10173  1.0000
  H   H2916     1.0  0.76236  0.58586  0.32912  1.0000
  H   H2917     1.0  0.74392  0.61746  0.30948  1.0000
  C   C1711     1.0  0.96268  0.42287  0.07387  1.0000
  H   H2918     1.0  0.93054  0.49143  0.46921  1.0000
  C   C1712     1.0  0.76106  0.59872  0.28582  1.0000
  H   H2919     1.0  0.76647  0.58075  0.02699  1.0000
  H   H2920     1.0  0.89461  0.64098  0.12173  1.0000
  H   H2921     1.0  0.78722  0.58678  0.01915  1.0000
  C   C1713     1.0  0.77838  0.58928  0.03511  1.0000
  C   C1714     1.0  0.93865  0.46754  0.36950  1.0000
  H   H2922     1.0  0.72883  0.59829  0.31936  1.0000
  H   H2923     1.0  0.90687  0.52286  0.26987  1.0000
  C   C1715     1.0  0.80211  0.52718  0.32904  1.0000
  C   C1716     1.0  0.92327  0.54622  0.32872  1.0000
  H   H2924     1.0  0.94422  0.54263  0.31237  1.0000
  H   H2925     1.0  0.82826  0.51665  0.33096  1.0000
  C   C1717     1.0  0.83238  0.52303  0.35440  1.0000
  C   C1718     1.0  0.95358  0.44890  0.15678  1.0000
  H   H2926     1.0  0.84187  0.41730  0.02284  1.0000
  C   C1719     1.0  0.84566  0.31735  0.04349  1.0000
  C   C1720     1.0  0.88064  0.46245  0.00123  1.0000
  C   C1721     1.0  0.76952  0.62897  0.04000  1.0000
  H   H2927     1.0  0.78788  0.54046  0.03403  1.0000
  H   H2928     1.0  0.92598  0.55948  0.32395  1.0000
  H   H2929     1.0  0.96083  0.45543  0.17782  1.0000
  C   C1722     1.0  0.93073  0.47673  0.39173  1.0000
  H   H2930     1.0  0.90980  0.45658  0.13328  1.0000
  C   C1723     1.0  0.90883  0.53633  0.22596  1.0000
  H   H2931     1.0  0.79307  0.62876  0.08039  1.0000
  C   C1724     1.0  0.88321  0.43635  0.02026  1.0000
  H   H2932     1.0  0.95332  0.39926  0.15486  1.0000
  H   H2933     1.0  0.95876  0.52669  0.23878  1.0000
  H   H2934     1.0  0.93972  0.46262  0.19586  1.0000
  C   C1725     1.0  0.91309  0.53588  0.26175  1.0000
  S   S501      1.0  0.72859  0.54324  0.43783  1.0000
  H   H2935     1.0  0.72081  0.58060  0.35927  1.0000
  H   H2936     1.0  0.91349  0.44546  0.24651  1.0000
  H   H2937     1.0  0.83877  0.63156  0.13910  1.0000
  H   H2938     1.0  0.94282  0.45883  0.42773  1.0000
  C   C1726     1.0  0.81116  0.55501  0.40593  1.0000
  H   H2939     1.0  0.90844  0.44214  0.02659  1.0000
  H   H2940     1.0  0.76350  0.63490  0.05686  1.0000
  S   S502      1.0  0.72902  0.61247  0.00092  1.0000
  H   H2941     1.0  0.91775  0.50017  0.40761  1.0000
  C   C1727     1.0  0.92675  0.48808  0.44394  1.0000
  H   H2942     1.0  0.74127  0.62941  0.36457  1.0000
  C   C1728     1.0  0.73248  0.64102  0.44677  1.0000
  H   H2943     1.0  0.85605  0.40974  0.00384  1.0000
  H   H2944     1.0  0.80739  0.54594  0.42584  1.0000
  C   C1729     1.0  0.79753  0.50031  0.37664  1.0000
  H   H2945     1.0  0.80571  0.51751  0.31774  1.0000
  H   H2946     1.0  0.80281  0.49887  0.35303  1.0000
  H   H2947     1.0  0.80252  0.49454  0.39492  1.0000
  H   H2948     1.0  0.90607  0.42220  0.21734  1.0000
  H   H2949     1.0  0.78080  0.51670  0.30033  1.0000
  C   C1730     1.0  0.84911  0.41763  0.00074  1.0000
  H   H2950     1.0  0.91077  0.52641  0.21142  1.0000
  H   H2951     1.0  0.94061  0.56202  0.23506  1.0000
  C   C1731     1.0  0.88924  0.43537  0.47814  1.0000
  H   H2952     1.0  0.92670  0.52490  0.30844  1.0000
  H   H2953     1.0  0.90972  0.42757  0.14541  1.0000
  C   C1732     1.0  0.82615  0.53685  0.36203  1.0000
  H   H2954     1.0  0.78861  0.51845  0.39478  1.0000
  N   N122      1.0  0.75130  0.60315  0.34309  1.0000
  C   C1733     1.0  0.94746  0.41067  0.07967  1.0000
  H   H2955     1.0  0.76961  0.62636  0.32714  1.0000
  C   C1734     1.0  0.96157  0.53223  0.37480  1.0000
  H   H2956     1.0  0.72487  0.57664  0.39900  1.0000
  C   C1735     1.0  0.80044  0.51840  0.38721  1.0000
  C   C1736     1.0  0.75424  0.59135  0.31907  1.0000
  C   C1737     1.0  0.93914  0.43345  0.16761  1.0000
  C   C1738     1.0  0.78221  0.60696  0.10829  1.0000
  C   C1739     1.0  0.73892  0.60883  0.33002  1.0000
  H   H2957     1.0  0.90456  0.39447  0.20539  1.0000
  H   H2958     1.0  0.94423  0.42634  0.18282  1.0000
  C   C1740     1.0  0.92555  0.50359  0.42900  1.0000
  H   H2959     1.0  0.77171  0.59520  0.10852  1.0000
  H   H2960     1.0  0.88089  0.45544  0.47711  1.0000
  H   H2961     1.0  0.76423  0.62627  0.36829  1.0000
  H   H2962     1.0  0.77291  0.60893  0.28771  1.0000
  C   C1741     1.0  0.91421  0.43841  0.16230  1.0000
  H   H2963     1.0  0.77592  0.62818  0.10100  1.0000
  C   C1742     1.0  0.78104  0.61506  0.35856  1.0000
  H   H2964     1.0  0.95339  0.47251  0.47938  1.0000
  H   H2965     1.0  0.77911  0.60799  0.38127  1.0000
  H   H2966     1.0  0.75502  0.58961  0.07001  1.0000
  C   C1743     1.0  0.93555  0.46472  0.44101  1.0000
  H   H2967     1.0  0.90724  0.54322  0.27531  1.0000
  H   H2968     1.0  0.75476  0.58945  0.38309  1.0000
  H   H2969     1.0  0.87700  0.42481  0.03420  1.0000
  H   H2970     1.0  0.78517  0.60868  0.33903  1.0000
  H   H2971     1.0  0.79334  0.61517  0.03207  1.0000
  H   H2972     1.0  0.74529  0.60266  0.39453  1.0000
  Fe  Fe254     1.0  0.72130  0.55675  0.47901  1.0000
  H   H2973     1.0  0.76703  0.53136  0.04206  1.0000
  H   H2974     1.0  0.78026  0.58609  0.05998  1.0000
  H   H2975     1.0  0.91146  0.45807  0.21388  1.0000
  H   H2976     1.0  0.74124  0.61662  0.07738  1.0000
  C   C1744     1.0  0.74586  0.59419  0.37460  1.0000
  C   C1745     1.0  0.95593  0.40586  0.13222  1.0000
  C   C1746     1.0  0.73001  0.57889  0.37404  1.0000
  H   H2977     1.0  0.78328  0.61147  0.13382  1.0000
  S   S503      1.0  0.90237  0.41136  0.47830  1.0000
  H   H2978     1.0  0.91991  0.50941  0.44690  1.0000
  H   H2979     1.0  0.82161  0.64190  0.22950  1.0000
  H   H2980     1.0  0.92302  0.45569  0.43972  1.0000
  C   C1747     1.0  0.74436  0.62060  0.44904  1.0000
  C   C1748     1.0  0.80499  0.54704  0.37266  1.0000
  C   C1749     1.0  0.76624  0.61830  0.34881  1.0000
  C   C1750     1.0  0.96141  0.50400  0.45294  1.0000
  H   H2981     1.0  0.95580  0.49917  0.47652  1.0000
  H   H2982     1.0  0.96094  0.56373  0.28703  1.0000
  H   H2983     1.0  0.92135  0.40135  0.17859  1.0000
  H   H2984     1.0  0.91439  0.47862  0.44627  1.0000
  C   C1751     1.0  0.95375  0.57067  0.27930  1.0000
  H   H2985     1.0  0.79091  0.62718  0.36325  1.0000
  H   H2986     1.0  0.96144  0.44490  0.14078  1.0000
  H   H2987     1.0  0.93645  0.53378  0.22260  1.0000
  H   H2988     1.0  0.76788  0.62787  0.42815  1.0000
  C   C1752     1.0  0.78034  0.60753  0.03148  1.0000
  N   N123      1.0  0.87224  0.44536  0.01515  1.0000
  H   H2989     1.0  0.74386  0.52410  0.01698  1.0000
  H   H2990     1.0  0.76266  0.58884  0.27043  1.0000
  H   H2991     1.0  0.90301  0.40348  0.16810  1.0000
  H   H2992     1.0  0.80749  0.52104  0.40978  1.0000
  N   N124      1.0  0.93717  0.48083  0.42560  1.0000
  H   H2993     1.0  0.95028  0.45771  0.14281  1.0000
  H   H2994     1.0  0.93775  0.51910  0.35740  1.0000
  H   H2995     1.0  0.79156  0.63878  0.00985  1.0000
  C   C1753     1.0  0.95557  0.53596  0.25299  1.0000
  H   H2996     1.0  0.77728  0.51087  0.34185  1.0000
  C   C1754     1.0  0.95011  0.52081  0.35467  1.0000
  C   C1755     1.0  0.95475  0.51196  0.33067  1.0000
  H   H2997     1.0  0.77661  0.60836  0.00624  1.0000
  N   N125      1.0  0.77140  0.61427  0.05539  1.0000
  H   H2998     1.0  0.77973  0.53152  0.32952  1.0000
  H   H2999     1.0  0.73188  0.56766  0.36518  1.0000
  C   C1756     1.0  0.84450  0.63616  0.16194  1.0000
  H   H3000     1.0  0.80756  0.53799  0.31276  1.0000
  H   H3001     1.0  0.78457  0.49267  0.37601  1.0000
  N   N126      1.0  0.93059  0.54206  0.26929  1.0000
  C   C1757     1.0  0.91692  0.42134  0.20591  1.0000
  H   H3002     1.0  0.82426  0.56172  0.40563  1.0000
  H   H3003     1.0  0.90354  0.45935  0.03652  1.0000
  H   H3004     1.0  0.82947  0.51389  0.37416  1.0000
  H   H3005     1.0  0.76175  0.62487  0.01848  1.0000
  H   H3006     1.0  0.92439  0.42053  0.22633  1.0000
  C   C1758     1.0  0.89899  0.44572  0.03792  1.0000
  H   H3007     1.0  0.74820  0.59816  0.03853  1.0000
  H   H3008     1.0  0.80608  0.56452  0.41159  1.0000
  C   C1759     1.0  0.89274  0.63277  0.17060  1.0000
  H   H3009     1.0  0.82229  0.62726  0.30541  1.0000
  H   H3010     1.0  0.90333  0.43818  0.17511  1.0000
  H   H3011     1.0  0.75032  0.60994  0.11029  1.0000
  H   H3012     1.0  0.81004  0.55699  0.35436  1.0000
  H   H3013     1.0  0.95179  0.47369  0.36902  1.0000
  H   H3014     1.0  0.90388  0.63059  0.17311  1.0000
  H   H3015     1.0  0.88342  0.62096  0.16200  1.0000
  H   H3016     1.0  0.95616  0.50111  0.40262  1.0000
  H   H3017     1.0  0.93777  0.45272  0.48485  1.0000
  H   H3018     1.0  0.72343  0.62204  0.34189  1.0000
  H   H3019     1.0  0.96300  0.54831  0.24318  1.0000
  H   H3020     1.0  0.96040  0.44546  0.00699  1.0000
  H   H3021     1.0  0.74372  0.60846  0.45554  1.0000
  H   H3022     1.0  0.86984  0.31903  0.04163  1.0000
  H   H3023     1.0  0.77593  0.55186  0.02469  1.0000
  C   C1760     1.0  0.95440  0.49259  0.42330  1.0000
  H   H3024     1.0  0.74747  0.50683  0.00068  1.0000
  H   H3025     1.0  0.95797  0.53937  0.39275  1.0000
  H   H3026     1.0  0.96139  0.51657  0.44915  1.0000
  H   H3027     1.0  0.96218  0.48562  0.41768  1.0000
  H   H3028     1.0  0.96151  0.58049  0.26283  1.0000
  C   C1761     1.0  0.89454  0.64656  0.14619  1.0000
  Fe  Fe255     1.0  0.71865  0.58429  0.99870  1.0000
  H   H3029     1.0  0.77927  0.54111  0.91683  1.0000
  Fe  Fe256     1.0  0.89506  0.39885  0.52736  1.0000
  H   H3030     1.0  0.88797  0.43402  0.50414  1.0000
  H   H3031     1.0  0.80232  0.61939  0.85415  1.0000
  C   C1762     1.0  0.96181  0.51415  0.86490  1.0000
  H   H3032     1.0  0.73908  0.57577  0.91218  1.0000
  C   C1763     1.0  0.96337  0.40211  0.62208  1.0000
  Fe  Fe257     1.0  0.81688  0.55559  0.77049  1.0000
  S   S504      1.0  0.82012  0.57855  0.80066  1.0000
  S   S505      1.0  0.82335  0.53330  0.78277  1.0000
  Fe  Fe258     1.0  0.79604  0.56359  0.72161  1.0000
  S   S506      1.0  0.79765  0.58681  0.74762  1.0000
  S   S507      1.0  0.78220  0.55317  0.67565  1.0000
  Fe  Fe259     1.0  0.82347  0.59186  0.75330  1.0000
  S   S508      1.0  0.83751  0.61963  0.75384  1.0000
  Fe  Fe260     1.0  0.79414  0.57262  0.79370  1.0000
  S   S509      1.0  0.78082  0.58200  0.83121  1.0000
  S   S510      1.0  0.82240  0.56952  0.72324  1.0000
  S   S511      1.0  0.79024  0.54863  0.76722  1.0000
  Fe  Fe261     1.0  0.88926  0.46292  0.84435  1.0000
  S   S512      1.0  0.91110  0.46249  0.81888  1.0000
  S   S513      1.0  0.87417  0.44152  0.87646  1.0000
  Fe  Fe262     1.0  0.89320  0.49673  0.81666  1.0000
  S   S514      1.0  0.91599  0.49877  0.79062  1.0000
  S   S515      1.0  0.88639  0.51928  0.80909  1.0000
  Fe  Fe263     1.0  0.90284  0.47208  0.77587  1.0000
  S   S516      1.0  0.90773  0.46665  0.72335  1.0000
  Fe  Fe264     1.0  0.92248  0.48911  0.83568  1.0000
  S   S517      1.0  0.94663  0.49448  0.85797  1.0000
  S   S518      1.0  0.87977  0.47042  0.79962  1.0000
  S   S519      1.0  0.90090  0.48911  0.86345  1.0000
  Fe  Fe265     1.0  0.88156  0.39406  0.59595  1.0000
  S   S520      1.0  0.88727  0.37148  0.60410  1.0000
  S   S521      1.0  0.87002  0.40212  0.63893  1.0000
  H   H3033     1.0  0.92701  0.35639  0.54612  1.0000
  H   H3034     1.0  0.86600  0.62738  0.64900  1.0000
  C   C1764     1.0  0.73236  0.55713  0.79095  1.0000
  Fe  Fe266     1.0  0.87801  0.36314  0.55404  1.0000
  S   S522      1.0  0.86659  0.33655  0.53285  1.0000
  Fe  Fe267     1.0  0.91074  0.38666  0.58077  1.0000
  S   S523      1.0  0.93312  0.38471  0.60011  1.0000
  S   S524      1.0  0.87035  0.38464  0.54721  1.0000
  S   S525      1.0  0.90567  0.40972  0.57553  1.0000
  C   C1765     1.0  0.94928  0.40307  0.61091  1.0000
  S   S526      1.0  0.74060  0.58203  0.59306  1.0000
  H   H3035     1.0  0.92222  0.39881  0.66023  1.0000
  C   C1766     1.0  0.94169  0.45458  0.70735  1.0000
  C   C1767     1.0  0.88471  0.32465  0.60974  1.0000
  H   H3036     1.0  0.84558  0.32440  0.59009  1.0000
  C   C1768     1.0  0.82683  0.62448  0.61956  1.0000
  C   C1769     1.0  0.89651  0.44895  0.70004  1.0000
  C   C1770     1.0  0.90139  0.44766  0.66794  1.0000
  C   C1771     1.0  0.89336  0.43342  0.64892  1.0000
  C   C1772     1.0  0.88021  0.42041  0.66175  1.0000
  C   C1773     1.0  0.87508  0.42190  0.69361  1.0000
  C   C1774     1.0  0.88326  0.43605  0.71281  1.0000
  H   H3037     1.0  0.91157  0.45763  0.65780  1.0000
  H   H3038     1.0  0.89730  0.43253  0.62433  1.0000
  H   H3039     1.0  0.86486  0.41193  0.70366  1.0000
  H   H3040     1.0  0.87937  0.43690  0.73749  1.0000
  C   C1775     1.0  0.88331  0.43201  0.90251  1.0000
  C   C1776     1.0  0.87379  0.41804  0.92035  1.0000
  C   C1777     1.0  0.88058  0.41095  0.94307  1.0000
  C   C1778     1.0  0.89703  0.41758  0.94763  1.0000
  C   C1779     1.0  0.90659  0.43124  0.92911  1.0000
  C   C1780     1.0  0.89978  0.43851  0.90684  1.0000
  H   H3041     1.0  0.86106  0.41285  0.91696  1.0000
  H   H3042     1.0  0.81088  0.62874  0.67638  1.0000
  H   H3043     1.0  0.91933  0.43641  0.93234  1.0000
  H   H3044     1.0  0.90725  0.44925  0.89328  1.0000
  H   H3045     1.0  0.76854  0.63120  0.50616  1.0000
  H   H3046     1.0  0.89849  0.45681  0.97109  1.0000
  H   H3047     1.0  0.88491  0.31844  0.54599  1.0000
  H   H3048     1.0  0.79504  0.60738  0.60674  1.0000
  C   C1781     1.0  0.84108  0.52982  0.79051  1.0000
  C   C1782     1.0  0.85621  0.54254  0.78966  1.0000
  C   C1783     1.0  0.86983  0.53908  0.79594  1.0000
  C   C1784     1.0  0.86859  0.52290  0.80313  1.0000
  C   C1785     1.0  0.85346  0.51015  0.80385  1.0000
  C   C1786     1.0  0.83984  0.51361  0.79760  1.0000
  H   H3049     1.0  0.85743  0.55505  0.78425  1.0000
  H   H3050     1.0  0.88145  0.54905  0.79515  1.0000
  H   H3051     1.0  0.85224  0.49766  0.80946  1.0000
  H   H3052     1.0  0.82822  0.50366  0.79843  1.0000
  C   C1787     1.0  0.75211  0.57373  0.61549  1.0000
  C   C1788     1.0  0.75376  0.55893  0.60648  1.0000
  C   C1789     1.0  0.76302  0.55283  0.62520  1.0000
  C   C1790     1.0  0.77066  0.56140  0.65312  1.0000
  C   C1791     1.0  0.76901  0.57620  0.66217  1.0000
  C   C1792     1.0  0.75986  0.58237  0.64333  1.0000
  H   H3053     1.0  0.74787  0.55219  0.58511  1.0000
  H   H3054     1.0  0.76424  0.54136  0.61802  1.0000
  H   H3055     1.0  0.77475  0.58284  0.68366  1.0000
  H   H3056     1.0  0.75861  0.59383  0.65046  1.0000
  C   C1793     1.0  0.73767  0.55195  0.89398  1.0000
  C   C1794     1.0  0.74446  0.56925  0.89638  1.0000
  C   C1795     1.0  0.75791  0.57821  0.87745  1.0000
  C   C1796     1.0  0.76486  0.56997  0.85642  1.0000
  C   C1797     1.0  0.75844  0.55261  0.85482  1.0000
  C   C1798     1.0  0.74470  0.54364  0.87320  1.0000
  H   H3057     1.0  0.94142  0.46603  0.71922  1.0000
  H   H3058     1.0  0.76280  0.59163  0.87883  1.0000
  H   H3059     1.0  0.76386  0.54616  0.83901  1.0000
  H   H3060     1.0  0.73949  0.53023  0.87130  1.0000
  H   H3061     1.0  0.95093  0.52825  0.83943  1.0000
  H   H3062     1.0  0.77459  0.62053  0.85165  1.0000
  C   C1799     1.0  0.73808  0.62422  0.96641  1.0000
  C   C1800     1.0  0.73542  0.61730  0.93519  1.0000
  C   C1801     1.0  0.74204  0.62734  0.90814  1.0000
  H   H3063     1.0  0.87742  0.32949  0.59487  1.0000
  H   H3064     1.0  0.76470  0.59089  0.73561  1.0000
  C   C1802     1.0  0.84777  0.63099  0.71999  1.0000
  C   C1803     1.0  0.85319  0.62354  0.69469  1.0000
  C   C1804     1.0  0.86166  0.63313  0.66842  1.0000
  H   H3065     1.0  0.76877  0.56023  0.92863  1.0000
  H   H3066     1.0  0.85114  0.61049  0.69571  1.0000
  S   S527      1.0  0.90212  0.37691  0.53136  1.0000
  H   H3067     1.0  0.90794  0.41917  0.76791  1.0000
  C   C1805     1.0  0.90797  0.40759  0.75631  1.0000
  C   C1806     1.0  0.80226  0.59963  0.60501  1.0000
  C   C1807     1.0  0.94524  0.42251  0.70017  1.0000
  H   H3068     1.0  0.74186  0.56154  0.80932  1.0000
  H   H3069     1.0  0.95905  0.43555  0.74332  1.0000
  H   H3070     1.0  0.83598  0.62554  0.60036  1.0000
  H   H3071     1.0  0.80300  0.59154  0.66632  1.0000
  H   H3072     1.0  0.78293  0.62325  0.89074  1.0000
  H   H3073     1.0  0.72914  0.56799  0.78640  1.0000
  N   N127      1.0  0.87095  0.49479  0.71135  1.0000
  C   C1808     1.0  0.86925  0.51128  0.71579  1.0000
  C   C1809     1.0  0.88669  0.49667  0.72538  1.0000
  C   C1810     1.0  0.85784  0.48207  0.73079  1.0000
  C   C1811     1.0  0.86975  0.49018  0.67574  1.0000
  C   C1812     1.0  0.85296  0.51166  0.70741  1.0000
  C   C1813     1.0  0.90133  0.51118  0.71209  1.0000
  C   C1814     1.0  0.85691  0.46406  0.72864  1.0000
  C   C1815     1.0  0.87856  0.47904  0.66349  1.0000
  H   H3074     1.0  0.87180  0.51586  0.74116  1.0000
  H   H3075     1.0  0.87819  0.52099  0.70070  1.0000
  H   H3076     1.0  0.88906  0.48523  0.72205  1.0000
  H   H3077     1.0  0.88651  0.49856  0.75211  1.0000
  H   H3078     1.0  0.85874  0.48584  0.75688  1.0000
  H   H3079     1.0  0.84593  0.48124  0.72316  1.0000
  H   H3080     1.0  0.85706  0.48385  0.66886  1.0000
  H   H3081     1.0  0.87444  0.50147  0.66049  1.0000
  H   H3082     1.0  0.84862  0.50566  0.68370  1.0000
  H   H3083     1.0  0.84395  0.50588  0.72673  1.0000
  H   H3084     1.0  0.85409  0.52479  0.70625  1.0000
  H   H3085     1.0  0.90101  0.51243  0.68552  1.0000
  H   H3086     1.0  0.90233  0.52306  0.72411  1.0000
  H   H3087     1.0  0.91228  0.50908  0.71780  1.0000
  H   H3088     1.0  0.84838  0.45662  0.74744  1.0000
  H   H3089     1.0  0.86837  0.46291  0.73313  1.0000
  H   H3090     1.0  0.85217  0.45825  0.70496  1.0000
  H   H3091     1.0  0.89166  0.48568  0.66397  1.0000
  H   H3092     1.0  0.87542  0.47544  0.63784  1.0000
  H   H3093     1.0  0.87539  0.46740  0.67703  1.0000
  C   C1816     1.0  0.88914  0.33547  0.64088  1.0000
  H   H3094     1.0  0.81636  0.57539  0.65386  1.0000
  C   C1817     1.0  0.75406  0.56515  0.75119  1.0000
  H   H3095     1.0  0.90137  0.34852  0.57536  1.0000
  H   H3096     1.0  0.87835  0.33712  0.65063  1.0000
  H   H3097     1.0  0.87311  0.40032  0.95690  1.0000
  C   C1818     1.0  0.81848  0.63588  0.60848  1.0000
  H   H3098     1.0  0.91708  0.34794  0.59921  1.0000
  C   C1819     1.0  0.81117  0.60455  0.66149  1.0000
  Fe  Fe268     1.0  0.72591  0.57177  0.54761  1.0000
  C   C1820     1.0  0.73187  0.55064  0.69883  1.0000
  C   C1821     1.0  0.81944  0.57803  0.62792  1.0000
  H   H3099     1.0  0.75877  0.53738  0.72852  1.0000
  H   H3100     1.0  0.83770  0.60202  0.63763  1.0000
  H   H3101     1.0  0.73006  0.52595  0.77574  1.0000
  H   H3102     1.0  0.79512  0.61359  0.79800  1.0000
  H   H3103     1.0  0.77019  0.57232  0.96497  1.0000
  C   C1822     1.0  0.77042  0.56045  0.95518  1.0000
  H   H3104     1.0  0.82508  0.64433  0.78567  1.0000
  H   H3105     1.0  0.75887  0.56242  0.72785  1.0000
  H   H3106     1.0  0.92643  0.33574  0.54831  1.0000
  C   C1823     1.0  0.89013  0.46323  0.96940  1.0000
  H   H3107     1.0  0.72797  0.50308  0.95718  1.0000
  H   H3108     1.0  0.74902  0.52341  0.92564  1.0000
  C   C1824     1.0  0.75389  0.58272  0.74892  1.0000
  H   H3109     1.0  0.83242  0.59847  0.59669  1.0000
  N   N128      1.0  0.92995  0.42271  0.71442  1.0000
  C   C1825     1.0  0.91793  0.41879  0.68786  1.0000
  C   C1826     1.0  0.93218  0.43956  0.72859  1.0000
  C   C1827     1.0  0.92431  0.41005  0.74085  1.0000
  H   H3110     1.0  0.80875  0.57162  0.61317  1.0000
  C   C1828     1.0  0.91240  0.40119  0.67277  1.0000
  H   H3111     1.0  0.89827  0.34804  0.63662  1.0000
  H   H3112     1.0  0.93795  0.44163  0.75261  1.0000
  H   H3113     1.0  0.73795  0.56398  0.69319  1.0000
  H   H3114     1.0  0.90707  0.42058  0.69664  1.0000
  H   H3115     1.0  0.92263  0.42755  0.66746  1.0000
  C   C1829     1.0  0.77382  0.52754  0.91987  1.0000
  H   H3116     1.0  0.92047  0.44042  0.73379  1.0000
  H   H3117     1.0  0.92388  0.39773  0.73204  1.0000
  C   C1830     1.0  0.78438  0.62904  0.86658  1.0000
  H   H3118     1.0  0.89819  0.40286  0.73866  1.0000
  H   H3119     1.0  0.80762  0.62822  0.74977  1.0000
  C   C1831     1.0  0.74777  0.52846  0.73984  1.0000
  H   H3120     1.0  0.90643  0.39135  0.69062  1.0000
  H   H3121     1.0  0.90346  0.40007  0.65405  1.0000
  H   H3122     1.0  0.74960  0.53856  0.78825  1.0000
  H   H3123     1.0  0.82815  0.57232  0.62145  1.0000
  H   H3124     1.0  0.89734  0.47641  0.96368  1.0000
  C   C1832     1.0  0.82718  0.59687  0.62160  1.0000
  H   H3125     1.0  0.73957  0.62200  0.88403  1.0000
  H   H3126     1.0  0.82144  0.60699  0.67778  1.0000
  C   C1833     1.0  0.79709  0.63043  0.75936  1.0000
  H   H3127     1.0  0.82250  0.62739  0.81147  1.0000
  S   S528      1.0  0.90618  0.40945  0.97644  1.0000
  H   H3128     1.0  0.93743  0.41948  0.60073  1.0000
  H   H3129     1.0  0.95952  0.41544  0.73463  1.0000
  N   N129      1.0  0.80486  0.63831  0.81893  1.0000
  H   H3130     1.0  0.76325  0.56594  0.76926  1.0000
  H   H3131     1.0  0.79230  0.61450  0.65854  1.0000
  H   H3132     1.0  0.89321  0.32932  0.65997  1.0000
  H   H3133     1.0  0.83390  0.63050  0.64120  1.0000
  N   N130      1.0  0.75896  0.52959  0.97363  1.0000
  C   C1834     1.0  0.80250  0.61562  0.67382  1.0000
  H   H3134     1.0  0.93642  0.45367  0.68314  1.0000
  C   C1835     1.0  0.96100  0.43297  0.61870  1.0000
  H   H3135     1.0  0.95992  0.44488  0.61768  1.0000
  H   H3136     1.0  0.73862  0.52260  0.72131  1.0000
  H   H3137     1.0  0.96431  0.39015  0.62352  1.0000
  C   C1836     1.0  0.72594  0.54814  0.73442  1.0000
  H   H3138     1.0  0.81061  0.58796  0.56459  1.0000
  H   H3139     1.0  0.88218  0.45813  0.94852  1.0000
  H   H3140     1.0  0.91307  0.32531  0.63128  1.0000
  H   H3141     1.0  0.74609  0.54426  0.95769  1.0000
  Fe  Fe269     1.0  0.71516  0.55261  0.96214  1.0000
  N   N131      1.0  0.89848  0.32369  0.58985  1.0000
  C   C1837     1.0  0.95928  0.42686  0.72364  1.0000
  H   H3142     1.0  0.74335  0.58274  0.73604  1.0000
  S   S529      1.0  0.72031  0.54050  0.91633  1.0000
  H   H3143     1.0  0.79396  0.58720  0.61327  1.0000
  N   N132      1.0  0.73837  0.55160  0.76024  1.0000
  C   C1838     1.0  0.75834  0.52171  0.94048  1.0000
  H   H3144     1.0  0.75425  0.58832  0.77345  1.0000
  H   H3145     1.0  0.79486  0.59448  0.55487  1.0000
  H   H3146     1.0  0.79760  0.61153  0.69836  1.0000
  C   C1839     1.0  0.74123  0.53612  0.76774  1.0000
  N   N133      1.0  0.81656  0.60648  0.62647  1.0000
  H   H3147     1.0  0.94923  0.43070  0.67885  1.0000
  C   C1840     1.0  0.79405  0.62582  0.79543  1.0000
  C   C1841     1.0  0.91892  0.34313  0.54840  1.0000
  H   H3148     1.0  0.80939  0.63999  0.87046  1.0000
  C   C1842     1.0  0.75168  0.64423  0.91216  1.0000
  C   C1843     1.0  0.80598  0.59790  0.56883  1.0000
  C   C1844     1.0  0.90879  0.34116  0.57963  1.0000
  H   H3149     1.0  0.77106  0.52200  0.89518  1.0000
  H   H3150     1.0  0.75093  0.51836  0.74961  1.0000
  S   S530      1.0  0.73550  0.57171  0.98796  1.0000
  H   H3151     1.0  0.81409  0.63288  0.58343  1.0000
  H   H3152     1.0  0.78483  0.53891  0.97628  1.0000
  H   H3153     1.0  0.78135  0.62315  0.80062  1.0000
  C   C1845     1.0  0.94819  0.41857  0.60916  1.0000
  H   H3154     1.0  0.72789  0.60433  0.93185  1.0000
  H   H3155     1.0  0.86547  0.43424  0.96757  1.0000
  H   H3156     1.0  0.72540  0.52184  0.96987  1.0000
  H   H3157     1.0  0.90519  0.39821  0.77568  1.0000
  H   H3158     1.0  0.81480  0.60960  0.55896  1.0000
  C   C1846     1.0  0.90762  0.31663  0.61081  1.0000
  H   H3159     1.0  0.72149  0.54570  0.68259  1.0000
  H   H3160     1.0  0.71958  0.50451  0.99603  1.0000
  H   H3161     1.0  0.91131  0.34000  0.52666  1.0000
  H   H3162     1.0  0.77724  0.64470  0.81816  1.0000
  C   C1847     1.0  0.85282  0.31655  0.54489  1.0000
  H   H3163     1.0  0.75478  0.50802  0.94259  1.0000
  C   C1848     1.0  0.75691  0.54589  0.97143  1.0000
  C   C1849     1.0  0.72873  0.51163  0.97790  1.0000
  H   H3164     1.0  0.78266  0.52309  0.92992  1.0000
  H   H3165     1.0  0.73985  0.54417  0.69212  1.0000
  H   H3166     1.0  0.78671  0.62230  0.74519  1.0000
  H   H3167     1.0  0.95437  0.45627  0.70472  1.0000
  H   H3168     1.0  0.93296  0.41352  0.76099  1.0000
  C   C1850     1.0  0.82162  0.63980  0.81077  1.0000
  H   H3169     1.0  0.78245  0.56102  0.96032  1.0000
  H   H3170     1.0  0.71698  0.53519  0.73633  1.0000
  C   C1851     1.0  0.74786  0.64108  0.97041  1.0000
  C   C1852     1.0  0.80099  0.63157  0.85276  1.0000
  H   H3171     1.0  0.94347  0.41001  0.69004  1.0000
  H   H3172     1.0  0.80854  0.63569  0.62448  1.0000
  H   H3173     1.0  0.79874  0.64346  0.75484  1.0000
  C   C1853     1.0  0.74524  0.51803  0.99376  1.0000
  H   H3174     1.0  0.72061  0.53459  0.81993  1.0000
  H   H3175     1.0  0.77492  0.51901  0.99234  1.0000
  C   C1854     1.0  0.96127  0.52873  0.85248  1.0000
  H   H3176     1.0  0.71893  0.55611  0.73796  1.0000
  H   H3177     1.0  0.85187  0.44206  0.98530  1.0000
  H   H3178     1.0  0.87190  0.46825  0.99663  1.0000
  C   C1855     1.0  0.77153  0.64464  0.51096  1.0000
  C   C1856     1.0  0.84419  0.31396  0.57410  1.0000
  H   H3179     1.0  0.78307  0.64108  0.87059  1.0000
  C   C1857     1.0  0.77408  0.53138  0.99039  1.0000
  H   H3180     1.0  0.93255  0.32466  0.59450  1.0000
  H   H3181     1.0  0.84066  0.41181  0.98088  1.0000
  C   C1858     1.0  0.71757  0.54409  0.80735  1.0000
  H   H3182     1.0  0.74997  0.64652  0.99448  1.0000
  H   H3183     1.0  0.75436  0.55027  0.99554  1.0000
  C   C1859     1.0  0.85984  0.43549  0.99098  1.0000
  H   H3184     1.0  0.88626  0.43168  0.99692  1.0000
  S   S531      1.0  0.73598  0.58204  0.49878  1.0000
  H   H3185     1.0  0.77225  0.64649  0.53757  1.0000
  H   H3186     1.0  0.74648  0.85505  0.11392  1.0000
  C   C1860     1.0  0.85567  0.65254  0.16443  1.0000
  C   C1861     1.0  0.83336  0.65345  0.29365  1.0000
  H   H3187     1.0  0.72262  0.76753  0.23483  1.0000
  H   H3188     1.0  0.76751  0.82610  0.38270  1.0000
  H   H3189     1.0  0.71614  0.87394  0.35646  1.0000
  Fe  Fe270     1.0  0.88165  0.72323  0.17715  1.0000
  S   S532      1.0  0.89323  0.70466  0.17460  1.0000
  S   S533      1.0  0.87712  0.73280  0.22642  1.0000
  Fe  Fe271     1.0  0.88060  0.72506  0.10368  1.0000
  S   S534      1.0  0.89203  0.70657  0.09568  1.0000
  S   S535      1.0  0.87372  0.73760  0.06221  1.0000
  Fe  Fe272     1.0  0.87558  0.69248  0.13577  1.0000
  S   S536      1.0  0.86106  0.66501  0.12973  1.0000
  Fe  Fe273     1.0  0.90903  0.72047  0.13500  1.0000
  S   S537      1.0  0.93502  0.72255  0.13298  1.0000
  S   S538      1.0  0.86288  0.70997  0.14089  1.0000
  S   S539      1.0  0.89871  0.74009  0.14049  1.0000
  Fe  Fe274     1.0  0.80140  0.71407  0.34674  1.0000
  S   S540      1.0  0.79988  0.73529  0.37752  1.0000
  S   S541      1.0  0.80888  0.71243  0.29404  1.0000
  Fe  Fe275     1.0  0.78187  0.68773  0.39520  1.0000
  S   S542      1.0  0.77853  0.70656  0.42905  1.0000
  S   S543      1.0  0.77626  0.66038  0.40334  1.0000
  Fe  Fe276     1.0  0.77401  0.71898  0.38503  1.0000
  S   S544      1.0  0.75187  0.72574  0.38581  1.0000
  Fe  Fe277     1.0  0.80452  0.72151  0.41975  1.0000
  S   S545      1.0  0.81804  0.73263  0.46605  1.0000
  S   S546      1.0  0.77522  0.69856  0.35199  1.0000
  S   S547      1.0  0.80811  0.70192  0.38825  1.0000
  N   N134      1.0  0.74301  0.80176  0.44468  1.0000
  C   C1862     1.0  0.74625  0.65215  0.43116  1.0000
  H   H3190     1.0  0.73899  0.82456  0.45210  1.0000
  H   H3191     1.0  0.86588  0.65214  0.24302  1.0000
  H   H3192     1.0  0.74482  0.87701  0.08647  1.0000
  C   C1863     1.0  0.75752  0.82557  0.48481  1.0000
  C   C1864     1.0  0.74876  0.74370  0.37343  1.0000
  C   C1865     1.0  0.73359  0.74427  0.37813  1.0000
  C   C1866     1.0  0.73040  0.75808  0.36828  1.0000
  S   S548      1.0  0.73085  0.90457  0.08346  1.0000
  H   H3193     1.0  0.74688  0.66428  0.42418  1.0000
  C   C1867     1.0  0.76076  0.75724  0.35894  1.0000
  H   H3194     1.0  0.72425  0.73391  0.38948  1.0000
  H   H3195     1.0  0.73254  0.81073  0.48469  1.0000
  H   H3196     1.0  0.83070  0.67973  0.23441  1.0000
  H   H3197     1.0  0.77248  0.75702  0.35519  1.0000
  N   N135      1.0  0.75261  0.85902  0.06282  1.0000
  H   H3198     1.0  0.91415  0.66485  0.08312  1.0000
  C   C1868     1.0  0.82171  0.67548  0.47690  1.0000
  C   C1869     1.0  0.85690  0.72651  0.03845  1.0000
  H   H3199     1.0  0.83933  0.65645  0.31752  1.0000
  C   C1870     1.0  0.72801  0.76873  0.25899  1.0000
  H   H3200     1.0  0.92252  0.69563  0.17895  1.0000
  C   C1871     1.0  0.71821  0.71546  0.28099  1.0000
  C   C1872     1.0  0.84714  0.71007  0.04526  1.0000
  H   H3201     1.0  0.75601  0.79802  0.40270  1.0000
  C   C1873     1.0  0.93876  0.67448  0.13252  1.0000
  H   H3202     1.0  0.83865  0.71594  0.44161  1.0000
  H   H3203     1.0  0.84993  0.70384  0.06518  1.0000
  C   C1874     1.0  0.85815  0.72645  0.24550  1.0000
  C   C1875     1.0  0.84434  0.71649  0.22940  1.0000
  C   C1876     1.0  0.82937  0.71261  0.24452  1.0000
  C   C1877     1.0  0.82805  0.71813  0.27626  1.0000
  C   C1878     1.0  0.84187  0.72777  0.29269  1.0000
  C   C1879     1.0  0.85684  0.73203  0.27721  1.0000
  H   H3204     1.0  0.84516  0.71195  0.20516  1.0000
  H   H3205     1.0  0.81872  0.70513  0.23168  1.0000
  H   H3206     1.0  0.84100  0.73210  0.31713  1.0000
  H   H3207     1.0  0.86747  0.73974  0.28986  1.0000
  H   H3208     1.0  0.84140  0.73168  0.12607  1.0000
  H   H3209     1.0  0.90938  0.65952  0.20213  1.0000
  H   H3210     1.0  0.87154  0.67100  0.19621  1.0000
  H   H3211     1.0  0.89300  0.66034  0.08645  1.0000
  C   C1880     1.0  0.95328  0.73985  0.12579  1.0000
  C   C1881     1.0  0.74688  0.87313  0.06148  1.0000
  H   H3212     1.0  0.94288  0.75798  0.12006  1.0000
  C   C1882     1.0  0.86310  0.65836  0.19394  1.0000
  H   H3213     1.0  0.82038  0.68599  0.33341  1.0000
  H   H3214     1.0  0.92156  0.65006  0.12307  1.0000
  C   C1883     1.0  0.81528  0.66922  0.29116  1.0000
  H   H3215     1.0  0.77393  0.85408  0.06871  1.0000
  H   H3216     1.0  0.89588  0.67729  0.13443  1.0000
  H   H3217     1.0  0.72040  0.85564  0.35242  1.0000
  H   H3218     1.0  0.91646  0.68728  0.12896  1.0000
  C   C1884     1.0  0.85311  0.73441  0.01244  1.0000
  H   H3219     1.0  0.82848  0.72525  0.16053  1.0000
  H   H3220     1.0  0.80685  0.65131  0.23341  1.0000
  C   C1885     1.0  0.83344  0.72796  0.48378  1.0000
  H   H3221     1.0  0.72251  0.83366  0.24026  1.0000
  C   C1886     1.0  0.73350  0.96184  0.11298  1.0000
  H   H3222     1.0  0.73213  0.85300  0.46538  1.0000
  H   H3223     1.0  0.74656  0.81989  0.38460  1.0000
  C   C1887     1.0  0.74750  0.96154  0.12579  1.0000
  S   S549      1.0  0.72779  0.87015  0.14779  1.0000
  H   H3224     1.0  0.77022  0.97590  0.14707  1.0000
  H   H3225     1.0  0.74888  0.94981  0.12770  1.0000
  H   H3226     1.0  0.80267  0.67790  0.45015  1.0000
  H   H3227     1.0  0.86056  0.74716  0.00714  1.0000
  C   C1888     1.0  0.77023  0.86487  0.06857  1.0000
  C   C1889     1.0  0.72601  0.83912  0.08860  1.0000
  H   H3228     1.0  0.72026  0.84781  0.08274  1.0000
  H   H3229     1.0  0.72335  0.77604  0.27543  1.0000
  H   H3230     1.0  0.84705  0.77288  0.13470  1.0000
  H   H3231     1.0  0.80078  0.97776  0.03686  1.0000
  C   C1890     1.0  0.75797  0.88922  0.04452  1.0000
  C   C1891     1.0  0.74426  0.84790  0.09070  1.0000
  C   C1892     1.0  0.75899  0.64737  0.42411  1.0000
  C   C1893     1.0  0.92194  0.68517  0.19429  1.0000
  C   C1894     1.0  0.73198  0.97728  0.11098  1.0000
  C   C1895     1.0  0.84407  0.68392  0.29211  1.0000
  H   H3232     1.0  0.84328  0.66848  0.23475  1.0000
  C   C1896     1.0  0.83165  0.66826  0.24379  1.0000
  H   H3233     1.0  0.74646  0.76437  0.46537  1.0000
  H   H3234     1.0  0.81224  0.69452  0.47681  1.0000
  H   H3235     1.0  0.89286  0.77951  0.12547  1.0000
  H   H3236     1.0  0.77740  0.87268  0.04869  1.0000
  H   H3237     1.0  0.78918  0.88104  0.09949  1.0000
  H   H3238     1.0  0.81321  0.67928  0.27812  1.0000
  H   H3239     1.0  0.74906  0.83804  0.09390  1.0000
  H   H3240     1.0  0.74094  0.77618  0.25591  1.0000
  H   H3241     1.0  0.72559  0.80389  0.41234  1.0000
  H   H3242     1.0  0.78187  0.65281  0.01705  1.0000
  H   H3243     1.0  0.78763  0.69360  0.48514  1.0000
  C   C1897     1.0  0.71884  0.84296  0.23024  1.0000
  H   H3244     1.0  0.76427  0.89895  0.06271  1.0000
  N   N136      1.0  0.86165  0.76287  0.16056  1.0000
  C   C1898     1.0  0.86822  0.76102  0.12743  1.0000
  C   C1899     1.0  0.85080  0.74573  0.17104  1.0000
  C   C1900     1.0  0.87550  0.76949  0.18330  1.0000
  C   C1901     1.0  0.85321  0.77471  0.15833  1.0000
  C   C1902     1.0  0.88133  0.77670  0.11340  1.0000
  H   H3245     1.0  0.85978  0.70945  0.46813  1.0000
  C   C1903     1.0  0.87161  0.77190  0.21903  1.0000
  H   H3246     1.0  0.84465  0.68425  0.31901  1.0000
  H   H3247     1.0  0.87313  0.75113  0.12749  1.0000
  H   H3248     1.0  0.85866  0.75688  0.10910  1.0000
  H   H3249     1.0  0.84539  0.74576  0.19527  1.0000
  H   H3250     1.0  0.85779  0.73783  0.17382  1.0000
  H   H3251     1.0  0.88230  0.76121  0.18272  1.0000
  H   H3252     1.0  0.88405  0.78189  0.17561  1.0000
  H   H3253     1.0  0.86198  0.78780  0.15854  1.0000
  H   H3254     1.0  0.93918  0.68681  0.14051  1.0000
  H   H3255     1.0  0.88335  0.77431  0.08745  1.0000
  H   H3256     1.0  0.73825  0.78646  0.48772  1.0000
  C   C1904     1.0  0.74322  0.77229  0.44850  1.0000
  C   C1905     1.0  0.85349  0.71583  0.48174  1.0000
  H   H3257     1.0  0.77303  0.86632  0.12154  1.0000
  C   C1906     1.0  0.83704  0.73634  0.14801  1.0000
  H   H3258     1.0  0.86297  0.76047  0.23011  1.0000
  H   H3259     1.0  0.86754  0.78232  0.22214  1.0000
  H   H3260     1.0  0.88268  0.77530  0.23317  1.0000
  C   C1907     1.0  0.77602  0.87472  0.10044  1.0000
  H   H3261     1.0  0.71667  0.82982  0.42840  1.0000
  C   C1908     1.0  0.75960  0.97640  0.13678  1.0000
  H   H3262     1.0  0.73117  0.72275  0.27817  1.0000
  C   C1909     1.0  0.75719  0.82292  0.39976  1.0000
  C   C1910     1.0  0.95382  0.75583  0.12019  1.0000
  C   C1911     1.0  0.90857  0.66867  0.18465  1.0000
  H   H3263     1.0  0.77104  0.88437  0.10479  1.0000
  H   H3264     1.0  0.76697  0.78141  0.33785  1.0000
  H   H3265     1.0  0.75090  0.77379  0.42661  1.0000
  C   C1912     1.0  0.86102  0.68671  0.27967  1.0000
  H   H3266     1.0  0.75058  0.89441  0.03093  1.0000
  H   H3267     1.0  0.80110  0.66977  0.33421  1.0000
  C   C1913     1.0  0.72432  0.84940  0.19923  1.0000
  C   C1914     1.0  0.74239  0.77156  0.35357  1.0000
  C   C1915     1.0  0.84031  0.77328  0.18451  1.0000
  H   H3268     1.0  0.86382  0.67550  0.28207  1.0000
  C   C1916     1.0  0.75758  0.77107  0.34914  1.0000
  H   H3269     1.0  0.89708  0.66997  0.19013  1.0000
  H   H3270     1.0  0.71701  0.70466  0.29618  1.0000
  C   C1917     1.0  0.75649  0.80804  0.42024  1.0000
  H   H3271     1.0  0.72246  0.82861  0.07098  1.0000
  H   H3272     1.0  0.76823  0.81161  0.43205  1.0000
  C   C1918     1.0  0.81378  0.67263  0.32765  1.0000
  H   H3273     1.0  0.84179  0.76823  0.20794  1.0000
  H   H3274     1.0  0.82826  0.76593  0.17516  1.0000
  H   H3275     1.0  0.93364  0.68400  0.19459  1.0000
  C   C1919     1.0  0.74577  0.78907  0.46532  1.0000
  C   C1920     1.0  0.71951  0.84637  0.46959  1.0000
  C   C1921     1.0  0.74859  0.84855  0.03230  1.0000
  H   H3276     1.0  0.92691  0.65378  0.16440  1.0000
  H   H3277     1.0  0.72268  0.86581  0.39095  1.0000
  H   H3278     1.0  0.83047  0.74404  0.14069  1.0000
  H   H3279     1.0  0.82040  0.65571  0.19982  1.0000
  H   H3280     1.0  0.84175  0.69506  0.28559  1.0000
  H   H3281     1.0  0.86977  0.69687  0.29414  1.0000
  H   H3282     1.0  0.73556  0.84318  0.02863  1.0000
  C   C1922     1.0  0.83363  0.70169  0.02649  1.0000
  H   H3283     1.0  0.75896  0.83419  0.41463  1.0000
  H   H3284     1.0  0.81817  0.66508  0.34304  1.0000
  H   H3285     1.0  0.73512  0.86897  0.04964  1.0000
  H   H3286     1.0  0.76661  0.88780  0.02679  1.0000
  N   N137      1.0  0.83086  0.66829  0.28032  1.0000
  S   S550      1.0  0.73907  0.78924  0.34012  1.0000
  H   H3287     1.0  0.84039  0.78586  0.18983  1.0000
  N   N138      1.0  0.90882  0.66265  0.15021  1.0000
  H   H3288     1.0  0.82608  0.68902  0.03217  1.0000
  H   H3289     1.0  0.71869  0.75827  0.37224  1.0000
  S   S551      1.0  0.71752  0.94347  0.09936  1.0000
  C   C1923     1.0  0.84152  0.71951  0.46662  1.0000
  H   H3290     1.0  0.75221  0.83776  0.03425  1.0000
  C   C1924     1.0  0.74224  0.81562  0.46617  1.0000
  H   H3291     1.0  0.71572  0.73007  0.32180  1.0000
  H   H3292     1.0  0.87799  0.78765  0.11457  1.0000
  C   C1925     1.0  0.71523  0.86251  0.36901  1.0000
  H   H3293     1.0  0.76782  0.83175  0.46842  1.0000
  C   C1926     1.0  0.72580  0.75176  0.27332  1.0000
  H   H3294     1.0  0.78541  0.65193  0.46725  1.0000
  H   H3295     1.0  0.72788  0.78502  0.40826  1.0000
  C   C1927     1.0  0.78186  0.68053  0.49340  1.0000
  H   H3296     1.0  0.91956  0.68855  0.21938  1.0000
  H   H3297     1.0  0.84167  0.65002  0.27771  1.0000
  C   C1928     1.0  0.85979  0.64769  0.22047  1.0000
  C   C1929     1.0  0.90671  0.67492  0.12745  1.0000
  H   H3298     1.0  0.73281  0.75438  0.29594  1.0000
  H   H3299     1.0  0.86285  0.69094  0.25418  1.0000
  Fe  Fe278     1.0  0.71637  0.88386  0.11708  1.0000
  H   H3300     1.0  0.79292  0.64918  0.04892  1.0000
  H   H3301     1.0  0.88333  0.64883  0.14765  1.0000
  H   H3302     1.0  0.94049  0.67444  0.10582  1.0000
  C   C1930     1.0  0.72757  0.79430  0.42684  1.0000
  C   C1931     1.0  0.90509  0.66970  0.09139  1.0000
  H   H3303     1.0  0.81829  0.66196  0.47298  1.0000
  H   H3304     1.0  0.94942  0.67320  0.14268  1.0000
  C   C1932     1.0  0.92374  0.65941  0.14306  1.0000
  H   H3305     1.0  0.90664  0.68069  0.07648  1.0000
  H   H3306     1.0  0.72114  0.83382  0.11261  1.0000
  S   S552      1.0  0.71568  0.81879  0.35724  1.0000
  H   H3307     1.0  0.73195  0.74614  0.25609  1.0000
  H   H3308     1.0  0.73218  0.84494  0.18553  1.0000
  H   H3309     1.0  0.83028  0.68172  0.45716  1.0000
  C   C1933     1.0  0.71982  0.86166  0.18601  1.0000
  H   H3310     1.0  0.73060  0.76534  0.44212  1.0000
  H   H3311     1.0  0.75819  0.79397  0.47430  1.0000
  Fe  Fe279     1.0  0.71624  0.79438  0.33886  1.0000
  H   H3312     1.0  0.72120  0.97771  0.10135  1.0000
  H   H3313     1.0  0.80500  0.65774  0.28484  1.0000
  C   C1934     1.0  0.81924  0.65333  0.22627  1.0000
  H   H3314     1.0  0.77420  0.67388  0.47283  1.0000
  C   C1935     1.0  0.82977  0.70959  0.00062  1.0000
  C   C1936     1.0  0.80739  0.68075  0.47520  1.0000
  H   H3315     1.0  0.77994  0.97432  0.03342  1.0000
  C   C1937     1.0  0.78733  0.65470  0.49359  1.0000
  C   C1938     1.0  0.75564  0.85733  0.00033  1.0000
  H   H3316     1.0  0.76880  0.86295  0.00008  1.0000
  C   C1939     1.0  0.76366  0.97343  0.62614  1.0000
  H   H3317     1.0  0.78217  0.82025  0.79834  1.0000
  H   H3318     1.0  0.80695  0.69792  0.56717  1.0000
  C   C1940     1.0  0.83595  0.67655  0.92750  1.0000
  Fe  Fe280     1.0  0.71796  0.81219  0.80303  1.0000
  H   H3319     1.0  0.92570  0.73542  0.73328  1.0000
  Fe  Fe281     1.0  0.87824  0.72080  0.65741  1.0000
  S   S553      1.0  0.89508  0.70841  0.66848  1.0000
  S   S554      1.0  0.86787  0.73311  0.69608  1.0000
  Fe  Fe282     1.0  0.88017  0.71540  0.58429  1.0000
  S   S555      1.0  0.89741  0.70278  0.59060  1.0000
  S   S556      1.0  0.87273  0.71542  0.53169  1.0000
  Fe  Fe283     1.0  0.88125  0.68937  0.63152  1.0000
  S   S557      1.0  0.87443  0.66147  0.63294  1.0000
  Fe  Fe284     1.0  0.91023  0.72296  0.62659  1.0000
  S   S558      1.0  0.93749  0.73276  0.63437  1.0000
  S   S559      1.0  0.86328  0.70069  0.62323  1.0000
  S   S560      1.0  0.89410  0.73667  0.61764  1.0000
  Fe  Fe285     1.0  0.81065  0.70407  0.85524  1.0000
  S   S561      1.0  0.81411  0.72428  0.89298  1.0000
  S   S562      1.0  0.82865  0.69829  0.82283  1.0000
  Fe  Fe286     1.0  0.77808  0.68233  0.88423  1.0000
  S   S563      1.0  0.77903  0.70076  0.92341  1.0000
  S   S564      1.0  0.75889  0.65675  0.87769  1.0000
  Fe  Fe287     1.0  0.78817  0.71984  0.88407  1.0000
  S   S565      1.0  0.77984  0.74165  0.88578  1.0000
  Fe  Fe288     1.0  0.80450  0.70384  0.92946  1.0000
  C   C1941     1.0  0.74260  0.91358  0.69141  1.0000
  S   S566      1.0  0.78547  0.70094  0.84399  1.0000
  S   S567      1.0  0.80269  0.68408  0.89259  1.0000
  H   H3320     1.0  0.87978  0.70286  0.89078  1.0000
  C   C1942     1.0  0.86458  0.65013  0.66715  1.0000
  H   H3321     1.0  0.83450  0.64691  0.85697  1.0000
  S   S568      1.0  0.72902  0.82535  0.75622  1.0000
  H   H3322     1.0  0.74960  0.70468  0.93132  1.0000
  H   H3323     1.0  0.92510  0.76931  0.63997  1.0000
  C   C1943     1.0  0.76375  0.74581  0.86949  1.0000
  C   C1944     1.0  0.76063  0.75949  0.88165  1.0000
  C   C1945     1.0  0.74792  0.76320  0.86991  1.0000
  C   C1946     1.0  0.73813  0.75325  0.84574  1.0000
  C   C1947     1.0  0.74133  0.73964  0.83337  1.0000
  C   C1948     1.0  0.75411  0.73601  0.84494  1.0000
  H   H3324     1.0  0.76803  0.76722  0.90051  1.0000
  H   H3325     1.0  0.74566  0.77370  0.87974  1.0000
  H   H3326     1.0  0.75618  0.78721  0.82048  1.0000
  H   H3327     1.0  0.75667  0.72581  0.83458  1.0000
  C   C1949     1.0  0.78759  0.65591  0.81130  1.0000
  H   H3328     1.0  0.76234  0.66393  0.94690  1.0000
  H   H3329     1.0  0.85587  0.67957  0.89554  1.0000
  C   C1950     1.0  0.85744  0.72036  0.51426  1.0000
  C   C1951     1.0  0.84937  0.72882  0.53145  1.0000
  H   H3330     1.0  0.72240  0.85012  0.90090  1.0000
  C   C1952     1.0  0.72044  0.85356  0.68748  1.0000
  C   C1953     1.0  0.77098  0.68143  0.52204  1.0000
  H   H3331     1.0  0.73996  0.94832  0.76901  1.0000
  H   H3332     1.0  0.85237  0.73252  0.55636  1.0000
  H   H3333     1.0  0.84170  0.68643  0.87978  1.0000
  H   H3334     1.0  0.75863  0.96317  0.73616  1.0000
  C   C1954     1.0  0.73858  0.68914  0.86934  1.0000
  C   C1955     1.0  0.85652  0.72294  0.73055  1.0000
  C   C1956     1.0  0.85557  0.70725  0.73991  1.0000
  C   C1957     1.0  0.84691  0.69989  0.76810  1.0000
  C   C1958     1.0  0.83890  0.70798  0.78698  1.0000
  C   C1959     1.0  0.83977  0.72362  0.77754  1.0000
  C   C1960     1.0  0.84864  0.73109  0.74963  1.0000
  H   H3335     1.0  0.86160  0.70085  0.72556  1.0000
  H   H3336     1.0  0.84639  0.68782  0.77518  1.0000
  H   H3337     1.0  0.83376  0.73003  0.79188  1.0000
  H   H3338     1.0  0.84933  0.74324  0.74264  1.0000
  C   C1961     1.0  0.76562  0.79422  0.80264  1.0000
  C   C1962     1.0  0.73075  0.67476  0.92044  1.0000
  H   H3339     1.0  0.86137  0.67068  0.69164  1.0000
  H   H3340     1.0  0.88769  0.76382  0.73254  1.0000
  C   C1963     1.0  0.95587  0.74931  0.62376  1.0000
  C   C1964     1.0  0.80046  0.67675  0.53365  1.0000
  H   H3341     1.0  0.94620  0.76137  0.59027  1.0000
  H   H3342     1.0  0.76876  0.82222  0.75152  1.0000
  C   C1965     1.0  0.74455  0.79158  0.76441  1.0000
  H   H3343     1.0  0.76175  0.81785  0.80706  1.0000
  H   H3344     1.0  0.75376  0.91133  0.68805  1.0000
  C   C1966     1.0  0.73874  0.95653  0.70122  1.0000
  H   H3345     1.0  0.77609  0.79117  0.80786  1.0000
  C   C1967     1.0  0.77098  0.81281  0.81134  1.0000
  C   C1968     1.0  0.71886  0.86704  0.97483  1.0000
  H   H3346     1.0  0.88944  0.75538  0.77024  1.0000
  H   H3347     1.0  0.86202  0.69907  0.84328  1.0000
  H   H3348     1.0  0.91062  0.77800  0.63488  1.0000
  H   H3349     1.0  0.83483  0.66444  0.83327  1.0000
  H   H3350     1.0  0.75972  0.97380  0.52223  1.0000
  C   C1969     1.0  0.73753  0.95935  0.60215  1.0000
  H   H3351     1.0  0.94754  0.78546  0.68111  1.0000
  H   H3352     1.0  0.80861  0.67022  0.53786  1.0000
  C   C1970     1.0  0.75166  0.95884  0.61382  1.0000
  C   C1971     1.0  0.84832  0.71458  0.90961  1.0000
  H   H3353     1.0  0.72499  0.97537  0.59343  1.0000
  H   H3354     1.0  0.75337  0.94723  0.61315  1.0000
  H   H3355     1.0  0.75612  0.93722  0.71263  1.0000
  S   S569      1.0  0.72160  0.88652  0.99274  1.0000
  H   H3356     1.0  0.87155  0.71854  0.95293  1.0000
  S   S570      1.0  0.72171  0.94132  0.58678  1.0000
  S   S571      1.0  0.73144  0.80611  0.84286  1.0000
  H   H3357     1.0  0.84659  0.65290  0.82144  1.0000
  H   H3358     1.0  0.74603  0.80467  0.76785  1.0000
  C   C1972     1.0  0.72475  0.93084  0.73302  1.0000
  C   C1973     1.0  0.86904  0.71155  0.85349  1.0000
  H   H3359     1.0  0.83859  0.71066  0.92815  1.0000
  C   C1974     1.0  0.73937  0.70540  0.91818  1.0000
  H   H3360     1.0  0.77144  0.76472  0.79884  1.0000
  H   H3361     1.0  0.75115  0.69073  0.87352  1.0000
  H   H3362     1.0  0.85399  0.70226  0.96410  1.0000
  H   H3363     1.0  0.94245  0.75520  0.73615  1.0000
  C   C1975     1.0  0.95688  0.76163  0.60162  1.0000
  H   H3364     1.0  0.86282  0.73716  0.93752  1.0000
  C   C1976     1.0  0.87270  0.71080  0.88961  1.0000
  H   H3365     1.0  0.76506  0.66956  0.53472  1.0000
  H   H3366     1.0  0.78661  0.66629  0.82602  1.0000
  H   H3367     1.0  0.75269  0.93794  0.67084  1.0000
  H   H3368     1.0  0.86273  0.71995  0.84922  1.0000
  H   H3369     1.0  0.92773  0.78959  0.65758  1.0000
  H   H3370     1.0  0.77357  0.81451  0.83762  1.0000
  H   H3371     1.0  0.73885  0.67529  0.82520  1.0000
  H   H3372     1.0  0.91312  0.75149  0.75517  1.0000
  H   H3373     1.0  0.84831  0.73951  0.91235  1.0000
  C   C1977     1.0  0.72253  0.83958  0.73700  1.0000
  H   H3374     1.0  0.95173  0.80144  0.71089  1.0000
  N   N139      1.0  0.75991  0.78911  0.76860  1.0000
  C   C1978     1.0  0.75610  0.77070  0.76484  1.0000
  C   C1979     1.0  0.77257  0.79823  0.74387  1.0000
  C   C1980     1.0  0.76962  0.76480  0.77237  1.0000
  C   C1981     1.0  0.73628  0.78565  0.73171  1.0000
  C   C1982     1.0  0.77361  0.81566  0.73383  1.0000
  H   H3375     1.0  0.74572  0.76344  0.78036  1.0000
  H   H3376     1.0  0.75245  0.76640  0.73965  1.0000
  H   H3377     1.0  0.78452  0.79956  0.75246  1.0000
  H   H3378     1.0  0.77072  0.79079  0.72097  1.0000
  H   H3379     1.0  0.84684  0.65392  0.73857  1.0000
  H   H3380     1.0  0.88103  0.72335  0.89747  1.0000
  H   H3381     1.0  0.82733  0.64890  0.60831  1.0000
  H   H3382     1.0  0.73029  0.77191  0.73073  1.0000
  H   H3383     1.0  0.75211  0.84797  0.98029  1.0000
  H   H3384     1.0  0.83658  0.73229  0.97409  1.0000
  H   H3385     1.0  0.78631  0.82381  0.72990  1.0000
  H   H3386     1.0  0.76788  0.81499  0.71011  1.0000
  N   N140      1.0  0.91898  0.76423  0.70910  1.0000
  C   C1983     1.0  0.90706  0.75450  0.73460  1.0000
  C   C1984     1.0  0.92655  0.75289  0.69495  1.0000
  C   C1985     1.0  0.90984  0.76856  0.68321  1.0000
  C   C1986     1.0  0.93088  0.77970  0.72462  1.0000
  H   H3387     1.0  0.82266  0.69833  0.54061  1.0000
  H   H3388     1.0  0.94217  0.74010  0.70588  1.0000
  N   N141      1.0  0.73306  0.93775  0.70146  1.0000
  C   C1987     1.0  0.94732  0.78775  0.70747  1.0000
  H   H3389     1.0  0.89895  0.74228  0.72455  1.0000
  H   H3390     1.0  0.77450  0.97282  0.63510  1.0000
  H   H3391     1.0  0.93562  0.75901  0.67613  1.0000
  H   H3392     1.0  0.91750  0.74224  0.68204  1.0000
  C   C1988     1.0  0.85086  0.64804  0.71892  1.0000
  H   H3393     1.0  0.90443  0.77724  0.69280  1.0000
  H   H3394     1.0  0.92579  0.78942  0.72756  1.0000
  H   H3395     1.0  0.93345  0.77691  0.74957  1.0000
  C   C1989     1.0  0.91917  0.77680  0.65247  1.0000
  H   H3396     1.0  0.76617  0.75173  0.76388  1.0000
  H   H3397     1.0  0.81192  0.66234  0.79659  1.0000
  H   H3398     1.0  0.82825  0.68305  0.93600  1.0000
  C   C1990     1.0  0.86405  0.70550  0.94624  1.0000
  H   H3399     1.0  0.80667  0.70385  0.52616  1.0000
  C   C1991     1.0  0.75591  0.96671  0.71222  1.0000
  C   C1992     1.0  0.72549  0.67391  0.95620  1.0000
  C   C1993     1.0  0.73580  0.97474  0.60248  1.0000
  H   H3400     1.0  0.71871  0.91706  0.73131  1.0000
  H   H3401     1.0  0.82812  0.66457  0.91637  1.0000
  H   H3402     1.0  0.76049  0.81769  0.50214  1.0000
  H   H3403     1.0  0.75775  0.98007  0.71361  1.0000
  H   H3404     1.0  0.90359  0.77556  0.75983  1.0000
  C   C1994     1.0  0.73515  0.93487  0.76326  1.0000
  H   H3405     1.0  0.88709  0.70310  0.95064  1.0000
  H   H3406     1.0  0.78096  0.77226  0.75997  1.0000
  C   C1995     1.0  0.83959  0.72600  0.99358  1.0000
  H   H3407     1.0  0.72320  0.66262  0.90939  1.0000
  C   C1996     1.0  0.71632  0.83657  0.94539  1.0000
  S   S572      1.0  0.72690  0.89651  0.59902  1.0000
  H   H3408     1.0  0.73396  0.73195  0.81442  1.0000
  H   H3409     1.0  0.73578  0.78494  0.78365  1.0000
  H   H3410     1.0  0.74485  0.93016  0.76116  1.0000
  H   H3411     1.0  0.80903  0.66268  0.83914  1.0000
  H   H3412     1.0  0.73407  0.68416  0.97068  1.0000
  H   H3413     1.0  0.84161  0.67357  0.94866  1.0000
  H   H3414     1.0  0.87142  0.68407  0.93824  1.0000
  H   H3415     1.0  0.84211  0.71237  0.88606  1.0000
  H   H3416     1.0  0.73529  0.90804  0.66992  1.0000
  C   C1997     1.0  0.80411  0.65526  0.81685  1.0000
  C   C1998     1.0  0.83493  0.65176  0.83225  1.0000
  H   H3417     1.0  0.72482  0.87700  0.92682  1.0000
  C   C1999     1.0  0.72007  0.85075  0.92658  1.0000
  H   H3418     1.0  0.74457  0.78998  0.71078  1.0000
  C   C2000     1.0  0.85915  0.65757  0.69246  1.0000
  H   H3419     1.0  0.78650  0.65905  0.78581  1.0000
  H   H3420     1.0  0.74506  0.71552  0.90053  1.0000
  C   C2001     1.0  0.74676  0.93245  0.69412  1.0000
  N   N142      1.0  0.73011  0.68903  0.90128  1.0000
  C   C2002     1.0  0.93465  0.74564  0.71937  1.0000
  C   C2003     1.0  0.84838  0.68671  0.90220  1.0000
  H   H3421     1.0  0.83145  0.73937  0.52960  1.0000
  S   S573      1.0  0.72204  0.75742  0.82949  1.0000
  H   H3422     1.0  0.73114  0.83540  0.68994  1.0000
  S   S574      1.0  0.81250  0.69837  0.97820  1.0000
  N   N143      1.0  0.85840  0.70438  0.91193  1.0000
  H   H3423     1.0  0.88039  0.71648  0.83942  1.0000
  H   H3424     1.0  0.86596  0.73898  0.89401  1.0000
  C   C2004     1.0  0.73117  0.67370  0.84719  1.0000
  H   H3425     1.0  0.72539  0.66218  0.96647  1.0000
  C   C2005     1.0  0.89650  0.76306  0.74992  1.0000
  C   C2006     1.0  0.73010  0.71236  0.94213  1.0000
  H   H3426     1.0  0.75060  0.86665  0.99440  1.0000
  H   H3427     1.0  0.76146  0.68507  0.51265  1.0000
  C   C2007     1.0  0.87422  0.69534  0.95360  1.0000
  C   C2008     1.0  0.85710  0.73357  0.91367  1.0000
  H   H3428     1.0  0.73062  0.96084  0.71598  1.0000
  C   C2009     1.0  0.83754  0.73272  0.51616  1.0000
  H   H3429     1.0  0.72257  0.85543  0.66172  1.0000
  H   H3430     1.0  0.89968  0.75722  0.67527  1.0000
  H   H3431     1.0  0.79078  0.67157  0.55198  1.0000
  H   H3432     1.0  0.74307  0.67497  0.92014  1.0000
  C   C2010     1.0  0.80965  0.69531  0.54178  1.0000
  H   H3433     1.0  0.73948  0.70000  0.85468  1.0000
  H   H3434     1.0  0.77565  0.97751  0.54892  1.0000
  H   H3435     1.0  0.76475  0.96573  0.69419  1.0000
  H   H3436     1.0  0.72097  0.71122  0.87233  1.0000
  C   C2011     1.0  0.72109  0.93081  0.67491  1.0000
  H   H3437     1.0  0.72308  0.70333  0.96047  1.0000
  H   H3438     1.0  0.72708  0.93360  0.65076  1.0000
  H   H3439     1.0  0.73841  0.96101  0.67628  1.0000
  H   H3440     1.0  0.77767  0.69114  0.53988  1.0000
  H   H3441     1.0  0.95625  0.78394  0.71911  1.0000
  H   H3442     1.0  0.73874  0.72319  0.95530  1.0000
  H   H3443     1.0  0.72684  0.79067  0.72920  1.0000
  S   S575      1.0  0.71621  0.81762  0.92913  1.0000
  H   H3444     1.0  0.87187  0.69094  0.97898  1.0000
  C   C2012     1.0  0.72526  0.84220  0.70354  1.0000
  H   H3445     1.0  0.96320  0.72862  0.56035  1.0000
  C   C2013     1.0  0.72149  0.86597  0.94135  1.0000
  C   C2014     1.0  0.75483  0.65098  0.94345  1.0000
  H   H3446     1.0  0.72763  0.92856  0.78436  1.0000
  H   H3447     1.0  0.73063  0.66213  0.85864  1.0000
  S   S576      1.0  0.72331  0.86827  0.52050  1.0000
  H   H3448     1.0  0.72213  0.71704  0.92924  1.0000
  H   H3449     1.0  0.73659  0.90690  0.71351  1.0000
  H   H3450     1.0  0.71921  0.67219  0.83887  1.0000
  H   H3451     1.0  0.71544  0.91702  0.67598  1.0000
  H   H3452     1.0  0.76155  0.64740  0.50127  1.0000
  H   H3453     1.0  0.71509  0.93539  0.73845  1.0000
  H   H3454     1.0  0.79586  0.64909  0.50077  1.0000
  H   H3455     1.0  0.75554  0.83554  0.49923  1.0000
  N   N144      1.0  0.79413  0.67321  0.49980  1.0000
  H   H3456     1.0  0.82823  0.67955  0.49987  1.0000
  C   C2015     1.0  0.71449  0.85270  0.99334  1.0000
  C   C2016     1.0  0.71502  0.84855  0.75437  1.0000
