data_image0
_chemical_formula_structural       FeS2FeSH2C3HC2H4FeS2FeSCFeSFeS4HN2HCHC2HCH2SHC3H2C6H3CH2CH2CH3SH7CHCHCH4CH2CHS2H3SHCH3CFeH4C2HNCHFeHNC7H8CH6CNH5SH2SCHFeCH7CH2NH2CH2CH2CHCSCH4CHSCHCHCHCH2CHCHC2HCNC2H2CH3C5H4C2H2CH3C3H2FeHSFeSH4SNHCSHCHFeSHFeSHFeSFeS3HSHCH3CH2CH5C2H2C6H5C3H2CHC2H2SNH3CH2SH4SHCHC2FeHCH2SCHSHCHCH3CNC8H8CHCH5CH5SH2C2H3CH2CH3SCHCH3CHNHNC4HC3HCH7CH8FeCHC2HCFeH2SHCH5CH2C4SH3CHC3SH6CH3CHCHC2HC2H2FeS2FeS2FeSFeS3FeHSFeSFeH5C2H2CFeS2FeS2FeSFeS3H3CH2CH3C2HC8H3CHNH3C2HCH4C2HC3H4C6H4C6H4CHCHCHC2SCSHCHNHCH7CHC2HCH10CHNCFeC3HFeSCNCH5C5HC2HC2H2C2HNC8H20CHCH2CS2H3SHCH2C2SH4SH2C2H9SH2SH5CHCHC2HFeHCFeS2FeS2FeSFeS3FeHSFeSFeHCH3SC2HCFeS2FeS2FeSFeS3CH2CH2C2HSH2CHC6H4C3FeHC2S2C3H2C2HCHCHCH2C6H4C6H4C2H2SH2NC8H21C2HCH2CH5FeH6CH4CH2C4NHCHNHSHCH3NC2H4CH2CH2CSHCHCH7CH3SHCHNC3SC2HFeH6CH3CH2SH2SH2C2HCH2CHFeS2FeS2FeSFeCS2H2CH2SH3FeHFeS3C2HCH2C3H2C2H2C2H3SH5NCH4C6H5CH4C3H3N2HC8H3CHCHC2HC2FeC2HSNH2C2H2NHC5SCH6CHS2CH3CH4C3HCH5C2H14FeH3CHCHC2H6C3NH10CFeH12CSC2HCH3CH2C3HSC3SHSH5FeS2FeS2FeSFeCS3CHFeCSH2CFeHFeS3CHC2H3C2H4C3HC3HNCH3C2HCH2C6H5Fe2SCHCH6NC8H24C3H3CHCHCHCHC3H2C2H2CH4CH6SCH2C3NCSH3NC2HC2H2CH2CH4CHCH10CH2CH2SHCHCH5S2H4C2H3CHCH4FeSCFeSFe2SFeS2H3FeSHFeS2FeSHFeSFeS3NH5C3H2C6H4C6H10C3H5CSC3SCH5CH2CHFeC4HCHCH4C2H2NHCH4NH9C2NH2CNC2H2C3H3CH2CHC2HSHCHC3HC3H5CHCHC2H3SH9SCH5SH4CH4C2HC2FeSCFeS2FeSFeS2H3FeSCFeSHFeSHFeSFeS3H3CH2C3H2C6H4C6HCH6NH7CHCH2CHC2H2C2HCH2CSH10NH3CH5CH2C3H4SCSHCH4CH4CNC3SHC3SHCHSCH2C3H6FeHC4HNH3CH2C2H4FeH2CH2CH4CH2FeS2FeS2FeS2FeSFeS3FeS2FeS2FeSFeS3NC2H3FeS2C6H4CHCH2CHC2HCH2CHC6H5C2H2C6H4CH7NH2NC6H14CNC8H20C2HNC5HFeCH12CH3CSCH6C2H5CH12NC6H4C2H3CH13C2H6C3HCHCHC2H4NHCHCHC2S2H2CFeH2C4HCH2CH2CNS2FeS2FeS2FeSFeS3FeS2FeS2FeSFeS3FeSCSHCFeS2C6H4C3H2CHC2HC2HCHC6H4C3H2C6H5CH5CHCH11CFeH2CSH12CHCH2CH3NH4NC8H20C2HNC5HCHCH5CH8C2HCHCH2C2H3CHNC3H11NH6C3H2CHC2H2CH2CH5FeH3CHC3H2CH2CHCHC2H5C3H3FeSHFeS2FeSFeS3HSHFeSCFeS2FeSFeS3C6H4C6H4C2H3CHCHFeCH3C3H2CH3CH2CH3CH3CH4NCH2CH2CHC2H4C2HC2H2CNCHCH3CH5CSH2NC8H9CH12CH4CH5C2HSH2CH4C2HCHC2SH5CFeSHFeS2FeSFeS3FeSH2SHFeS2FeSFeS2HC7H3C6H4C3H3C2H7CHNC2HCH7CHC2HCFeCNHCH2CHCHC3HCH3CHCHCHC2H8CH2C2H3CHNCHC3H2C2H5CH2NH2CH5CH3SH2CHCH2CH3CH2CH4SH2SHC2H5C2NH2CH2SC2H10CHCHNH2CFeS2FeSHFeSFeS3FeCSCFeS2FeS2FeCFeS3H5CH5CHC6H4C6H6C5H2CHC2H2C2H3CSCH8CHNH16CSHC2HSHCHCH3C2H2NC8H11CH8NC8H20NC4HC3HSH4C3H2SNH4CH2NH2C2HCFeS2FeSHFeSFeS3FeHSHFeS2FeS2FeHFeS3HC2H4CNH4C6H4C6H4CH2C3H3CSC2H2CHC3NH2CH5CSCHCHC2HCHCH4NH2NC8H20C4H8CHC2HCH10CHSH5C3H5C2H2C2HCH2NHSHC4H3CH3CH3CHCH2SH5CH2CH2CH4CH2FeS2HCHC2FeS2FeS2FeSFeS3HC2Fe2SFeS2FeS2FeS2FeSFeS3H4NC6H5CHC3HCH2C6H4CSCH2C6H4C2H4CHCH2CHCHCHCFeCH4C2HCH5SNCHC3HCH2C2H4CHCH9NH2NC8H19CH5FeHCHCH2CH2CH3CHCHNCH2NH3C2H3C2H3C3SH2SHCHCH3CHCHCSHCHCH2SH2CH2CH2SFeS2H2NH2FeS2FeS2FeSFeS3HCH2C2FeS2FeS2FeS2FeSFeS3H2CH2C6H4FeCHC2H5C6H4CHCH2C6H6C3HSH2CHCH8SHC3NH2CNC4H4CH5CH2NC8H22CHCHS2H3NC4HCHC2H5C2H6CHNC8H10FeH2FeCH2CH2SCH3CHC3H3CH3SC4HSC3HCH3CH5CHSH2C2H2FeCH2CHCHFeSHFeSHFeS2FeSFeS3FeS2FeSHFeSFeS3C4HC6H4C6H4CHC3HC2H5CH3CHC2HNC8H20CHCH4CNC2NC4HCHCH5CH3C2H3CHCH10C2HSC2HC2HCH2CH4SH2NHSCHNH3CH5CH2C5NHSH4CH5CHCH3CH5CH2CHCSCH3C2H3C2H10CH5FeSHFeSHFeS2FeSFeS3FeS2FeS2FeSFeS3CH4C6H4C6H5C2HCH3CHCHC4HC4H2CH2CH3CH3CHC4H5C3H8CNC8H17CHSH2C2SH2CH4CNHC2H7CH3C2HCHC4H6NHCH5NH6C2H5S2H4CHFeSHFeS2FeSFeS3CH3CHFeSC2S2CH3CH3CHFeHCH3SC2H2C2HCFeC6HCH2C3H2CSH6SNCH4CH2C2HCH5C2H4C2HCH2CHC2H3SH4CH3SHCH2CHNCH2NC8H12FeHCH7CH2CH6SH2C2H3CSHCH5C2HFeSHFeS2FeSFeS3H2CFeH2FeSCNS2H3C2H2CH4CNH4SHCH4C7HSCHC3H6SC2HCHCHCH3CFeCH3CHCH2C2HCH5CH2CHSCHFeH6C2H2NC8H16CH3NHCHSCFeSNC5HC2H5C2H7C2HSHCH4CH2CHFeHCH2CHCH2SH3CH2FeS2FeS2FeSFeS3FeS2FeS2FeSFeS3HCH4CFeH3C6H4C3H2C2HC3H2CHC6H4C3H8C7H4NHC2FeHC2H7CH2CSHCHCH4FeHC2HSC2NC4H2SCH4CH3C2H3CH5CNCH2FeHCH4CH3CHCH2NH3CNC6H10CH3CH3CH3NH7CH4C2H3FeH2CHFeHCH4CH2CH3CH3NC8H13C2HCHCH2CH2C2H4SH2CH3C2H2CHCH2CS2HFeCSFeSH4FeS2FeS2FeSFeS3FeS2FeS2FeSFeS3H2CH2SH2CHC7H2CHC2H3C2HC3HFeCHC6H5C3H8C6H7NC8H20C3NC2HCHC4H7CHCH5C2H2C2HCH2CH4NCHCSCHCH7SCSH3CH3C2H2NC3HNCHCH2CH2CH4CH3NH4FeCHCH2C2NH4FeH2CH3CHC2H3CH3SH2CH4CHSHCHFeCHSCHCHC2H12FeS2FeS2FeHFeS3CHNFeSCFeCSFeSFeSH2CH2C3H2CHFeHCH4CH3N2C2H3CHCHCHC6H4C3HC3H5CH2NH3CSH6SHC3HC2HCH3CH4CHC4H6CH4CHCHCH3CH2CH2C3H6CHCSH3SH3NC2H2CHCHCH6CH2CH2CHCSHSH2CHCSH5FeS2FeS2FeCFeS3H2SFeSHFeHSCHFeSH2C4H4FeC2HCH2C5H3CH3CHNCH3C6H4C3HCHCH5NH3CH2SH2CH3CHC2SHNC8H11FeHCHC2H2SCSHSH2SH10C2H3C3HCH2NCHCH2C2SH4CNH4CH3SH2CH2C4HC2H3CH3CH3CSH
_chemical_formula_sum              "Fe256 S512 H3072 C1792 N128"
_cell_length_a       76.1454
_cell_length_b       76.1893
_cell_length_c       47.6106
_cell_angle_alpha    90.0464
_cell_angle_beta     90.0633
_cell_angle_gamma    88.2621

_space_group_name_H-M_alt    "P 1"
_space_group_IT_number       1

loop_
  _space_group_symop_operation_xyz
  'x, y, z'

loop_
  _atom_site_type_symbol
  _atom_site_label
  _atom_site_symmetry_multiplicity
  _atom_site_fract_x
  _atom_site_fract_y
  _atom_site_fract_z
  _atom_site_occupancy
  Fe  Fe1       1.0  0.19722  0.14867  0.02326  1.0000
  S   S1        1.0  0.16906  0.15217  0.00815  1.0000
  S   S2        1.0  0.20123  0.15038  0.07129  1.0000
  Fe  Fe2       1.0  0.21421  0.14609  0.45817  1.0000
  S   S3        1.0  0.18948  0.15708  0.43858  1.0000
  H   H1        1.0  0.24659  0.24508  0.32342  1.0000
  H   H2        1.0  0.22513  0.14849  0.16757  1.0000
  C   C1        1.0  0.01853  0.01936  0.29948  1.0000
  C   C2        1.0  0.02634  0.07670  0.31764  1.0000
  C   C3        1.0  0.07113  0.01150  0.26292  1.0000
  H   H3        1.0  0.10874  0.06473  0.03520  1.0000
  C   C4        1.0  0.22793  0.14574  0.14571  1.0000
  C   C5        1.0  0.23971  0.15114  0.33886  1.0000
  H   H4        1.0  0.13306  0.32271  0.39411  1.0000
  H   H5        1.0  0.12732  0.29580  0.42044  1.0000
  H   H6        1.0  0.11825  0.05970  0.45600  1.0000
  H   H7        1.0  0.18746  0.09658  0.33320  1.0000
  Fe  Fe3       1.0  0.07041  0.03175  0.33683  1.0000
  S   S4        1.0  0.06918  0.06013  0.35124  1.0000
  S   S5        1.0  0.06412  0.02661  0.28990  1.0000
  Fe  Fe4       1.0  0.07261  0.01922  0.39850  1.0000
  S   S6        1.0  0.07090  0.04645  0.41636  1.0000
  C   C6        1.0  0.02245  0.05689  0.31702  1.0000
  Fe  Fe5       1.0  0.04982  0.05098  0.38357  1.0000
  S   S7        1.0  0.02509  0.06720  0.39422  1.0000
  Fe  Fe6       1.0  0.09047  0.05341  0.38305  1.0000
  S   S8        1.0  0.11661  0.06752  0.39211  1.0000
  S   S9        1.0  0.05011  0.02324  0.36821  1.0000
  S   S10       1.0  0.09314  0.02554  0.36618  1.0000
  S   S11       1.0  0.18243  0.31603  0.99851  1.0000
  H   H8        1.0  0.15156  0.32753  0.41673  1.0000
  N   N1        1.0  0.20901  0.27880  0.07503  1.0000
  N   N2        1.0  0.09792  0.05497  0.99632  1.0000
  H   H9        1.0  0.21566  0.25595  0.10022  1.0000
  C   C7        1.0  0.20696  0.11082  0.31015  1.0000
  H   H10       1.0  0.17402  0.26927  0.06089  1.0000
  C   C8        1.0  0.21814  0.14543  0.09639  1.0000
  C   C9        1.0  0.21489  0.14901  0.12502  1.0000
  H   H11       1.0  0.19981  0.29864  0.04577  1.0000
  C   C10       1.0  0.08752  0.04085  0.01021  1.0000
  H   H12       1.0  0.20215  0.15434  0.13124  1.0000
  H   H13       1.0  0.23041  0.19683  0.11733  1.0000
  S   S12       1.0  0.19353  0.20735  0.44902  1.0000
  H   H14       1.0  0.00658  0.04524  0.22653  1.0000
  C   C11       1.0  0.11535  0.30157  0.47014  1.0000
  C   C12       1.0  0.22890  0.16061  0.35777  1.0000
  C   C13       1.0  0.22835  0.15597  0.38635  1.0000
  H   H15       1.0  0.22065  0.17140  0.35018  1.0000
  H   H16       1.0  0.21985  0.16329  0.40059  1.0000
  C   C14       1.0  0.14057  0.11174  0.44674  1.0000
  C   C15       1.0  0.15093  0.10165  0.42813  1.0000
  C   C16       1.0  0.14335  0.08835  0.41159  1.0000
  C   C17       1.0  0.12528  0.08482  0.41331  1.0000
  C   C18       1.0  0.11496  0.09478  0.43217  1.0000
  C   C19       1.0  0.12255  0.10805  0.44873  1.0000
  H   H17       1.0  0.16483  0.10403  0.42660  1.0000
  H   H18       1.0  0.15156  0.08068  0.39737  1.0000
  H   H19       1.0  0.10108  0.09235  0.43388  1.0000
  C   C20       1.0  0.18888  0.22863  0.46304  1.0000
  H   H20       1.0  0.20559  0.24112  0.43305  1.0000
  H   H21       1.0  0.24397  0.24346  0.37085  1.0000
  C   C21       1.0  0.19740  0.28465  0.05092  1.0000
  H   H22       1.0  0.12013  0.08579  0.00089  1.0000
  H   H23       1.0  0.11431  0.11569  0.46297  1.0000
  C   C22       1.0  0.06299  0.01249  0.23628  1.0000
  H   H24       1.0  0.01385  0.00589  0.30314  1.0000
  H   H25       1.0  0.23126  0.29531  0.06880  1.0000
  H   H26       1.0  0.23399  0.29929  0.31088  1.0000
  S   S13       1.0  0.14933  0.12872  0.46850  1.0000
  H   H27       1.0  0.21830  0.10716  0.32378  1.0000
  H   H28       1.0  0.19308  0.25923  0.09534  1.0000
  H   H29       1.0  0.14627  0.01853  0.46299  1.0000
  H   H30       1.0  0.08754  0.04947  0.05460  1.0000
  H   H31       1.0  0.19801  0.27154  0.44882  1.0000
  H   H32       1.0  0.16275  0.04034  0.44110  1.0000
  H   H33       1.0  0.11004  0.03697  0.42896  1.0000
  C   C23       1.0  0.00205  0.06492  0.39026  1.0000
  H   H34       1.0  0.21985  0.23959  0.05968  1.0000
  C   C24       1.0  0.24321  0.32803  0.07903  1.0000
  H   H35       1.0  0.06516  0.02245  0.46505  1.0000
  C   C25       1.0  0.20585  0.26019  0.08411  1.0000
  H   H36       1.0  0.20423  0.30479  0.09277  1.0000
  H   H37       1.0  0.06077  0.06006  0.98550  1.0000
  H   H38       1.0  0.23687  0.27431  0.08302  1.0000
  H   H39       1.0  0.17888  0.11256  0.30965  1.0000
  C   C26       1.0  0.22894  0.28679  0.31939  1.0000
  H   H40       1.0  0.11248  0.00617  0.41191  1.0000
  H   H41       1.0  0.10620  0.32183  0.42117  1.0000
  C   C27       1.0  0.11140  0.32749  0.44100  1.0000
  H   H42       1.0  0.13324  0.01590  0.41620  1.0000
  S   S14       1.0  0.20297  0.12712  0.99170  1.0000
  S   S15       1.0  0.23550  0.13348  0.43076  1.0000
  H   H43       1.0  0.14839  0.31538  0.48011  1.0000
  H   H44       1.0  0.02998  0.08173  0.29669  1.0000
  H   H45       1.0  0.01534  0.08476  0.32658  1.0000
  S   S16       1.0  0.23741  0.33054  0.42425  1.0000
  H   H46       1.0  0.23740  0.13553  0.06694  1.0000
  C   C28       1.0  0.12623  0.07244  0.00281  1.0000
  H   H47       1.0  0.08374  0.07799  0.01257  1.0000
  H   H48       1.0  0.99997  0.03140  0.32824  1.0000
  H   H49       1.0  0.06825  0.05685  0.03489  1.0000
  C   C29       1.0  0.17749  0.28288  0.05555  1.0000
  Fe  Fe7       1.0  0.18712  0.31024  0.48181  1.0000
  H   H50       1.0  0.13753  0.07356  0.01742  1.0000
  H   H51       1.0  0.12579  0.99984  0.44096  1.0000
  H   H52       1.0  0.09611  0.02921  0.01526  1.0000
  H   H53       1.0  0.23878  0.17534  0.11256  1.0000
  C   C30       1.0  0.13762  0.32449  0.47292  1.0000
  C   C31       1.0  0.01220  0.05428  0.26879  1.0000
  H   H54       1.0  0.20057  0.27752  0.03125  1.0000
  N   N3        1.0  0.00708  0.05167  0.29905  1.0000
  C   C32       1.0  0.19215  0.26049  0.45906  1.0000
  H   H55       1.0  0.23273  0.27824  0.26266  1.0000
  Fe  Fe8       1.0  0.17552  0.14329  0.47340  1.0000
  H   H56       1.0  0.20915  0.12381  0.30049  1.0000
  N   N4        1.0  0.18685  0.12318  0.34974  1.0000
  C   C33       1.0  0.18923  0.11029  0.32589  1.0000
  C   C34       1.0  0.17019  0.11924  0.36524  1.0000
  C   C35       1.0  0.20198  0.12171  0.37010  1.0000
  C   C36       1.0  0.18617  0.14151  0.33768  1.0000
  C   C37       1.0  0.15298  0.12169  0.34836  1.0000
  C   C38       1.0  0.20582  0.10334  0.38272  1.0000
  C   C39       1.0  0.18110  0.15643  0.35834  1.0000
  H   H57       1.0  0.16894  0.12725  0.38479  1.0000
  H   H58       1.0  0.17045  0.10536  0.37245  1.0000
  H   H59       1.0  0.21425  0.12603  0.36007  1.0000
  H   H60       1.0  0.19983  0.13064  0.38834  1.0000
  H   H61       1.0  0.19917  0.14491  0.32886  1.0000
  H   H62       1.0  0.17687  0.14244  0.31964  1.0000
  H   H63       1.0  0.10612  0.29470  0.45596  1.0000
  H   H64       1.0  0.15219  0.30863  0.39467  1.0000
  C   C40       1.0  0.24754  0.19394  0.08209  1.0000
  H   H65       1.0  0.21770  0.10402  0.39625  1.0000
  H   H66       1.0  0.20876  0.09326  0.36650  1.0000
  H   H67       1.0  0.19500  0.09910  0.39646  1.0000
  H   H68       1.0  0.16756  0.15538  0.36654  1.0000
  H   H69       1.0  0.18165  0.16919  0.34715  1.0000
  H   H70       1.0  0.23165  0.26389  0.37511  1.0000
  C   C41       1.0  0.06848  0.01067  0.47676  1.0000
  N   N5        1.0  0.12151  0.03281  0.47050  1.0000
  H   H71       1.0  0.23693  0.22315  0.12840  1.0000
  H   H72       1.0  0.20850  0.30208  0.34057  1.0000
  H   H73       1.0  0.20217  0.25024  0.04025  1.0000
  H   H74       1.0  0.02539  0.04822  0.26407  1.0000
  H   H75       1.0  0.20692  0.10112  0.29272  1.0000
  S   S17       1.0  0.18616  0.32663  0.44239  1.0000
  H   H76       1.0  0.19121  0.28840  0.10775  1.0000
  H   H77       1.0  0.09903  0.02176  0.44977  1.0000
  S   S18       1.0  0.23756  0.15553  0.30250  1.0000
  C   C42       1.0  0.14342  0.31701  0.40807  1.0000
  H   H78       1.0  0.03772  0.07878  0.33169  1.0000
  Fe  Fe9       1.0  0.19301  0.17985  0.46837  1.0000
  C   C43       1.0  0.24763  0.13498  0.10950  1.0000
  H   H79       1.0  0.22624  0.29645  0.36327  1.0000
  H   H80       1.0  0.17049  0.28625  0.03569  1.0000
  H   H81       1.0  0.21826  0.23563  0.98902  1.0000
  H   H82       1.0  0.22171  0.18371  0.15828  1.0000
  H   H83       1.0  0.07741  0.03579  0.99567  1.0000
  H   H84       1.0  0.23077  0.26166  0.03284  1.0000
  H   H85       1.0  0.23574  0.19243  0.06863  1.0000
  C   C44       1.0  0.23416  0.27524  0.03811  1.0000
  H   H86       1.0  0.20251  0.20763  0.98821  1.0000
  H   H87       1.0  0.02974  0.02109  0.31395  1.0000
  N   N6        1.0  0.12519  0.31518  0.45387  1.0000
  H   H88       1.0  0.21914  0.28233  0.30382  1.0000
  H   H89       1.0  0.02054  0.05273  0.33916  1.0000
  C   C45       1.0  0.20649  0.24576  0.06128  1.0000
  H   H90       1.0  0.05277  0.02238  0.23260  1.0000
  H   H91       1.0  0.19718  0.23537  0.06688  1.0000
  C   C46       1.0  0.11237  0.02622  0.44449  1.0000
  H   H92       1.0  0.14151  0.04416  0.42553  1.0000
  H   H93       1.0  0.12097  0.04693  0.02047  1.0000
  C   C47       1.0  0.12171  0.01120  0.42788  1.0000
  H   H94       1.0  0.19039  0.15711  0.37614  1.0000
  C   C48       1.0  0.99919  0.04828  0.24615  1.0000
  S   S19       1.0  0.22474  0.31478  0.98545  1.0000
  C   C49       1.0  0.08443  0.99867  0.26712  1.0000
  H   H95       1.0  0.24687  0.32560  0.05740  1.0000
  H   H96       1.0  0.22470  0.25307  0.31850  1.0000
  H   H97       1.0  0.17238  0.29220  0.07170  1.0000
  H   H98       1.0  0.21805  0.27613  0.13402  1.0000
  C   C50       1.0  0.06113  0.00226  0.99766  1.0000
  H   H99       1.0  0.03484  0.05005  0.31013  1.0000
  S   S20       1.0  0.20736  0.16970  0.99487  1.0000
  C   C51       1.0  0.11332  0.05912  0.01484  1.0000
  H   H100      1.0  0.14897  0.05813  0.45340  1.0000
  C   C52       1.0  0.20460  0.29079  0.09954  1.0000
  H   H101      1.0  0.14174  0.11886  0.36239  1.0000
  C   C53       1.0  0.19645  0.24322  0.45019  1.0000
  H   H102      1.0  0.14685  0.29795  0.44055  1.0000
  C   C54       1.0  0.22807  0.28116  0.06759  1.0000
  H   H103      1.0  0.22879  0.28425  0.02177  1.0000
  H   H104      1.0  0.08754  0.04753  0.47036  1.0000
  C   C55       1.0  0.13556  0.30560  0.43126  1.0000
  H   H105      1.0  0.21041  0.28012  0.35294  1.0000
  C   C56       1.0  0.23343  0.25213  0.36176  1.0000
  H   H106      1.0  0.01411  0.06843  0.26449  1.0000
  C   C57       1.0  0.23702  0.25561  0.33024  1.0000
  C   C58       1.0  0.24443  0.13867  0.13809  1.0000
  H   H107      1.0  0.21204  0.29845  0.14182  1.0000
  C   C59       1.0  0.23830  0.14152  0.39620  1.0000
  N   N7        1.0  0.24381  0.27341  0.32258  1.0000
  C   C60       1.0  0.07814  0.04604  0.03783  1.0000
  C   C61       1.0  0.00344  0.03275  0.30564  1.0000
  H   H108      1.0  0.22117  0.24465  0.36374  1.0000
  H   H109      1.0  0.15237  0.11231  0.33058  1.0000
  C   C62       1.0  0.21715  0.28953  0.12504  1.0000
  H   H110      1.0  0.15086  0.13528  0.34060  1.0000
  H   H111      1.0  0.07091  0.03454  0.04557  1.0000
  H   H112      1.0  0.23047  0.29409  0.11986  1.0000
  C   C63       1.0  0.21817  0.29137  0.34589  1.0000
  C   C64       1.0  0.23466  0.13842  0.08877  1.0000
  C   C65       1.0  0.14890  0.04438  0.44560  1.0000
  C   C66       1.0  0.08693  0.07157  0.99212  1.0000
  C   C67       1.0  0.06813  0.00098  0.21417  1.0000
  H   H113      1.0  0.02310  0.01993  0.27742  1.0000
  H   H114      1.0  0.04764  0.00668  0.00082  1.0000
  H   H115      1.0  0.22763  0.20586  0.16740  1.0000
  H   H116      1.0  0.09306  0.06943  0.47975  1.0000
  C   C68       1.0  0.14125  0.03200  0.46787  1.0000
  C   C69       1.0  0.23094  0.19179  0.17045  1.0000
  H   H117      1.0  0.13471  0.27920  0.47026  1.0000
  H   H118      1.0  0.06186  0.00210  0.19382  1.0000
  C   C70       1.0  0.11599  0.05181  0.47524  1.0000
  H   H119      1.0  0.23405  0.25518  0.27280  1.0000
  H   H120      1.0  0.09960  0.32896  0.45476  1.0000
  H   H121      1.0  0.22864  0.18879  0.19296  1.0000
  C   C71       1.0  0.24270  0.18928  0.11257  1.0000
  C   C72       1.0  0.24163  0.26714  0.26906  1.0000
  C   C73       1.0  0.17981  0.26338  0.48041  1.0000
  H   H122      1.0  0.24748  0.22808  0.16150  1.0000
  H   H123      1.0  0.00201  0.03758  0.37857  1.0000
  Fe  Fe10      1.0  0.20270  0.15550  0.51837  1.0000
  H   H124      1.0  0.23303  0.26983  0.61670  1.0000
  S   S21       1.0  0.20609  0.15818  0.56659  1.0000
  Fe  Fe11      1.0  0.21068  0.14860  0.96205  1.0000
  S   S22       1.0  0.18382  0.15240  0.94361  1.0000
  H   H125      1.0  0.10181  0.02354  0.49947  1.0000
  H   H126      1.0  0.23607  0.18302  0.90949  1.0000
  H   H127      1.0  0.16077  0.15917  0.56949  1.0000
  H   H128      1.0  0.09264  0.04301  0.95603  1.0000
  S   S23       1.0  0.16247  0.10632  0.95987  1.0000
  N   N8        1.0  0.21630  0.20268  0.89811  1.0000
  H   H129      1.0  0.09254  0.02205  0.73091  1.0000
  C   C74       1.0  0.22708  0.32786  0.87128  1.0000
  S   S24       1.0  0.17286  0.28491  0.49080  1.0000
  H   H130      1.0  0.22341  0.24755  0.90379  1.0000
  C   C75       1.0  0.19872  0.29657  0.55927  1.0000
  H   H131      1.0  0.20812  0.22519  0.92384  1.0000
  Fe  Fe12      1.0  0.08041  0.02665  0.83763  1.0000
  S   S25       1.0  0.06312  0.05023  0.84900  1.0000
  H   H132      1.0  0.21544  0.25632  0.52798  1.0000
  Fe  Fe13      1.0  0.08301  0.01557  0.89991  1.0000
  S   S26       1.0  0.06530  0.03769  0.91436  1.0000
  H   H133      1.0  0.00423  0.01496  0.82302  1.0000
  Fe  Fe14      1.0  0.04862  0.03159  0.87671  1.0000
  S   S27       1.0  0.01982  0.02374  0.87754  1.0000
  Fe  Fe15      1.0  0.08169  0.05426  0.88577  1.0000
  S   S28       1.0  0.09093  0.08098  0.90235  1.0000
  S   S29       1.0  0.06546  0.00797  0.86419  1.0000
  S   S30       1.0  0.09997  0.03216  0.87237  1.0000
  H   H134      1.0  0.13959  0.15323  0.58431  1.0000
  S   S31       1.0  0.23521  0.14756  0.93490  1.0000
  H   H135      1.0  0.23113  0.26831  0.50891  1.0000
  C   C76       1.0  0.18354  0.19435  0.89926  1.0000
  H   H136      1.0  0.00878  0.06094  0.87042  1.0000
  H   H137      1.0  0.22759  0.15753  0.66450  1.0000
  H   H138      1.0  0.24600  0.25451  0.82488  1.0000
  C   C77       1.0  0.22226  0.15317  0.59309  1.0000
  H   H139      1.0  0.23909  0.23090  0.89613  1.0000
  H   H140      1.0  0.14749  0.03531  0.48832  1.0000
  C   C78       1.0  0.21865  0.15791  0.62120  1.0000
  H   H141      1.0  0.20951  0.27737  0.51193  1.0000
  H   H142      1.0  0.21080  0.07959  0.85481  1.0000
  H   H143      1.0  0.20629  0.16455  0.62618  1.0000
  H   H144      1.0  0.22248  0.07577  0.88634  1.0000
  H   H145      1.0  0.16418  0.11895  0.86656  1.0000
  C   C79       1.0  0.21893  0.14653  0.85332  1.0000
  C   C80       1.0  0.21885  0.14770  0.88280  1.0000
  H   H146      1.0  0.20661  0.14652  0.84195  1.0000
  H   H147      1.0  0.20651  0.14851  0.89393  1.0000
  C   C81       1.0  0.14270  0.10007  0.94249  1.0000
  C   C82       1.0  0.14178  0.08295  0.93137  1.0000
  C   C83       1.0  0.12638  0.07712  0.91813  1.0000
  C   C84       1.0  0.11135  0.08813  0.91654  1.0000
  C   C85       1.0  0.11231  0.10530  0.92741  1.0000
  C   C86       1.0  0.12787  0.11129  0.94007  1.0000
  H   H148      1.0  0.15298  0.07399  0.93340  1.0000
  H   H149      1.0  0.12598  0.06392  0.90979  1.0000
  H   H150      1.0  0.10086  0.11404  0.92621  1.0000
  H   H151      1.0  0.12825  0.12448  0.94846  1.0000
  H   H152      1.0  0.16704  0.10796  0.89881  1.0000
  C   C87       1.0  0.21980  0.26979  0.52350  1.0000
  C   C88       1.0  0.03511  0.02291  0.79691  1.0000
  C   C89       1.0  0.23831  0.14450  0.58720  1.0000
  H   H153      1.0  0.21338  0.18354  0.86468  1.0000
  H   H154      1.0  0.20060  0.19628  0.93464  1.0000
  C   C90       1.0  0.06776  0.01086  0.50629  1.0000
  H   H155      1.0  0.02629  0.04658  0.77130  1.0000
  C   C91       1.0  0.24768  0.19162  0.67663  1.0000
  C   C92       1.0  0.21570  0.08632  0.87389  1.0000
  H   H156      1.0  0.09439  0.08143  0.98012  1.0000
  H   H157      1.0  0.04632  0.01488  0.74383  1.0000
  S   S32       1.0  0.19620  0.31720  0.93359  1.0000
  N   N9        1.0  0.21195  0.28371  0.57191  1.0000
  H   H158      1.0  0.20131  0.11660  0.58175  1.0000
  H   H159      1.0  0.07230  0.06573  0.95359  1.0000
  H   H160      1.0  0.15644  0.23493  0.95688  1.0000
  C   C93       1.0  0.22082  0.29314  0.59575  1.0000
  H   H161      1.0  0.22617  0.19378  0.95631  1.0000
  H   H162      1.0  0.17790  0.20785  0.90188  1.0000
  S   S33       1.0  0.23409  0.14139  0.80182  1.0000
  H   H163      1.0  0.24537  0.27774  0.89556  1.0000
  H   H164      1.0  0.22468  0.10820  0.84752  1.0000
  H   H165      1.0  0.12411  0.05779  0.49200  1.0000
  H   H166      1.0  0.24005  0.29061  0.62937  1.0000
  S   S34       1.0  0.17690  0.16716  0.50196  1.0000
  H   H167      1.0  0.06065  0.00752  0.95308  1.0000
  C   C94       1.0  0.19585  0.21962  0.98155  1.0000
  H   H168      1.0  0.14130  0.09013  0.51308  1.0000
  C   C95       1.0  0.01799  0.01364  0.75425  1.0000
  C   C96       1.0  0.08670  0.00976  0.73647  1.0000
  Fe  Fe16      1.0  0.17544  0.13191  0.97453  1.0000
  H   H169      1.0  0.18316  0.19037  0.87689  1.0000
  C   C97       1.0  0.23506  0.20172  0.94345  1.0000
  H   H170      1.0  0.18801  0.26334  0.54377  1.0000
  H   H171      1.0  0.13126  0.09677  0.54553  1.0000
  S   S35       1.0  0.21870  0.16942  0.48596  1.0000
  C   C98       1.0  0.23397  0.19966  0.85127  1.0000
  H   H172      1.0  0.19257  0.10262  0.55558  1.0000
  S   S36       1.0  0.16721  0.19921  0.96929  1.0000
  H   H173      1.0  0.11448  0.02212  0.98071  1.0000
  C   C99       1.0  0.22987  0.09890  0.86362  1.0000
  H   H174      1.0  0.04963  0.04160  0.77131  1.0000
  C   C100      1.0  0.23637  0.28327  0.61013  1.0000
  H   H175      1.0  0.23275  0.21589  0.94780  1.0000
  H   H176      1.0  0.23165  0.19733  0.82853  1.0000
  H   H177      1.0  0.13479  0.99967  0.49244  1.0000
  C   C101      1.0  0.03738  0.04137  0.78399  1.0000
  N   N10       1.0  0.15751  0.12170  0.55970  1.0000
  C   C102      1.0  0.15757  0.10741  0.53764  1.0000
  C   C103      1.0  0.17636  0.12634  0.56474  1.0000
  C   C104      1.0  0.14763  0.13741  0.54753  1.0000
  C   C105      1.0  0.14860  0.11510  0.58579  1.0000
  C   C106      1.0  0.13938  0.10134  0.52783  1.0000
  C   C107      1.0  0.18890  0.11108  0.57376  1.0000
  C   C108      1.0  0.14743  0.15448  0.56487  1.0000
  C   C109      1.0  0.15320  0.12406  0.61397  1.0000
  H   H178      1.0  0.16490  0.11156  0.51859  1.0000
  H   H179      1.0  0.16460  0.09534  0.54533  1.0000
  H   H180      1.0  0.17759  0.13664  0.58093  1.0000
  H   H181      1.0  0.00520  0.04536  0.80753  1.0000
  H   H182      1.0  0.15305  0.14069  0.52651  1.0000
  H   H183      1.0  0.13359  0.13452  0.54396  1.0000
  H   H184      1.0  0.13405  0.11597  0.58328  1.0000
  H   H185      1.0  0.15202  0.10089  0.58883  1.0000
  C   C110      1.0  0.12666  0.28725  0.48511  1.0000
  H   H186      1.0  0.13207  0.11168  0.51586  1.0000
  C   C111      1.0  0.24681  0.14527  0.63720  1.0000
  H   H187      1.0  0.13519  0.29283  0.50152  1.0000
  H   H188      1.0  0.24487  0.20344  0.90166  1.0000
  H   H189      1.0  0.19946  0.22552  0.89004  1.0000
  H   H190      1.0  0.17089  0.22045  0.49489  1.0000
  H   H191      1.0  0.18944  0.24520  0.56694  1.0000
  C   C112      1.0  0.21657  0.19763  0.86735  1.0000
  H   H192      1.0  0.14140  0.12429  0.62771  1.0000
  H   H193      1.0  0.15739  0.13777  0.61243  1.0000
  H   H194      1.0  0.16334  0.11615  0.62553  1.0000
  H   H195      1.0  0.03378  0.02465  0.82003  1.0000
  H   H196      1.0  0.04795  0.01573  0.79406  1.0000
  S   S37       1.0  0.20866  0.27067  0.97332  1.0000
  H   H197      1.0  0.20578  0.17818  0.91256  1.0000
  H   H198      1.0  0.21389  0.25673  0.58609  1.0000
  C   C113      1.0  0.23079  0.15403  0.64305  1.0000
  C   C114      1.0  0.23351  0.19740  0.91193  1.0000
  H   H199      1.0  0.22372  0.23800  0.86904  1.0000
  H   H200      1.0  0.24395  0.18956  0.85801  1.0000
  H   H201      1.0  0.18995  0.31407  0.59362  1.0000
  C   C115      1.0  0.22587  0.27915  0.55033  1.0000
  H   H202      1.0  0.17207  0.26316  0.95849  1.0000
  H   H203      1.0  0.22583  0.30585  0.58834  1.0000
  C   C116      1.0  0.23469  0.14720  0.89772  1.0000
  H   H204      1.0  0.21231  0.08426  0.94604  1.0000
  H   H205      1.0  0.21656  0.31849  0.83209  1.0000
  H   H206      1.0  0.06395  0.02286  0.51716  1.0000
  S   S38       1.0  0.21549  0.31457  0.49153  1.0000
  C   C117      1.0  0.20373  0.26741  0.58334  1.0000
  H   H207      1.0  0.19175  0.29102  0.54115  1.0000
  C   C118      1.0  0.08252  0.00652  0.76481  1.0000
  H   H208      1.0  0.12032  0.02887  0.94623  1.0000
  H   H209      1.0  0.18333  0.10305  0.59075  1.0000
  H   H210      1.0  0.14080  0.16504  0.55228  1.0000
  C   C119      1.0  0.22536  0.23511  0.89176  1.0000
  H   H211      1.0  0.03203  0.01253  0.71437  1.0000
  N   N11       1.0  0.02033  0.01211  0.78566  1.0000
  H   H212      1.0  0.24060  0.09109  0.85329  1.0000
  N   N12       1.0  0.20060  0.09462  0.89014  1.0000
  C   C120      1.0  0.11625  0.02262  0.49619  1.0000
  C   C121      1.0  0.18937  0.08016  0.90110  1.0000
  C   C122      1.0  0.20701  0.10510  0.91476  1.0000
  C   C123      1.0  0.19039  0.10679  0.87079  1.0000
  H   H213      1.0  0.17738  0.12859  0.89383  1.0000
  C   C124      1.0  0.17774  0.07112  0.87918  1.0000
  C   C125      1.0  0.21919  0.09504  0.93547  1.0000
  C   C126      1.0  0.17393  0.11610  0.88345  1.0000
  H   H214      1.0  0.20621  0.20514  0.85550  1.0000
  C   C127      1.0  0.03430  0.00844  0.73651  1.0000
  H   H215      1.0  0.18065  0.08496  0.91834  1.0000
  H   H216      1.0  0.19766  0.06961  0.91109  1.0000
  H   H217      1.0  0.21398  0.11683  0.90766  1.0000
  H   H218      1.0  0.19574  0.11048  0.92729  1.0000
  H   H219      1.0  0.19878  0.11753  0.86353  1.0000
  H   H220      1.0  0.18666  0.10017  0.85089  1.0000
  H   H221      1.0  0.00708  0.00528  0.74709  1.0000
  C   C128      1.0  0.23480  0.14495  0.83845  1.0000
  H   H222      1.0  0.17131  0.05984  0.88925  1.0000
  H   H223      1.0  0.16700  0.08009  0.87157  1.0000
  H   H224      1.0  0.18544  0.06593  0.86112  1.0000
  H   H225      1.0  0.22337  0.10425  0.95211  1.0000
  H   H226      1.0  0.17840  0.29359  0.59209  1.0000
  H   H227      1.0  0.01374  0.02700  0.74765  1.0000
  H   H228      1.0  0.17396  0.31070  0.56704  1.0000
  H   H229      1.0  0.20552  0.30801  0.55035  1.0000
  Fe  Fe17      1.0  0.20110  0.29998  0.97144  1.0000
  C   C129      1.0  0.18841  0.25977  0.56621  1.0000
  H   H230      1.0  0.17461  0.18558  0.91068  1.0000
  C   C130      1.0  0.18452  0.30397  0.57949  1.0000
  C   C131      1.0  0.20472  0.23556  0.98213  1.0000
  H   H231      1.0  0.21131  0.29651  0.61280  1.0000
  C   C132      1.0  0.00320  0.01699  0.79998  1.0000
  Fe  Fe18      1.0  0.17988  0.17227  0.97841  1.0000
  H   H232      1.0  0.23602  0.10625  0.88096  1.0000
  H   H233      1.0  0.23140  0.08993  0.92534  1.0000
  S   S39       1.0  0.08700  0.02288  0.79064  1.0000
  H   H234      1.0  0.03915  0.05104  0.80114  1.0000
  C   C133      1.0  0.17229  0.24882  0.49339  1.0000
  H   H235      1.0  0.12219  0.02833  0.51543  1.0000
  H   H236      1.0  0.17557  0.26340  0.57597  1.0000
  H   H237      1.0  0.19832  0.27009  0.60472  1.0000
  H   H238      1.0  0.13060  0.32398  0.51768  1.0000
  H   H239      1.0  0.18197  0.13221  0.54547  1.0000
  C   C134      1.0  0.20212  0.19243  0.91225  1.0000
  H   H240      1.0  0.10863  0.05912  0.95487  1.0000
  H   H241      1.0  0.16265  0.25091  0.50983  1.0000
  C   C135      1.0  0.06854  0.00290  0.97063  1.0000
  C   C136      1.0  0.11827  0.03358  0.96812  1.0000
  C   C137      1.0  0.21171  0.22195  0.90173  1.0000
  C   C138      1.0  0.24110  0.33122  0.82557  1.0000
  S   S40       1.0  0.20023  0.13093  0.49191  1.0000
  H   H242      1.0  0.16789  0.32768  0.85162  1.0000
  H   H243      1.0  0.23622  0.27023  0.55934  1.0000
  H   H244      1.0  0.13107  0.03828  0.97565  1.0000
  C   C139      1.0  0.09656  0.05533  0.48322  1.0000
  H   H245      1.0  0.09428  0.05254  0.50579  1.0000
  C   C140      1.0  0.10387  0.04828  0.96799  1.0000
  C   C141      1.0  0.17696  0.23152  0.48505  1.0000
  C   C142      1.0  0.12071  0.00279  0.49626  1.0000
  S   S41       1.0  0.24002  0.32895  0.78870  1.0000
  H   H246      1.0  0.24306  0.27895  0.84645  1.0000
  H   H247      1.0  0.23935  0.21289  0.85342  1.0000
  H   H248      1.0  0.10682  0.30782  0.48653  1.0000
  H   H249      1.0  0.23264  0.29125  0.54363  1.0000
  H   H250      1.0  0.24137  0.14070  0.56582  1.0000
  H   H251      1.0  0.08670  0.00007  0.69360  1.0000
  C   C143      1.0  0.06966  0.06951  0.97568  1.0000
  H   H252      1.0  0.06249  0.08242  0.97495  1.0000
  H   H253      1.0  0.11785  0.27809  0.49597  1.0000
  H   H254      1.0  0.21624  0.32334  0.88362  1.0000
  C   C144      1.0  0.16993  0.23507  0.96409  1.0000
  H   H255      1.0  0.01845  0.00782  0.50283  1.0000
  C   C145      1.0  0.17846  0.21922  0.97215  1.0000
  H   H256      1.0  0.23326  0.19181  0.67303  1.0000
  C   C146      1.0  0.17873  0.25110  0.96505  1.0000
  C   C147      1.0  0.22729  0.32510  0.84205  1.0000
  H   H257      1.0  0.23789  0.28564  0.80304  1.0000
  C   C148      1.0  0.19626  0.25136  0.97379  1.0000
  C   C149      1.0  0.99905  0.03487  0.87478  1.0000
  H   H258      1.0  0.24823  0.28288  0.59659  1.0000
  H   H259      1.0  0.13170  0.06834  0.98225  1.0000
  Fe  Fe19      1.0  0.07418  0.52911  0.13476  1.0000
  S   S42       1.0  0.07125  0.55725  0.11921  1.0000
  S   S43       1.0  0.07030  0.52463  0.18242  1.0000
  Fe  Fe20      1.0  0.07779  0.51546  0.07374  1.0000
  S   S44       1.0  0.07499  0.54223  0.05492  1.0000
  S   S45       1.0  0.08116  0.49117  0.04627  1.0000
  Fe  Fe21      1.0  0.09351  0.55088  0.08880  1.0000
  S   S46       1.0  0.11999  0.56391  0.07895  1.0000
  Fe  Fe22      1.0  0.05307  0.54619  0.08650  1.0000
  S   S47       1.0  0.02662  0.55613  0.06908  1.0000
  S   S48       1.0  0.09741  0.52341  0.10651  1.0000
  S   S49       1.0  0.05489  0.51874  0.10327  1.0000
  Fe  Fe23      1.0  0.17982  0.63891  0.00299  1.0000
  H   H260      1.0  0.18428  0.59346  0.12405  1.0000
  S   S50       1.0  0.15204  0.63060  0.01604  1.0000
  Fe  Fe24      1.0  0.20602  0.64802  0.45610  1.0000
  S   S51       1.0  0.21083  0.64115  0.40932  1.0000
  Fe  Fe25      1.0  0.21817  0.63759  0.01932  1.0000
  H   H261      1.0  0.24287  0.66225  0.40900  1.0000
  H   H262      1.0  0.23063  0.33700  0.15708  1.0000
  H   H263      1.0  0.16306  0.61079  0.15041  1.0000
  H   H264      1.0  0.20184  0.61038  0.07221  1.0000
  H   H265      1.0  0.12612  0.57209  0.00264  1.0000
  C   C150      1.0  0.22166  0.33688  0.11376  1.0000
  C   C151      1.0  0.12569  0.55945  0.99107  1.0000
  H   H266      1.0  0.12813  0.39632  0.46971  1.0000
  H   H267      1.0  0.20844  0.34129  0.11904  1.0000
  C   C152      1.0  0.11371  0.52931  0.46800  1.0000
  Fe  Fe26      1.0  0.08088  0.46408  0.32522  1.0000
  S   S52       1.0  0.07343  0.43617  0.33233  1.0000
  S   S53       1.0  0.08977  0.46848  0.27943  1.0000
  Fe  Fe27      1.0  0.07489  0.47175  0.38829  1.0000
  S   S54       1.0  0.06712  0.44410  0.39872  1.0000
  S   S55       1.0  0.07445  0.49529  0.41785  1.0000
  Fe  Fe28      1.0  0.09033  0.43588  0.37127  1.0000
  S   S56       1.0  0.11148  0.41339  0.37231  1.0000
  Fe  Fe29      1.0  0.05109  0.44667  0.35877  1.0000
  S   S57       1.0  0.02423  0.43701  0.34528  1.0000
  S   S58       1.0  0.09884  0.46352  0.36305  1.0000
  S   S59       1.0  0.05764  0.47461  0.34974  1.0000
  H   H268      1.0  0.20783  0.34433  0.33429  1.0000
  H   H269      1.0  0.01386  0.45280  0.29246  1.0000
  H   H270      1.0  0.04178  0.48719  0.06537  1.0000
  C   C153      1.0  0.00225  0.44887  0.38832  1.0000
  H   H271      1.0  0.01402  0.45064  0.40063  1.0000
  H   H272      1.0  0.09950  0.52665  0.46574  1.0000
  C   C154      1.0  0.04386  0.46424  0.26844  1.0000
  H   H273      1.0  0.11645  0.53733  0.44906  1.0000
  H   H274      1.0  0.24555  0.37349  0.27837  1.0000
  H   H275      1.0  0.04438  0.49578  0.30161  1.0000
  C   C155      1.0  0.23563  0.33188  0.38733  1.0000
  C   C156      1.0  0.03341  0.50622  0.02105  1.0000
  H   H276      1.0  0.10611  0.35344  0.42291  1.0000
  C   C157      1.0  0.00512  0.54865  0.11429  1.0000
  C   C158      1.0  0.14415  0.38227  0.43933  1.0000
  C   C159      1.0  0.13078  0.39441  0.44758  1.0000
  C   C160      1.0  0.12081  0.40416  0.42756  1.0000
  C   C161      1.0  0.12391  0.40181  0.39881  1.0000
  C   C162      1.0  0.13723  0.38959  0.39052  1.0000
  C   C163      1.0  0.14732  0.37996  0.41056  1.0000
  C   C164      1.0  0.02734  0.49213  0.26461  1.0000
  H   H277      1.0  0.11064  0.41343  0.43440  1.0000
  H   H278      1.0  0.13977  0.38757  0.36840  1.0000
  H   H279      1.0  0.15747  0.37067  0.40376  1.0000
  C   C165      1.0  0.22662  0.64641  0.38284  1.0000
  H   H280      1.0  0.15477  0.52321  0.01684  1.0000
  N   N13       1.0  0.12824  0.52573  0.00079  1.0000
  H   H281      1.0  0.03963  0.43843  0.24831  1.0000
  H   H282      1.0  0.02245  0.51826  0.06713  1.0000
  H   H283      1.0  0.12760  0.52684  0.06156  1.0000
  C   C166      1.0  0.22484  0.63927  0.35568  1.0000
  C   C167      1.0  0.12609  0.54418  0.01237  1.0000
  H   H284      1.0  0.11232  0.56464  0.47472  1.0000
  C   C168      1.0  0.04517  0.44400  0.26777  1.0000
  H   H285      1.0  0.24408  0.59096  0.39815  1.0000
  H   H286      1.0  0.03826  0.46100  0.21138  1.0000
  H   H287      1.0  0.15583  0.63185  0.13991  1.0000
  H   H288      1.0  0.02272  0.47490  0.06892  1.0000
  C   C169      1.0  0.07911  0.49188  0.00918  1.0000
  C   C170      1.0  0.24122  0.65665  0.38832  1.0000
  H   H289      1.0  0.18914  0.65612  0.13166  1.0000
  C   C171      1.0  0.07354  0.49379  0.45493  1.0000
  C   C172      1.0  0.01536  0.46727  0.29199  1.0000
  C   C173      1.0  0.12297  0.51118  0.46476  1.0000
  H   H290      1.0  0.07220  0.51944  0.00668  1.0000
  H   H291      1.0  0.08387  0.46725  0.45760  1.0000
  H   H292      1.0  0.06312  0.52026  0.45947  1.0000
  H   H293      1.0  0.08558  0.46430  0.00425  1.0000
  C   C174      1.0  0.07612  0.50880  0.20892  1.0000
  C   C175      1.0  0.08523  0.49298  0.20300  1.0000
  C   C176      1.0  0.08937  0.48093  0.22483  1.0000
  C   C177      1.0  0.08447  0.48443  0.25288  1.0000
  C   C178      1.0  0.07541  0.50025  0.25880  1.0000
  C   C179      1.0  0.07124  0.51228  0.23699  1.0000
  H   H294      1.0  0.08912  0.49006  0.18162  1.0000
  H   H295      1.0  0.09641  0.46878  0.21986  1.0000
  H   H296      1.0  0.07189  0.50338  0.28024  1.0000
  H   H297      1.0  0.06434  0.52452  0.24196  1.0000
  C   C180      1.0  0.12835  0.58229  0.06025  1.0000
  C   C181      1.0  0.14652  0.58268  0.05459  1.0000
  C   C182      1.0  0.15394  0.59706  0.04053  1.0000
  C   C183      1.0  0.14332  0.61147  0.03222  1.0000
  C   C184      1.0  0.12513  0.61099  0.03761  1.0000
  C   C185      1.0  0.11768  0.59651  0.05135  1.0000
  H   H298      1.0  0.15496  0.57179  0.06125  1.0000
  H   H299      1.0  0.16791  0.59708  0.03641  1.0000
  H   H300      1.0  0.11672  0.62199  0.03130  1.0000
  H   H301      1.0  0.10371  0.59652  0.05548  1.0000
  C   C186      1.0  0.00625  0.55193  0.08548  1.0000
  H   H302      1.0  0.12175  0.49950  0.01494  1.0000
  C   C187      1.0  0.12054  0.51339  0.02199  1.0000
  H   H303      1.0  0.01692  0.54838  0.12700  1.0000
  C   C188      1.0  0.01244  0.50897  0.05962  1.0000
  H   H304      1.0  0.03902  0.43808  0.28646  1.0000
  C   C189      1.0  0.23620  0.63460  0.08680  1.0000
  C   C190      1.0  0.16083  0.61914  0.13144  1.0000
  S   S60       1.0  0.23621  0.62545  0.05265  1.0000
  C   C191      1.0  0.24374  0.62491  0.10906  1.0000
  S   S61       1.0  0.20199  0.62008  0.99185  1.0000
  H   H305      1.0  0.00189  0.51734  0.04973  1.0000
  C   C192      1.0  0.03221  0.50146  0.29218  1.0000
  H   H306      1.0  0.24732  0.39445  0.29452  1.0000
  N   N14       1.0  0.02564  0.47247  0.26646  1.0000
  H   H307      1.0  0.24035  0.61509  0.46665  1.0000
  C   C193      1.0  0.03071  0.48170  0.05311  1.0000
  H   H308      1.0  0.16133  0.65406  0.11381  1.0000
  H   H309      1.0  0.24741  0.38174  0.35826  1.0000
  H   H310      1.0  0.19399  0.61795  0.15259  1.0000
  H   H311      1.0  0.14250  0.50877  0.05187  1.0000
  H   H312      1.0  0.13304  0.61358  0.12657  1.0000
  H   H313      1.0  0.20273  0.58767  0.08115  1.0000
  H   H314      1.0  0.22960  0.58491  0.44752  1.0000
  C   C194      1.0  0.06777  0.50858  0.47043  1.0000
  H   H315      1.0  0.04564  0.45721  0.04720  1.0000
  C   C195      1.0  0.24048  0.60128  0.41362  1.0000
  C   C196      1.0  0.02578  0.46886  0.21258  1.0000
  H   H316      1.0  0.05929  0.43986  0.26837  1.0000
  C   C197      1.0  0.12865  0.51367  0.05170  1.0000
  H   H317      1.0  0.99868  0.50062  0.00977  1.0000
  H   H318      1.0  0.02843  0.48288  0.20860  1.0000
  H   H319      1.0  0.03758  0.49554  0.24900  1.0000
  H   H320      1.0  0.20458  0.62815  0.12393  1.0000
  H   H321      1.0  0.05238  0.46904  0.25132  1.0000
  H   H322      1.0  0.21251  0.60285  0.10434  1.0000
  H   H323      1.0  0.02034  0.53268  0.02073  1.0000
  H   H324      1.0  0.11355  0.54577  0.02435  1.0000
  H   H325      1.0  0.14380  0.61714  0.09382  1.0000
  H   H326      1.0  0.17365  0.59716  0.09129  1.0000
  C   C198      1.0  0.16347  0.64899  0.09235  1.0000
  H   H327      1.0  0.23797  0.37625  0.31353  1.0000
  N   N15       1.0  0.17776  0.62089  0.11536  1.0000
  C   C199      1.0  0.18348  0.60266  0.10586  1.0000
  Fe  Fe30      1.0  0.21409  0.33266  0.45390  1.0000
  C   C200      1.0  0.19177  0.62737  0.13493  1.0000
  C   C201      1.0  0.17590  0.63259  0.08986  1.0000
  C   C202      1.0  0.20117  0.60110  0.09008  1.0000
  H   H328      1.0  0.15065  0.64654  0.08211  1.0000
  Fe  Fe31      1.0  0.17906  0.34988  0.47010  1.0000
  S   S62       1.0  0.15576  0.36989  0.46585  1.0000
  C   C203      1.0  0.14739  0.52068  0.99713  1.0000
  N   N16       1.0  0.02044  0.49628  0.03844  1.0000
  C   C204      1.0  0.00363  0.44286  0.36063  1.0000
  H   H329      1.0  0.03715  0.52929  0.99522  1.0000
  H   H330      1.0  0.14727  0.59675  0.11279  1.0000
  H   H331      1.0  0.14936  0.50625  0.99400  1.0000
  H   H332      1.0  0.18903  0.63714  0.08325  1.0000
  H   H333      1.0  0.17087  0.62497  0.07173  1.0000
  C   C205      1.0  0.24459  0.63211  0.13624  1.0000
  C   C206      1.0  0.14552  0.61122  0.11490  1.0000
  C   C207      1.0  0.23446  0.33470  0.32816  1.0000
  C   C208      1.0  0.23755  0.64894  0.14151  1.0000
  C   C209      1.0  0.23737  0.64223  0.33436  1.0000
  H   H334      1.0  0.14493  0.33464  0.46155  1.0000
  C   C210      1.0  0.14541  0.55309  0.47661  1.0000
  C   C211      1.0  0.22513  0.59424  0.43099  1.0000
  H   H335      1.0  0.21366  0.63133  0.35105  1.0000
  C   C212      1.0  0.22901  0.65138  0.09214  1.0000
  C   C213      1.0  0.22026  0.33803  0.37400  1.0000
  H   H336      1.0  0.12128  0.50460  0.06528  1.0000
  H   H337      1.0  0.24162  0.63143  0.44024  1.0000
  C   C214      1.0  0.07936  0.47870  0.46930  1.0000
  C   C215      1.0  0.07451  0.50744  0.99502  1.0000
  H   H338      1.0  0.04462  0.51039  0.03436  1.0000
  N   N17       1.0  0.13211  0.42717  0.28760  1.0000
  C   C216      1.0  0.12769  0.40877  0.29626  1.0000
  C   C217      1.0  0.15148  0.42748  0.28122  1.0000
  C   C218      1.0  0.12196  0.43288  0.26179  1.0000
  C   C219      1.0  0.12730  0.43958  0.31127  1.0000
  C   C220      1.0  0.10798  0.40495  0.29822  1.0000
  C   C221      1.0  0.16384  0.42327  0.30623  1.0000
  C   C222      1.0  0.12439  0.42106  0.23566  1.0000
  C   C223      1.0  0.13385  0.45851  0.30831  1.0000
  H   H339      1.0  0.13382  0.39883  0.28187  1.0000
  H   H340      1.0  0.13328  0.40565  0.31739  1.0000
  H   H341      1.0  0.15506  0.44038  0.27223  1.0000
  H   H342      1.0  0.15505  0.41768  0.26470  1.0000
  H   H343      1.0  0.10763  0.43416  0.26638  1.0000
  H   H344      1.0  0.12565  0.44624  0.25507  1.0000
  H   H345      1.0  0.11278  0.44076  0.31370  1.0000
  H   H346      1.0  0.13217  0.43440  0.33180  1.0000
  H   H347      1.0  0.10646  0.39153  0.30682  1.0000
  H   H348      1.0  0.10112  0.41407  0.31282  1.0000
  H   H349      1.0  0.10135  0.40539  0.27749  1.0000
  H   H350      1.0  0.16177  0.43240  0.32413  1.0000
  H   H351      1.0  0.16254  0.40957  0.31364  1.0000
  H   H352      1.0  0.17767  0.42456  0.29927  1.0000
  H   H353      1.0  0.11513  0.42580  0.21905  1.0000
  H   H354      1.0  0.12143  0.40716  0.23980  1.0000
  H   H355      1.0  0.13780  0.42190  0.22681  1.0000
  H   H356      1.0  0.14836  0.45903  0.30894  1.0000
  H   H357      1.0  0.12893  0.46650  0.32629  1.0000
  H   H358      1.0  0.12887  0.46511  0.28905  1.0000
  C   C224      1.0  0.02612  0.52285  0.00597  1.0000
  H   H359      1.0  0.12407  0.50798  0.44203  1.0000
  C   C225      1.0  0.03846  0.46706  0.03396  1.0000
  H   H360      1.0  0.05041  0.46828  0.28818  1.0000
  H   H361      1.0  0.03466  0.51548  0.28765  1.0000
  C   C226      1.0  0.21971  0.33947  0.34448  1.0000
  S   S63       1.0  0.22675  0.65397  0.98283  1.0000
  S   S64       1.0  0.23337  0.33655  0.29116  1.0000
  H   H362      1.0  0.13666  0.54691  0.02785  1.0000
  H   H363      1.0  0.19943  0.64826  0.16285  1.0000
  H   H364      1.0  0.10621  0.51630  0.02453  1.0000
  S   S65       1.0  0.19592  0.65599  0.03145  1.0000
  H   H365      1.0  0.14379  0.54723  0.45550  1.0000
  C   C227      1.0  0.11675  0.34654  0.43493  1.0000
  H   H366      1.0  0.23508  0.61225  0.40052  1.0000
  H   H367      1.0  0.17627  0.64688  0.16012  1.0000
  C   C228      1.0  0.00458  0.50123  0.08658  1.0000
  C   C229      1.0  0.01616  0.46619  0.24073  1.0000
  S   S66       1.0  0.18225  0.66411  0.47085  1.0000
  H   H368      1.0  0.02260  0.46997  0.31181  1.0000
  H   H369      1.0  0.20889  0.34188  0.38643  1.0000
  H   H370      1.0  0.01512  0.49867  0.25645  1.0000
  H   H371      1.0  0.02143  0.50117  0.30780  1.0000
  S   S67       1.0  0.20918  0.33637  0.05907  1.0000
  H   H372      1.0  0.21733  0.60522  0.44062  1.0000
  H   H373      1.0  0.23571  0.63658  0.31371  1.0000
  C   C230      1.0  0.08199  0.47642  0.99355  1.0000
  C   C231      1.0  0.18859  0.64571  0.14787  1.0000
  H   H374      1.0  0.01732  0.46435  0.19515  1.0000
  H   H375      1.0  0.04817  0.47198  0.01886  1.0000
  H   H376      1.0  0.11524  0.50082  0.47503  1.0000
  H   H377      1.0  0.16911  0.65988  0.08013  1.0000
  H   H378      1.0  0.12886  0.34743  0.42238  1.0000
  H   H379      1.0  0.01512  0.49628  0.10094  1.0000
  H   H380      1.0  0.11846  0.35411  0.45462  1.0000
  H   H381      1.0  0.13662  0.51066  0.47263  1.0000
  H   H382      1.0  0.01311  0.45204  0.24256  1.0000
  S   S68       1.0  0.23715  0.65779  0.17579  1.0000
  H   H383      1.0  0.21602  0.58732  0.41682  1.0000
  H   H384      1.0  0.02810  0.46004  0.02252  1.0000
  S   S69       1.0  0.20711  0.35686  0.47961  1.0000
  H   H385      1.0  0.01257  0.48298  0.00009  1.0000
  H   H386      1.0  0.03923  0.49777  0.00423  1.0000
  H   H387      1.0  0.22324  0.65904  0.07521  1.0000
  H   H388      1.0  0.14103  0.56712  0.47648  1.0000
  H   H389      1.0  0.01642  0.51966  0.98950  1.0000
  C   C232      1.0  0.22953  0.65843  0.11945  1.0000
  H   H390      1.0  0.08394  0.55231  0.46673  1.0000
  C   C233      1.0  0.00659  0.48951  0.01891  1.0000
  H   H391      1.0  0.00311  0.47306  0.23874  1.0000
  C   C234      1.0  0.22599  0.33369  0.08536  1.0000
  C   C235      1.0  0.23424  0.33442  0.13547  1.0000
  H   H392      1.0  0.99850  0.46832  0.04805  1.0000
  Fe  Fe32      1.0  0.20616  0.33137  0.01133  1.0000
  H   H393      1.0  0.15973  0.55295  0.48119  1.0000
  C   C236      1.0  0.24832  0.38014  0.29861  1.0000
  Fe  Fe33      1.0  0.07740  0.52897  0.64001  1.0000
  S   S70       1.0  0.07537  0.55778  0.62843  1.0000
  S   S71       1.0  0.07243  0.51937  0.68536  1.0000
  Fe  Fe34      1.0  0.07474  0.51839  0.57734  1.0000
  S   S72       1.0  0.07149  0.54618  0.56207  1.0000
  S   S73       1.0  0.07640  0.49332  0.55147  1.0000
  Fe  Fe35      1.0  0.09379  0.55202  0.59176  1.0000
  S   S74       1.0  0.11990  0.56394  0.57599  1.0000
  Fe  Fe36      1.0  0.05342  0.54981  0.59943  1.0000
  S   S75       1.0  0.02705  0.56479  0.60205  1.0000
  S   S76       1.0  0.09751  0.52367  0.60594  1.0000
  S   S77       1.0  0.05498  0.52157  0.61198  1.0000
  Fe  Fe37      1.0  0.17939  0.64332  0.50491  1.0000
  H   H394      1.0  0.21377  0.34741  0.62332  1.0000
  S   S78       1.0  0.15266  0.63298  0.52032  1.0000
  Fe  Fe38      1.0  0.20851  0.63855  0.95614  1.0000
  S   S79       1.0  0.21284  0.63129  0.90947  1.0000
  Fe  Fe39      1.0  0.21865  0.64265  0.51709  1.0000
  H   H395      1.0  0.06917  0.51960  0.95485  1.0000
  C   C237      1.0  0.15717  0.38366  0.84165  1.0000
  H   H396      1.0  0.00853  0.52444  0.64993  1.0000
  H   H397      1.0  0.11182  0.50653  0.93925  1.0000
  H   H398      1.0  0.11799  0.51595  0.83928  1.0000
  S   S80       1.0  0.15289  0.34496  0.94353  1.0000
  C   C238      1.0  0.19192  0.36554  0.89458  1.0000
  C   C239      1.0  0.05044  0.51471  0.84460  1.0000
  H   H399      1.0  0.12084  0.35439  0.91433  1.0000
  C   C240      1.0  0.08730  0.55648  0.48838  1.0000
  Fe  Fe40      1.0  0.08713  0.45754  0.82597  1.0000
  S   S81       1.0  0.08298  0.42886  0.83518  1.0000
  S   S82       1.0  0.09895  0.46782  0.78461  1.0000
  Fe  Fe41      1.0  0.07675  0.46799  0.88662  1.0000
  S   S83       1.0  0.07133  0.44034  0.89979  1.0000
  S   S84       1.0  0.07411  0.49296  0.91293  1.0000
  Fe  Fe42      1.0  0.09658  0.43260  0.87707  1.0000
  S   S85       1.0  0.12112  0.41881  0.89727  1.0000
  Fe  Fe43      1.0  0.05808  0.43856  0.85730  1.0000
  S   S86       1.0  0.03177  0.42635  0.84653  1.0000
  S   S87       1.0  0.10242  0.46071  0.86615  1.0000
  S   S88       1.0  0.06178  0.46678  0.84576  1.0000
  C   C241      1.0  0.01066  0.43487  0.85656  1.0000
  H   H400      1.0  0.15367  0.57915  0.61235  1.0000
  H   H401      1.0  0.17864  0.35422  0.82827  1.0000
  C   C242      1.0  0.22987  0.34040  0.58756  1.0000
  H   H402      1.0  0.01991  0.45132  0.88981  1.0000
  H   H403      1.0  0.19439  0.34411  0.85061  1.0000
  C   C243      1.0  0.08027  0.47647  0.96408  1.0000
  C   C244      1.0  0.19687  0.38011  0.84847  1.0000
  H   H404      1.0  0.19336  0.60553  0.57577  1.0000
  S   S89       1.0  0.19614  0.65839  0.53526  1.0000
  H   H405      1.0  0.19844  0.58595  0.59490  1.0000
  H   H406      1.0  0.10584  0.53911  0.53684  1.0000
  C   C245      1.0  0.00511  0.53968  0.58008  1.0000
  H   H407      1.0  0.23285  0.63616  0.81130  1.0000
  C   C246      1.0  0.14366  0.36586  0.93286  1.0000
  C   C247      1.0  0.12760  0.36646  0.91803  1.0000
  C   C248      1.0  0.12029  0.38248  0.90755  1.0000
  C   C249      1.0  0.12895  0.39824  0.91165  1.0000
  C   C250      1.0  0.14490  0.39766  0.92683  1.0000
  C   C251      1.0  0.15215  0.38167  0.93749  1.0000
  H   H408      1.0  0.15707  0.65296  0.57541  1.0000
  H   H409      1.0  0.10805  0.38259  0.89598  1.0000
  H   H410      1.0  0.15172  0.40972  0.93035  1.0000
  H   H411      1.0  0.16434  0.38156  0.94914  1.0000
  C   C252      1.0  0.22823  0.63750  0.88313  1.0000
  C   C253      1.0  0.22440  0.63418  0.85466  1.0000
  C   C254      1.0  0.23755  0.63584  0.63986  1.0000
  Fe  Fe44      1.0  0.17946  0.33487  0.96174  1.0000
  H   H412      1.0  0.17636  0.59003  0.58314  1.0000
  C   C255      1.0  0.23964  0.63365  0.58065  1.0000
  C   C256      1.0  0.16667  0.61657  0.67481  1.0000
  S   S90       1.0  0.23541  0.63650  0.67683  1.0000
  S   S91       1.0  0.21210  0.34375  0.56337  1.0000
  C   C257      1.0  0.22246  0.63825  0.62320  1.0000
  C   C258      1.0  0.22350  0.63721  0.59374  1.0000
  C   C259      1.0  0.24058  0.33694  0.88423  1.0000
  H   H413      1.0  0.11451  0.49697  0.85983  1.0000
  H   H414      1.0  0.20284  0.35550  0.89337  1.0000
  C   C260      1.0  0.07444  0.49353  0.51436  1.0000
  C   C261      1.0  0.09206  0.53493  0.81393  1.0000
  H   H415      1.0  0.19176  0.38186  0.82672  1.0000
  C   C262      1.0  0.07567  0.49204  0.94998  1.0000
  H   H416      1.0  0.10984  0.56494  0.51186  1.0000
  C   C263      1.0  0.06799  0.50838  0.49999  1.0000
  H   H417      1.0  0.08474  0.46701  0.50983  1.0000
  C   C264      1.0  0.18195  0.35211  0.85082  1.0000
  H   H418      1.0  0.08265  0.46449  0.95228  1.0000
  H   H419      1.0  0.06341  0.51981  0.51164  1.0000
  C   C265      1.0  0.08001  0.50455  0.71221  1.0000
  C   C266      1.0  0.09696  0.49693  0.71234  1.0000
  C   C267      1.0  0.10239  0.48562  0.73446  1.0000
  C   C268      1.0  0.09098  0.48163  0.75672  1.0000
  C   C269      1.0  0.07394  0.48907  0.75639  1.0000
  C   C270      1.0  0.06856  0.50050  0.73439  1.0000
  H   H420      1.0  0.10602  0.50001  0.69573  1.0000
  H   H421      1.0  0.11562  0.48001  0.73447  1.0000
  H   H422      1.0  0.06494  0.48605  0.77315  1.0000
  H   H423      1.0  0.05539  0.50624  0.73456  1.0000
  C   C271      1.0  0.12823  0.58295  0.55868  1.0000
  C   C272      1.0  0.14577  0.58250  0.54898  1.0000
  C   C273      1.0  0.15333  0.59740  0.53656  1.0000
  C   C274      1.0  0.14352  0.61318  0.53382  1.0000
  C   C275      1.0  0.12590  0.61353  0.54305  1.0000
  C   C276      1.0  0.11830  0.59858  0.55525  1.0000
  H   H424      1.0  0.15370  0.57059  0.55155  1.0000
  H   H425      1.0  0.16684  0.59678  0.52954  1.0000
  H   H426      1.0  0.11808  0.62556  0.54101  1.0000
  H   H427      1.0  0.10483  0.59930  0.56249  1.0000
  C   C277      1.0  0.10740  0.55691  0.49270  1.0000
  C   C278      1.0  0.16735  0.37942  0.86894  1.0000
  H   H428      1.0  0.08663  0.49711  0.81955  1.0000
  H   H429      1.0  0.01695  0.53243  0.57404  1.0000
  S   S92       1.0  0.24125  0.63191  0.54366  1.0000
  H   H430      1.0  0.21360  0.38124  0.91035  1.0000
  H   H431      1.0  0.11604  0.49508  0.82263  1.0000
  N   N18       1.0  0.07401  0.46413  0.63021  1.0000
  C   C279      1.0  0.08157  0.45464  0.60483  1.0000
  C   C280      1.0  0.08501  0.47999  0.63505  1.0000
  C   C281      1.0  0.05551  0.47022  0.62293  1.0000
  C   C282      1.0  0.07423  0.45160  0.65481  1.0000
  C   C283      1.0  0.07106  0.43913  0.59353  1.0000
  C   C284      1.0  0.10477  0.47617  0.64006  1.0000
  C   C285      1.0  0.04513  0.48033  0.64585  1.0000
  C   C286      1.0  0.07401  0.45976  0.68463  1.0000
  H   H432      1.0  0.08321  0.46391  0.58699  1.0000
  H   H433      1.0  0.09498  0.44914  0.60940  1.0000
  H   H434      1.0  0.08028  0.48801  0.65298  1.0000
  H   H435      1.0  0.08387  0.48901  0.61668  1.0000
  H   H436      1.0  0.05557  0.47868  0.60378  1.0000
  H   H437      1.0  0.04723  0.45892  0.61768  1.0000
  H   H438      1.0  0.06297  0.44265  0.65340  1.0000
  H   H439      1.0  0.08630  0.44296  0.65404  1.0000
  H   H440      1.0  0.06748  0.42982  0.61030  1.0000
  H   H441      1.0  0.05913  0.44382  0.58201  1.0000
  H   H442      1.0  0.07927  0.43170  0.57803  1.0000
  H   H443      1.0  0.10720  0.46605  0.65642  1.0000
  H   H444      1.0  0.11155  0.47223  0.62032  1.0000
  H   H445      1.0  0.11094  0.48842  0.64727  1.0000
  H   H446      1.0  0.04182  0.47162  0.66360  1.0000
  H   H447      1.0  0.03246  0.48524  0.63678  1.0000
  H   H448      1.0  0.05190  0.49204  0.65362  1.0000
  H   H449      1.0  0.06611  0.45150  0.69877  1.0000
  H   H450      1.0  0.06828  0.47319  0.68618  1.0000
  H   H451      1.0  0.08741  0.45944  0.69389  1.0000
  H   H452      1.0  0.15396  0.37171  0.82968  1.0000
  C   C287      1.0  0.19900  0.38150  0.91072  1.0000
  C   C288      1.0  0.18811  0.59637  0.59162  1.0000
  H   H453      1.0  0.23740  0.34208  0.65870  1.0000
  C   C289      1.0  0.00849  0.44674  0.87879  1.0000
  H   H454      1.0  0.14190  0.63953  0.59314  1.0000
  H   H455      1.0  0.08076  0.54791  0.50359  1.0000
  C   C290      1.0  0.21572  0.37241  0.84516  1.0000
  H   H456      1.0  0.21181  0.63888  0.58114  1.0000
  H   H457      1.0  0.19775  0.39364  0.85700  1.0000
  H   H458      1.0  0.16735  0.62555  0.69317  1.0000
  H   H459      1.0  0.22229  0.36972  0.86553  1.0000
  H   H460      1.0  0.13315  0.50221  0.95367  1.0000
  Fe  Fe45      1.0  0.21847  0.33295  0.94946  1.0000
  H   H461      1.0  0.15540  0.65476  0.61252  1.0000
  H   H462      1.0  0.16424  0.39292  0.82810  1.0000
  H   H463      1.0  0.10060  0.51391  0.78442  1.0000
  H   H464      1.0  0.13636  0.58685  0.63391  1.0000
  H   H465      1.0  0.08504  0.49878  0.85619  1.0000
  H   H466      1.0  0.14397  0.53030  0.50245  1.0000
  C   C291      1.0  0.08164  0.53296  0.86284  1.0000
  H   H467      1.0  0.14444  0.39031  0.84732  1.0000
  H   H468      1.0  0.15451  0.34614  0.86207  1.0000
  H   H469      1.0  0.09642  0.54385  0.89723  1.0000
  H   H470      1.0  0.12692  0.50573  0.51939  1.0000
  C   C292      1.0  0.07275  0.50750  0.96559  1.0000
  H   H471      1.0  0.21592  0.36034  0.83217  1.0000
  H   H472      1.0  0.07400  0.52531  0.87823  1.0000
  C   C293      1.0  0.09404  0.52709  0.78418  1.0000
  C   C294      1.0  0.22672  0.34302  0.61645  1.0000
  C   C295      1.0  0.06391  0.52224  0.82396  1.0000
  C   C296      1.0  0.15508  0.64525  0.59491  1.0000
  N   N19       1.0  0.18456  0.36932  0.86568  1.0000
  H   H473      1.0  0.13771  0.54991  0.51982  1.0000
  C   C297      1.0  0.10953  0.52971  0.51981  1.0000
  H   H474      1.0  0.18400  0.59541  0.63599  1.0000
  N   N20       1.0  0.11692  0.53926  0.49483  1.0000
  H   H475      1.0  0.13592  0.34536  0.50437  1.0000
  S   S93       1.0  0.20197  0.62657  0.48837  1.0000
  H   H476      1.0  0.18250  0.63789  0.59911  1.0000
  C   C298      1.0  0.13610  0.54265  0.49968  1.0000
  H   H477      1.0  0.06362  0.51378  0.80489  1.0000
  H   H478      1.0  0.07457  0.54592  0.86068  1.0000
  H   H479      1.0  0.08522  0.54801  0.81173  1.0000
  N   N21       1.0  0.08252  0.52374  0.83478  1.0000
  C   C299      1.0  0.00639  0.55571  0.59417  1.0000
  C   C300      1.0  0.24010  0.33997  0.63663  1.0000
  H   H480      1.0  0.19615  0.61331  0.62504  1.0000
  H   H481      1.0  0.10840  0.54381  0.86522  1.0000
  H   H482      1.0  0.22380  0.38203  0.83387  1.0000
  H   H483      1.0  0.09722  0.52324  0.51407  1.0000
  C   C301      1.0  0.23609  0.63882  0.83299  1.0000
  H   H484      1.0  0.05840  0.53529  0.81716  1.0000
  H   H485      1.0  0.15834  0.37226  0.88276  1.0000
  C   C302      1.0  0.11082  0.50363  0.83983  1.0000
  H   H486      1.0  0.15807  0.58688  0.64764  1.0000
  H   H487      1.0  0.10550  0.52359  0.88499  1.0000
  C   C303      1.0  0.09053  0.50546  0.83759  1.0000
  S   S94       1.0  0.23992  0.34234  0.92039  1.0000
  H   H488      1.0  0.10538  0.53818  0.82100  1.0000
  C   C304      1.0  0.09919  0.53612  0.87786  1.0000
  H   H489      1.0  0.11349  0.50842  0.54971  1.0000
  C   C305      1.0  0.07986  0.47861  0.49891  1.0000
  H   H490      1.0  0.19376  0.39442  0.90355  1.0000
  H   H491      1.0  0.18182  0.35961  0.90822  1.0000
  H   H492      1.0  0.15398  0.60990  0.67655  1.0000
  H   H493      1.0  0.21226  0.62795  0.84931  1.0000
  H   H494      1.0  0.10234  0.53571  0.77128  1.0000
  H   H495      1.0  0.08122  0.52645  0.77325  1.0000
  H   H496      1.0  0.04589  0.52482  0.85998  1.0000
  C   C306      1.0  0.24408  0.64546  0.88961  1.0000
  H   H497      1.0  0.05570  0.50314  0.85619  1.0000
  H   H498      1.0  0.16922  0.39218  0.87969  1.0000
  H   H499      1.0  0.19541  0.38040  0.93324  1.0000
  S   S95       1.0  0.17803  0.33291  0.50880  1.0000
  H   H500      1.0  0.15577  0.63663  0.64873  1.0000
  C   C307      1.0  0.18430  0.60577  0.61975  1.0000
  H   H501      1.0  0.03867  0.51055  0.83279  1.0000
  N   N22       1.0  0.16805  0.61765  0.62037  1.0000
  C   C308      1.0  0.16987  0.63100  0.59713  1.0000
  C   C309      1.0  0.16749  0.62759  0.64778  1.0000
  C   C310      1.0  0.15127  0.60794  0.61580  1.0000
  S   S96       1.0  0.18492  0.65622  0.96526  1.0000
  C   C311      1.0  0.12143  0.51562  0.53416  1.0000
  C   C312      1.0  0.15027  0.58927  0.62841  1.0000
  H   H502      1.0  0.17025  0.62451  0.57619  1.0000
  Fe  Fe46      1.0  0.20652  0.33823  0.51657  1.0000
  H   H503      1.0  0.13972  0.61583  0.62361  1.0000
  H   H504      1.0  0.14898  0.60629  0.59297  1.0000
  H   H505      1.0  0.17916  0.63602  0.64966  1.0000
  H   H506      1.0  0.13219  0.52175  0.54609  1.0000
  H   H507      1.0  0.20996  0.64108  0.63318  1.0000
  H   H508      1.0  0.17791  0.60709  0.67698  1.0000
  C   C313      1.0  0.16797  0.34021  0.86356  1.0000
  H   H509      1.0  0.08157  0.56995  0.49126  1.0000
  H   H510      1.0  0.12157  0.53366  0.95792  1.0000
  H   H511      1.0  0.18949  0.66127  0.88065  1.0000
  C   C314      1.0  0.24669  0.33466  0.57911  1.0000
  H   H512      1.0  0.14972  0.53298  0.95485  1.0000
  H   H513      1.0  0.24734  0.64797  0.91134  1.0000
  S   S97       1.0  0.20177  0.35134  0.97634  1.0000
  H   H514      1.0  0.16868  0.52167  0.96684  1.0000
  H   H515      1.0  0.11321  0.55986  0.97898  1.0000
  S   S98       1.0  0.22464  0.66234  0.48367  1.0000
  H   H516      1.0  0.11518  0.33661  0.49646  1.0000
  H   H517      1.0  0.17089  0.33674  0.88573  1.0000
  C   C315      1.0  0.15752  0.53027  0.97401  1.0000
  C   C316      1.0  0.12925  0.33295  0.49939  1.0000
  H   H518      1.0  0.13699  0.55907  0.97655  1.0000
  C   C317      1.0  0.11939  0.50589  0.95922  1.0000
  H   H519      1.0  0.16284  0.54271  0.98216  1.0000
  H   H520      1.0  0.10369  0.52693  0.97801  1.0000
  C   C318      1.0  0.11787  0.52393  0.97396  1.0000
  H   H521      1.0  0.11358  0.49531  0.97177  1.0000
  Fe  Fe47      1.0  0.05136  0.94502  0.11702  1.0000
  S   S99       1.0  0.05420  0.97361  0.12664  1.0000
  S   S100      1.0  0.02564  0.93290  0.13074  1.0000
  Fe  Fe48      1.0  0.09008  0.94034  0.09648  1.0000
  S   S101      1.0  0.09505  0.96893  0.10599  1.0000
  S   S102      1.0  0.11421  0.92633  0.07541  1.0000
  Fe  Fe49      1.0  0.07995  0.96573  0.14655  1.0000
  S   S103      1.0  0.08885  0.97333  0.19129  1.0000
  Fe  Fe50      1.0  0.06883  0.97428  0.08555  1.0000
  C   C319      1.0  0.17122  0.79704  0.40471  1.0000
  S   S104      1.0  0.07681  0.93674  0.13855  1.0000
  S   S105      1.0  0.06422  0.94613  0.07443  1.0000
  H   H522      1.0  0.01432  0.96257  0.25436  1.0000
  H   H523      1.0  0.24314  0.77178  0.09505  1.0000
  C   C320      1.0  0.01262  0.94540  0.20558  1.0000
  H   H524      1.0  0.16618  0.85316  0.40634  1.0000
  H   H525      1.0  0.21503  0.79427  0.06116  1.0000
  S   S106      1.0  0.14751  0.85507  0.02220  1.0000
  H   H526      1.0  0.17797  0.71030  0.01373  1.0000
  H   H527      1.0  0.20106  0.75525  0.42979  1.0000
  H   H528      1.0  0.20404  0.87868  0.14822  1.0000
  Fe  Fe51      1.0  0.21102  0.82976  0.01773  1.0000
  H   H529      1.0  0.22816  0.76623  0.41772  1.0000
  Fe  Fe52      1.0  0.20367  0.83666  0.45428  1.0000
  S   S107      1.0  0.20734  0.84227  0.40710  1.0000
  S   S108      1.0  0.18537  0.82171  0.03555  1.0000
  S   S109      1.0  0.17573  0.83014  0.46415  1.0000
  C   C321      1.0  0.22423  0.83766  0.38175  1.0000
  C   C322      1.0  0.09596  0.99114  0.98931  1.0000
  H   H530      1.0  0.14112  0.91787  0.39034  1.0000
  C   C323      1.0  0.22074  0.84111  0.35316  1.0000
  H   H531      1.0  0.22551  0.78561  0.10636  1.0000
  H   H532      1.0  0.20802  0.84655  0.34707  1.0000
  C   C324      1.0  0.20879  0.73566  0.98377  1.0000
  C   C325      1.0  0.22040  0.82175  0.12530  1.0000
  C   C326      1.0  0.22001  0.82440  0.09606  1.0000
  H   H533      1.0  0.20886  0.81716  0.13593  1.0000
  H   H534      1.0  0.20820  0.82191  0.08438  1.0000
  C   C327      1.0  0.02750  0.95979  0.24487  1.0000
  C   C328      1.0  0.19023  0.75761  0.41453  1.0000
  H   H535      1.0  0.21188  0.77883  0.03391  1.0000
  H   H536      1.0  0.04131  0.95022  0.17719  1.0000
  C   C329      1.0  0.21572  0.78866  0.36702  1.0000
  C   C330      1.0  0.18523  0.75404  0.00348  1.0000
  H   H537      1.0  0.14242  0.85962  0.13416  1.0000
  H   H538      1.0  0.17889  0.89270  0.13854  1.0000
  H   H539      1.0  0.20321  0.85796  0.07423  1.0000
  S   S110      1.0  0.23476  0.83444  0.04553  1.0000
  H   H540      1.0  0.17954  0.76514  0.42513  1.0000
  H   H541      1.0  0.19696  0.75468  0.09610  1.0000
  H   H542      1.0  0.14197  0.87931  0.43756  1.0000
  H   H543      1.0  0.09087  0.99768  0.28734  1.0000
  H   H544      1.0  0.23834  0.79474  0.02546  1.0000
  N   N23       1.0  0.09579  0.92953  0.98707  1.0000
  C   C331      1.0  0.08964  0.98725  0.24497  1.0000
  H   H545      1.0  0.20781  0.75774  0.37965  1.0000
  H   H546      1.0  0.21224  0.80402  0.41879  1.0000
  H   H547      1.0  0.10007  0.97755  0.24852  1.0000
  H   H548      1.0  0.16717  0.84861  0.08548  1.0000
  C   C332      1.0  0.12319  0.90623  0.06109  1.0000
  C   C333      1.0  0.14009  0.90615  0.04895  1.0000
  C   C334      1.0  0.14763  0.89081  0.03655  1.0000
  C   C335      1.0  0.13842  0.87519  0.03621  1.0000
  C   C336      1.0  0.12154  0.87525  0.04840  1.0000
  C   C337      1.0  0.11398  0.89061  0.06074  1.0000
  H   H549      1.0  0.14737  0.91813  0.04894  1.0000
  H   H550      1.0  0.16057  0.89107  0.02722  1.0000
  H   H551      1.0  0.11426  0.86327  0.04841  1.0000
  H   H552      1.0  0.10100  0.89035  0.06991  1.0000
  H   H553      1.0  0.17614  0.77829  0.09915  1.0000
  C   C338      1.0  0.21011  0.78964  0.41731  1.0000
  H   H554      1.0  0.16372  0.87748  0.15101  1.0000
  H   H555      1.0  0.01476  0.94900  0.07751  1.0000
  H   H556      1.0  0.15455  0.87023  0.38689  1.0000
  H   H557      1.0  0.08942  0.94310  0.02585  1.0000
  C   C339      1.0  0.18666  0.79772  0.38393  1.0000
  C   C340      1.0  0.22883  0.77189  0.09979  1.0000
  C   C341      1.0  0.05607  0.94125  0.21351  1.0000
  H   H558      1.0  0.22111  0.80199  0.36960  1.0000
  H   H559      1.0  0.17527  0.79824  0.42692  1.0000
  H   H560      1.0  0.18503  0.74453  0.40934  1.0000
  N   N24       1.0  0.20210  0.78527  0.38929  1.0000
  N   N25       1.0  0.16817  0.88942  0.43120  1.0000
  H   H561      1.0  0.18072  0.79531  0.36300  1.0000
  C   C342      1.0  0.01911  0.97653  0.20329  1.0000
  C   C343      1.0  0.08607  0.94388  0.00305  1.0000
  C   C344      1.0  0.01698  0.92617  0.21338  1.0000
  C   C345      1.0  0.10064  0.89572  0.98905  1.0000
  C   C346      1.0  0.07099  0.99574  0.02050  1.0000
  C   C347      1.0  0.00308  0.94611  0.08937  1.0000
  C   C348      1.0  0.23893  0.78489  0.04262  1.0000
  C   C349      1.0  0.20146  0.89410  0.42374  1.0000
  H   H562      1.0  0.17489  0.88778  0.47534  1.0000
  H   H563      1.0  0.21355  0.85707  0.14933  1.0000
  H   H564      1.0  0.18618  0.76497  0.37124  1.0000
  C   C350      1.0  0.18450  0.72196  0.00683  1.0000
  H   H565      1.0  0.11911  0.95714  0.00959  1.0000
  C   C351      1.0  0.23551  0.82530  0.14099  1.0000
  H   H566      1.0  0.15287  0.86719  0.08511  1.0000
  C   C352      1.0  0.19672  0.76636  0.38727  1.0000
  C   C353      1.0  0.04343  0.95479  0.19907  1.0000
  H   H567      1.0  0.09211  0.91257  0.02306  1.0000
  C   C354      1.0  0.14979  0.85011  0.12067  1.0000
  C   C355      1.0  0.22685  0.76015  0.12578  1.0000
  Fe  Fe53      1.0  0.17281  0.84103  0.00532  1.0000
  C   C356      1.0  0.08848  0.99025  0.01628  1.0000
  C   C357      1.0  0.22007  0.78150  0.05278  1.0000
  H   H568      1.0  0.11491  0.89604  0.99373  1.0000
  S   S111      1.0  0.21091  0.69971  0.98544  1.0000
  N   N26       1.0  0.02602  0.95878  0.21330  1.0000
  H   H569      1.0  0.13748  0.94844  0.99054  1.0000
  H   H570      1.0  0.22720  0.77934  0.36909  1.0000
  C   C358      1.0  0.03994  0.97376  0.25622  1.0000
  C   C359      1.0  0.23361  0.83772  0.33224  1.0000
  H   H571      1.0  0.16459  0.73987  0.02348  1.0000
  H   H572      1.0  0.10955  0.98712  0.98622  1.0000
  N   N27       1.0  0.17585  0.87024  0.11119  1.0000
  H   H573      1.0  0.02256  0.97072  0.15795  1.0000
  C   C360      1.0  0.18474  0.87959  0.08748  1.0000
  C   C361      1.0  0.16847  0.88378  0.13147  1.0000
  C   C362      1.0  0.18867  0.85832  0.12679  1.0000
  C   C363      1.0  0.22793  0.78028  0.42379  1.0000
  C   C364      1.0  0.19372  0.86769  0.06515  1.0000
  S   S112      1.0  0.06142  0.99568  0.05422  1.0000
  C   C365      1.0  0.20610  0.86653  0.13573  1.0000
  H   H574      1.0  0.16840  0.89938  0.38835  1.0000
  H   H575      1.0  0.21296  0.88743  0.41345  1.0000
  H   H576      1.0  0.19464  0.88878  0.09562  1.0000
  H   H577      1.0  0.17512  0.88804  0.07578  1.0000
  H   H578      1.0  0.18764  0.79204  0.07601  1.0000
  H   H579      1.0  0.19620  0.78736  0.11097  1.0000
  C   C366      1.0  0.22579  0.75016  0.06100  1.0000
  H   H580      1.0  0.19199  0.84637  0.11425  1.0000
  S   S113      1.0  0.23491  0.82283  0.17790  1.0000
  S   S114      1.0  0.17551  0.77481  0.01202  1.0000
  C   C367      1.0  0.15558  0.87455  0.43297  1.0000
  H   H581      1.0  0.20120  0.87596  0.05045  1.0000
  H   H582      1.0  0.23518  0.76528  0.14295  1.0000
  H   H583      1.0  0.18388  0.86087  0.05227  1.0000
  C   C368      1.0  0.21731  0.73275  0.06938  1.0000
  H   H584      1.0  0.15738  0.84059  0.13385  1.0000
  H   H585      1.0  0.06239  0.93282  0.19714  1.0000
  H   H586      1.0  0.20118  0.78673  0.43499  1.0000
  H   H587      1.0  0.16201  0.80832  0.40046  1.0000
  C   C369      1.0  0.18597  0.88151  0.42358  1.0000
  C   C370      1.0  0.15337  0.89585  0.12021  1.0000
  C   C371      1.0  0.19914  0.76530  0.08069  1.0000
  H   H588      1.0  0.05322  0.97240  0.24695  1.0000
  C   C372      1.0  0.17695  0.73874  0.01232  1.0000
  H   H589      1.0  0.13563  0.90940  0.42396  1.0000
  H   H590      1.0  0.00762  0.98112  0.21612  1.0000
  H   H591      1.0  0.23073  0.84061  0.31044  1.0000
  H   H592      1.0  0.18952  0.87044  0.43796  1.0000
  H   H593      1.0  0.19191  0.76134  0.06151  1.0000
  C   C373      1.0  0.18953  0.78185  0.09241  1.0000
  C   C374      1.0  0.08161  0.98831  0.21829  1.0000
  H   H594      1.0  0.04147  0.97213  0.27929  1.0000
  H   H595      1.0  0.05098  0.96700  0.19695  1.0000
  H   H596      1.0  0.17961  0.90825  0.45970  1.0000
  H   H597      1.0  0.22125  0.78713  0.32225  1.0000
  H   H598      1.0  0.14872  0.90472  0.13737  1.0000
  H   H599      1.0  0.20131  0.79883  0.33001  1.0000
  H   H600      1.0  0.13688  0.89513  0.39388  1.0000
  H   H601      1.0  0.01235  0.99162  0.16558  1.0000
  H   H602      1.0  0.18264  0.85330  0.14639  1.0000
  H   H603      1.0  0.02922  0.98667  0.20601  1.0000
  H   H604      1.0  0.01930  0.92423  0.23613  1.0000
  H   H605      1.0  0.11230  0.99579  0.48117  1.0000
  H   H606      1.0  0.08129  0.96799  0.46723  1.0000
  H   H607      1.0  0.20245  0.77497  0.33223  1.0000
  Fe  Fe54      1.0  0.18547  0.80183  0.00063  1.0000
  H   H608      1.0  0.16361  0.78501  0.40159  1.0000
  H   H609      1.0  0.06705  0.94798  0.22395  1.0000
  H   H610      1.0  0.21678  0.73067  0.09233  1.0000
  C   C375      1.0  0.16290  0.90297  0.40934  1.0000
  H   H611      1.0  0.05001  0.93227  0.22855  1.0000
  C   C376      1.0  0.14300  0.90637  0.40450  1.0000
  H   H612      1.0  0.19109  0.81154  0.38344  1.0000
  C   C377      1.0  0.00472  0.93857  0.11604  1.0000
  C   C378      1.0  0.15480  0.86265  0.40675  1.0000
  H   H613      1.0  0.13984  0.84255  0.10905  1.0000
  H   H614      1.0  0.21463  0.86914  0.11741  1.0000
  H   H615      1.0  0.09565  0.88406  0.00016  1.0000
  H   H616      1.0  0.23879  0.78695  0.41295  1.0000
  H   H617      1.0  0.16866  0.91586  0.41444  1.0000
  H   H618      1.0  0.11944  0.92564  0.01182  1.0000
  C   C379      1.0  0.23477  0.83057  0.08219  1.0000
  C   C380      1.0  0.15311  0.90642  0.47239  1.0000
  C   C381      1.0  0.16155  0.85924  0.09914  1.0000
  N   N28       1.0  0.21841  0.76699  0.07412  1.0000
  H   H619      1.0  0.21320  0.76039  0.13387  1.0000
  H   H620      1.0  0.22448  0.75053  0.03767  1.0000
  H   H621      1.0  0.20565  0.89717  0.44549  1.0000
  H   H622      1.0  0.15777  0.90446  0.10301  1.0000
  H   H623      1.0  0.07637  0.90992  0.99595  1.0000
  H   H624      1.0  0.14181  0.88851  0.11322  1.0000
  H   H625      1.0  0.03462  0.98729  0.25270  1.0000
  H   H626      1.0  0.09628  0.98551  0.03388  1.0000
  H   H627      1.0  0.20387  0.73194  0.06048  1.0000
  H   H628      1.0  0.14276  0.85479  0.40766  1.0000
  C   C382      1.0  0.16984  0.89770  0.45987  1.0000
  Fe  Fe55      1.0  0.20309  0.67136  0.99286  1.0000
  H   H629      1.0  0.03185  0.94713  0.25429  1.0000
  H   H630      1.0  0.22512  0.72159  0.06021  1.0000
  H   H631      1.0  0.19846  0.90637  0.41196  1.0000
  H   H632      1.0  0.06050  0.95618  0.01125  1.0000
  H   H633      1.0  0.00558  0.91812  0.20766  1.0000
  H   H634      1.0  0.22385  0.67138  0.12347  1.0000
  H   H635      1.0  0.09023  0.95697  0.99664  1.0000
  H   H636      1.0  0.23061  0.78102  0.44670  1.0000
  H   H637      1.0  0.05991  0.93284  0.01014  1.0000
  H   H638      1.0  0.18579  0.87573  0.40209  1.0000
  H   H639      1.0  0.15912  0.86580  0.45092  1.0000
  H   H640      1.0  0.24376  0.82783  0.41091  1.0000
  C   C383      1.0  0.20956  0.78721  0.33624  1.0000
  S   S115      1.0  0.07563  0.99470  0.42552  1.0000
  C   C384      1.0  0.07352  0.99527  0.46252  1.0000
  C   C385      1.0  0.01325  0.97765  0.17224  1.0000
  H   H641      1.0  0.24697  0.79070  0.05951  1.0000
  C   C386      1.0  0.24077  0.83057  0.38911  1.0000
  H   H642      1.0  0.01048  0.94509  0.18253  1.0000
  H   H643      1.0  0.02822  0.92086  0.20082  1.0000
  H   H644      1.0  0.14965  0.91894  0.46159  1.0000
  C   C387      1.0  0.20050  0.72035  0.99258  1.0000
  H   H645      1.0  0.14179  0.89765  0.47272  1.0000
  H   H646      1.0  0.23155  0.74652  0.12168  1.0000
  C   C388      1.0  0.07740  0.97998  0.47807  1.0000
  C   C389      1.0  0.06588  0.94435  0.00014  1.0000
  C   C390      1.0  0.11539  0.93105  0.99105  1.0000
  H   H647      1.0  0.24568  0.77295  0.03410  1.0000
  S   S116      1.0  0.21461  0.81376  0.47916  1.0000
  C   C391      1.0  0.12290  0.94961  0.99041  1.0000
  C   C392      1.0  0.09052  0.91229  0.99975  1.0000
  C   C393      1.0  0.20119  0.75243  0.98910  1.0000
  S   S117      1.0  0.19884  0.85045  0.98901  1.0000
  H   H648      1.0  0.24761  0.70742  0.31366  1.0000
  S   S118      1.0  0.21219  0.80847  0.98474  1.0000
  H   H649      1.0  0.24540  0.71513  0.27835  1.0000
  H   H650      1.0  0.24016  0.74858  0.06500  1.0000
  H   H651      1.0  0.99961  0.94906  0.21498  1.0000
  H   H652      1.0  1.00000  0.97221  0.16933  1.0000
  H   H653      1.0  0.16100  0.74690  0.48170  1.0000
  Fe  Fe56      1.0  0.05332  0.94030  0.60333  1.0000
  S   S119      1.0  0.05197  0.96814  0.61838  1.0000
  S   S120      1.0  0.03019  0.92302  0.59370  1.0000
  Fe  Fe57      1.0  0.09403  0.93852  0.60173  1.0000
  S   S121      1.0  0.09531  0.96662  0.61729  1.0000
  S   S122      1.0  0.12038  0.92283  0.59628  1.0000
  Fe  Fe58      1.0  0.07388  0.96044  0.64826  1.0000
  S   S123      1.0  0.07168  0.96476  0.69630  1.0000
  Fe  Fe59      1.0  0.07331  0.97221  0.58638  1.0000
  C   C394      1.0  0.18176  0.80733  0.60199  1.0000
  S   S124      1.0  0.07401  0.93193  0.63480  1.0000
  S   S125      1.0  0.07330  0.94478  0.56919  1.0000
  S   S126      1.0  0.23330  0.83479  0.67793  1.0000
  C   C395      1.0  0.03095  0.95534  0.50686  1.0000
  H   H654      1.0  0.03384  0.99645  0.83544  1.0000
  Fe  Fe60      1.0  0.17716  0.84764  0.50231  1.0000
  C   C396      1.0  0.08339  0.99729  0.71520  1.0000
  S   S127      1.0  0.15250  0.86559  0.50899  1.0000
  H   H655      1.0  0.23076  0.67600  0.66140  1.0000
  H   H656      1.0  0.21762  0.67823  0.82329  1.0000
  C   C397      1.0  0.02481  0.99455  0.50445  1.0000
  Fe  Fe61      1.0  0.21335  0.83210  0.51642  1.0000
  H   H657      1.0  0.04097  0.93668  0.53899  1.0000
  Fe  Fe62      1.0  0.19822  0.82837  0.95688  1.0000
  S   S128      1.0  0.20235  0.82868  0.90867  1.0000
  S   S129      1.0  0.18611  0.82496  0.52976  1.0000
  S   S130      1.0  0.17119  0.82040  0.97127  1.0000
  C   C398      1.0  0.21959  0.83144  0.88357  1.0000
  H   H658      1.0  0.07987  0.96834  0.51935  1.0000
  C   C399      1.0  0.23449  0.83287  0.64103  1.0000
  C   C400      1.0  0.21594  0.82905  0.85478  1.0000
  H   H659      1.0  0.23448  0.78922  0.54229  1.0000
  H   H660      1.0  0.20286  0.82549  0.84850  1.0000
  H   H661      1.0  0.01869  0.98212  0.59206  1.0000
  C   C401      1.0  0.22019  0.83897  0.62469  1.0000
  C   C402      1.0  0.22077  0.83796  0.59519  1.0000
  H   H662      1.0  0.20869  0.84469  0.63490  1.0000
  H   H663      1.0  0.20983  0.84303  0.58279  1.0000
  H   H664      1.0  0.24107  0.79662  0.84214  1.0000
  H   H665      1.0  0.00494  0.94077  0.54025  1.0000
  C   C403      1.0  0.01065  0.98073  0.50903  1.0000
  C   C404      1.0  0.02544  0.98770  0.82309  1.0000
  C   C405      1.0  0.20927  0.68550  0.83881  1.0000
  H   H666      1.0  0.03248  0.99172  0.48502  1.0000
  C   C406      1.0  0.18523  0.67313  0.89278  1.0000
  C   C407      1.0  0.23905  0.69012  0.92021  1.0000
  C   C408      1.0  0.23673  0.78307  0.79164  1.0000
  H   H667      1.0  0.03736  0.98881  0.78266  1.0000
  N   N29       1.0  0.01667  0.96425  0.52408  1.0000
  C   C409      1.0  0.22890  0.83151  0.83398  1.0000
  H   H668      1.0  0.24397  0.71816  0.62018  1.0000
  H   H669      1.0  0.21541  0.76305  0.60665  1.0000
  H   H670      1.0  0.21808  0.70824  0.93007  1.0000
  C   C410      1.0  0.07588  0.98131  0.72198  1.0000
  C   C411      1.0  0.07171  0.97805  0.75033  1.0000
  H   H671      1.0  0.24609  0.69307  0.66318  1.0000
  C   C412      1.0  0.18042  0.74976  0.58404  1.0000
  H   H672      1.0  0.06593  0.96574  0.75592  1.0000
  H   H673      1.0  0.23049  0.71431  0.90040  1.0000
  C   C413      1.0  0.12889  0.90674  0.57187  1.0000
  C   C414      1.0  0.14602  0.89958  0.57591  1.0000
  C   C415      1.0  0.15342  0.88690  0.55722  1.0000
  C   C416      1.0  0.14379  0.88116  0.53406  1.0000
  C   C417      1.0  0.12668  0.88835  0.53000  1.0000
  C   C418      1.0  0.11927  0.90099  0.54871  1.0000
  H   H674      1.0  0.15365  0.90388  0.59365  1.0000
  H   H675      1.0  0.16658  0.88163  0.56073  1.0000
  H   H676      1.0  0.11902  0.88406  0.51227  1.0000
  H   H677      1.0  0.10610  0.90627  0.54521  1.0000
  H   H678      1.0  0.20218  0.78985  0.54080  1.0000
  Fe  Fe63      1.0  0.20101  0.67756  0.50023  1.0000
  Fe  Fe64      1.0  0.18689  0.80820  0.49072  1.0000
  S   S131      1.0  0.20456  0.85579  0.49074  1.0000
  C   C419      1.0  0.19957  0.72632  0.50063  1.0000
  H   H679      1.0  0.23404  0.67933  0.93329  1.0000
  C   C420      1.0  0.09289  0.94663  0.93978  1.0000
  H   H680      1.0  0.18545  0.80553  0.62434  1.0000
  H   H681      1.0  0.18592  0.74602  0.60482  1.0000
  H   H682      1.0  0.23580  0.78173  0.86909  1.0000
  H   H683      1.0  0.08967  0.95861  0.95201  1.0000
  H   H684      1.0  0.04293  0.96337  0.50668  1.0000
  H   H685      1.0  0.16860  0.81406  0.60194  1.0000
  N   N30       1.0  0.11796  0.93039  0.69529  1.0000
  C   C421      1.0  0.11754  0.94960  0.68725  1.0000
  C   C422      1.0  0.10135  0.92714  0.71151  1.0000
  C   C423      1.0  0.11834  0.91980  0.66843  1.0000
  C   C424      1.0  0.13430  0.92676  0.71245  1.0000
  C   C425      1.0  0.13231  0.95551  0.66745  1.0000
  C   C426      1.0  0.09966  0.93649  0.74019  1.0000
  C   C427      1.0  0.11161  0.90092  0.66950  1.0000
  C   C428      1.0  0.13654  0.90832  0.72555  1.0000
  H   H686      1.0  0.10492  0.95321  0.67661  1.0000
  H   H687      1.0  0.11816  0.95822  0.70606  1.0000
  H   H688      1.0  0.09965  0.91303  0.71591  1.0000
  H   H689      1.0  0.08962  0.93100  0.69865  1.0000
  H   H690      1.0  0.11006  0.92650  0.65218  1.0000
  H   H691      1.0  0.13185  0.91899  0.65943  1.0000
  H   H692      1.0  0.14622  0.92842  0.69935  1.0000
  H   H693      1.0  0.13575  0.93669  0.72943  1.0000
  H   H694      1.0  0.13214  0.94861  0.64691  1.0000
  H   H695      1.0  0.13016  0.96971  0.66282  1.0000
  H   H696      1.0  0.14548  0.95402  0.67722  1.0000
  H   H697      1.0  0.00185  0.93900  0.48653  1.0000
  H   H698      1.0  0.06160  0.94557  0.97796  1.0000
  H   H699      1.0  0.21176  0.79212  0.64491  1.0000
  H   H700      1.0  0.09711  0.90096  0.67209  1.0000
  H   H701      1.0  0.11801  0.89276  0.68593  1.0000
  H   H702      1.0  0.11445  0.89446  0.64897  1.0000
  H   H703      1.0  0.14333  0.89911  0.71075  1.0000
  H   H704      1.0  0.12410  0.90266  0.73254  1.0000
  H   H705      1.0  0.14460  0.90921  0.74494  1.0000
  H   H706      1.0  0.21067  0.80244  0.56804  1.0000
  H   H707      1.0  0.23768  0.68312  0.53587  1.0000
  H   H708      1.0  0.17929  0.73740  0.57180  1.0000
  H   H709      1.0  0.17370  0.79228  0.56609  1.0000
  C   C429      1.0  0.21993  0.68770  0.86608  1.0000
  C   C430      1.0  0.01284  0.98138  0.57074  1.0000
  C   C431      1.0  0.02392  0.96828  0.55284  1.0000
  H   H710      1.0  0.22120  0.73455  0.97277  1.0000
  H   H711      1.0  0.08689  0.93317  0.74979  1.0000
  H   H712      1.0  0.09948  0.95097  0.73824  1.0000
  C   C432      1.0  0.20277  0.75818  0.49683  1.0000
  H   H713      1.0  0.20425  0.75407  0.56215  1.0000
  C   C433      1.0  0.18038  0.78961  0.58661  1.0000
  H   H714      1.0  0.18550  0.76507  0.54737  1.0000
  C   C434      1.0  0.23899  0.68440  0.62009  1.0000
  H   H715      1.0  0.20572  0.69840  0.82919  1.0000
  C   C435      1.0  0.24015  0.67967  0.55821  1.0000
  H   H716      1.0  0.03665  0.99400  0.73614  1.0000
  C   C436      1.0  0.19235  0.76216  0.56759  1.0000
  C   C437      1.0  0.20873  0.78867  0.56171  1.0000
  C   C438      1.0  0.24594  0.69618  0.57413  1.0000
  H   H717      1.0  0.00552  0.90093  0.56939  1.0000
  H   H718      1.0  0.00361  0.95052  0.61238  1.0000
  C   C439      1.0  0.22725  0.78048  0.55664  1.0000
  C   C440      1.0  0.23659  0.83613  0.89124  1.0000
  H   H719      1.0  0.22571  0.67454  0.87118  1.0000
  H   H720      1.0  0.16684  0.75523  0.58629  1.0000
  C   C441      1.0  0.20624  0.77461  0.60944  1.0000
  H   H721      1.0  0.22762  0.67475  0.56654  1.0000
  H   H722      1.0  0.01220  0.98739  0.83278  1.0000
  H   H723      1.0  0.09944  0.91947  0.94492  1.0000
  H   H724      1.0  0.01459  0.98443  0.78174  1.0000
  C   C442      1.0  0.07661  0.98014  0.50762  1.0000
  H   H725      1.0  0.07752  0.92465  0.95288  1.0000
  H   H726      1.0  0.01292  0.99484  0.56192  1.0000
  H   H727      1.0  0.17097  0.78217  0.59940  1.0000
  H   H728      1.0  0.19643  0.77039  0.62520  1.0000
  H   H729      1.0  0.19073  0.81643  0.59166  1.0000
  H   H730      1.0  0.15574  0.90986  0.49468  1.0000
  S   S132      1.0  0.23722  0.82982  0.54490  1.0000
  C   C443      1.0  0.23562  0.83071  0.58184  1.0000
  H   H731      1.0  0.08326  0.94701  0.92221  1.0000
  H   H732      1.0  0.23509  0.77939  0.57618  1.0000
  C   C444      1.0  0.17475  0.74537  0.48721  1.0000
  C   C445      1.0  0.07498  0.99053  0.77158  1.0000
  C   C446      1.0  0.21695  0.78920  0.62354  1.0000
  N   N31       1.0  0.19722  0.77904  0.58201  1.0000
  C   C447      1.0  0.18500  0.76034  0.48983  1.0000
  S   S133      1.0  0.09560  0.99750  0.93258  1.0000
  H   H733      1.0  0.04841  0.93225  0.50414  1.0000
  H   H734      1.0  0.02648  0.92709  0.51364  1.0000
  H   H735      1.0  0.07181  0.98773  0.79323  1.0000
  N   N32       1.0  0.21046  0.69542  0.89135  1.0000
  C   C448      1.0  0.22415  0.70294  0.91054  1.0000
  C   C449      1.0  0.19825  0.71044  0.88269  1.0000
  H   H736      1.0  0.22962  0.78043  0.77176  1.0000
  C   C450      1.0  0.20109  0.68142  0.90732  1.0000
  C   C451      1.0  0.18748  0.71929  0.90659  1.0000
  H   H737      1.0  0.22569  0.82987  0.81202  1.0000
  H   H738      1.0  0.09859  0.89347  0.96631  1.0000
  C   C452      1.0  0.18200  0.72843  0.49240  1.0000
  H   H739      1.0  0.18855  0.70641  0.86678  1.0000
  H   H740      1.0  0.20581  0.72084  0.87211  1.0000
  C   C453      1.0  0.07189  0.99563  0.52185  1.0000
  H   H741      1.0  0.19692  0.68612  0.92852  1.0000
  H   H742      1.0  0.17933  0.70983  0.91803  1.0000
  H   H743      1.0  0.19584  0.72634  0.92170  1.0000
  H   H744      1.0  0.17829  0.72934  0.89739  1.0000
  C   C454      1.0  0.24277  0.68108  0.65143  1.0000
  H   H745      1.0  0.22788  0.77935  0.80900  1.0000
  C   C455      1.0  0.02445  0.99296  0.79181  1.0000
  H   H746      1.0  0.11904  0.95715  0.97148  1.0000
  H   H747      1.0  0.17757  0.68218  0.87909  1.0000
  H   H748      1.0  0.02542  0.95609  0.56553  1.0000
  H   H749      1.0  0.23087  0.78473  0.62636  1.0000
  H   H750      1.0  0.17571  0.66903  0.90896  1.0000
  H   H751      1.0  0.21698  0.80173  0.61207  1.0000
  H   H752      1.0  0.23966  0.83806  0.91319  1.0000
  H   H753      1.0  0.23125  0.69585  0.86010  1.0000
  H   H754      1.0  0.21026  0.67021  0.91222  1.0000
  H   H755      1.0  0.19739  0.67776  0.84175  1.0000
  C   C456      1.0  0.00691  0.92557  0.59124  1.0000
  H   H756      1.0  0.22690  0.76752  0.54615  1.0000
  H   H757      1.0  0.03750  0.97327  0.55166  1.0000
  C   C457      1.0  0.09107  0.92935  0.95630  1.0000
  H   H758      1.0  0.10627  0.94761  0.93077  1.0000
  H   H759      1.0  0.03128  0.97421  0.82486  1.0000
  S   S134      1.0  0.20880  0.70566  0.51113  1.0000
  H   H760      1.0  0.11015  0.93212  0.75499  1.0000
  C   C458      1.0  0.03686  0.93680  0.51671  1.0000
  H   H761      1.0  0.02703  0.95436  0.48439  1.0000
  C   C459      1.0  0.24694  0.78716  0.85719  1.0000
  H   H762      1.0  0.23445  0.70563  0.57454  1.0000
  H   H763      1.0  0.12276  0.92304  0.97515  1.0000
  H   H764      1.0  0.23887  0.79737  0.79213  1.0000
  H   H765      1.0  0.22642  0.69225  0.61880  1.0000
  H   H766      1.0  0.11751  0.99743  0.51729  1.0000
  S   S135      1.0  0.07099  0.99659  0.55892  1.0000
  S   S136      1.0  0.17477  0.78141  0.48568  1.0000
  H   H767      1.0  0.23616  0.67130  0.61122  1.0000
  H   H768      1.0  0.00584  0.97755  0.48761  1.0000
  H   H769      1.0  0.17385  0.71707  0.49092  1.0000
  H   H770      1.0  0.22356  0.73975  0.50880  1.0000
  C   C460      1.0  0.20993  0.74127  0.50259  1.0000
  C   C461      1.0  0.08598  0.99730  0.96634  1.0000
  H   H771      1.0  0.21086  0.76955  0.49848  1.0000
  H   H772      1.0  0.24197  0.87211  0.57407  1.0000
  H   H773      1.0  0.03409  0.99541  0.52223  1.0000
  C   C462      1.0  0.24578  0.83651  0.84164  1.0000
  H   H774      1.0  0.24681  0.68463  0.90240  1.0000
  C   C463      1.0  0.00118  0.95259  0.52775  1.0000
  H   H775      1.0  0.24825  0.69735  0.93378  1.0000
  H   H776      1.0  0.99914  0.97721  0.57347  1.0000
  H   H777      1.0  0.99896  0.98709  0.51931  1.0000
  H   H778      1.0  0.20769  0.76409  0.98218  1.0000
  Fe  Fe65      1.0  0.25979  0.15176  0.27096  1.0000
  S   S137      1.0  0.28680  0.16223  0.27858  1.0000
  C   C464      1.0  0.34152  0.16184  0.20629  1.0000
  Fe  Fe66      1.0  0.26684  0.14276  0.20885  1.0000
  S   S138      1.0  0.29443  0.15191  0.21370  1.0000
  Fe  Fe67      1.0  0.25761  0.33118  0.26420  1.0000
  Fe  Fe68      1.0  0.29606  0.13770  0.25516  1.0000
  S   S139      1.0  0.32242  0.12217  0.26078  1.0000
  Fe  Fe69      1.0  0.28296  0.17538  0.23645  1.0000
  S   S140      1.0  0.28945  0.20189  0.21704  1.0000
  S   S141      1.0  0.26904  0.12675  0.24898  1.0000
  H   H779      1.0  0.25140  0.17239  0.16618  1.0000
  H   H780      1.0  0.28285  0.26960  0.32921  1.0000
  H   H781      1.0  0.26029  0.12943  0.10330  1.0000
  Fe  Fe70      1.0  0.28718  0.30482  0.25175  1.0000
  S   S142      1.0  0.29592  0.27826  0.27038  1.0000
  H   H782      1.0  0.42514  0.04663  0.22752  1.0000
  Fe  Fe71      1.0  0.39975  0.02309  0.39236  1.0000
  S   S143      1.0  0.40492  0.05059  0.37686  1.0000
  S   S144      1.0  0.40385  0.01794  0.43968  1.0000
  Fe  Fe72      1.0  0.39316  0.01038  0.33183  1.0000
  S   S145      1.0  0.39727  0.03686  0.31301  1.0000
  H   H783      1.0  0.38175  0.19437  0.27556  1.0000
  Fe  Fe73      1.0  0.42075  0.03752  0.34216  1.0000
  S   S146      1.0  0.44706  0.04297  0.32096  1.0000
  Fe  Fe74      1.0  0.38105  0.04757  0.34899  1.0000
  S   S147      1.0  0.35765  0.06757  0.34927  1.0000
  S   S148      1.0  0.41716  0.01052  0.35940  1.0000
  S   S149      1.0  0.37529  0.02062  0.36624  1.0000
  N   N33       1.0  0.25678  0.19192  0.13439  1.0000
  H   H784      1.0  0.32234  0.17389  0.30543  1.0000
  H   H785      1.0  0.33209  0.15243  0.30808  1.0000
  H   H786      1.0  0.26752  0.16599  0.12419  1.0000
  H   H787      1.0  0.36699  0.01214  0.21815  1.0000
  H   H788      1.0  0.37251  0.01176  0.26964  1.0000
  C   C465      1.0  0.46800  0.04249  0.33761  1.0000
  C   C466      1.0  0.46980  0.04431  0.36670  1.0000
  C   C467      1.0  0.48328  0.04113  0.32098  1.0000
  H   H789      1.0  0.45818  0.04550  0.37972  1.0000
  H   H790      1.0  0.48205  0.03983  0.29846  1.0000
  C   C468      1.0  0.33155  0.10657  0.28540  1.0000
  C   C469      1.0  0.32364  0.10303  0.31125  1.0000
  C   C470      1.0  0.33178  0.09106  0.33033  1.0000
  C   C471      1.0  0.34784  0.08225  0.32385  1.0000
  C   C472      1.0  0.35568  0.08569  0.29791  1.0000
  C   C473      1.0  0.34765  0.09782  0.27898  1.0000
  H   H791      1.0  0.31133  0.10963  0.31668  1.0000
  H   H792      1.0  0.32555  0.08861  0.35029  1.0000
  H   H793      1.0  0.36801  0.07913  0.29252  1.0000
  H   H794      1.0  0.35395  0.10040  0.25913  1.0000
  C   C474      1.0  0.28911  0.22308  0.23271  1.0000
  C   C475      1.0  0.29052  0.22543  0.26176  1.0000
  C   C476      1.0  0.29251  0.24241  0.27294  1.0000
  C   C477      1.0  0.29234  0.25729  0.25539  1.0000
  C   C478      1.0  0.29009  0.25499  0.22648  1.0000
  C   C479      1.0  0.28879  0.23795  0.21519  1.0000
  H   H795      1.0  0.29075  0.21414  0.27552  1.0000
  H   H796      1.0  0.29434  0.24402  0.29531  1.0000
  H   H797      1.0  0.29004  0.26629  0.21271  1.0000
  H   H798      1.0  0.28780  0.23630  0.19269  1.0000
  H   H799      1.0  0.34931  0.21710  0.24870  1.0000
  H   H800      1.0  0.32857  0.22513  0.26128  1.0000
  H   H801      1.0  0.33598  0.16193  0.18468  1.0000
  H   H802      1.0  0.33677  0.14980  0.21656  1.0000
  H   H803      1.0  0.26108  0.32456  0.32932  1.0000
  H   H804      1.0  0.31695  0.19476  0.26240  1.0000
  C   C480      1.0  0.25577  0.32555  0.10074  1.0000
  C   C481      1.0  0.48664  0.04534  0.37887  1.0000
  C   C482      1.0  0.45139  0.02129  0.23719  1.0000
  H   H805      1.0  0.31911  0.07769  0.43592  1.0000
  H   H806      1.0  0.40950  0.01605  0.26120  1.0000
  H   H807      1.0  0.40544  0.03458  0.21954  1.0000
  H   H808      1.0  0.36116  0.03502  0.10312  1.0000
  H   H809      1.0  0.33900  0.00381  0.05477  1.0000
  C   C483      1.0  0.33616  0.16444  0.26740  1.0000
  S   S150      1.0  0.25541  0.16663  0.23040  1.0000
  C   C484      1.0  0.24969  0.32833  0.34155  1.0000
  C   C485      1.0  0.33167  0.07115  0.42929  1.0000
  C   C486      1.0  0.33518  0.17880  0.22154  1.0000
  S   S151      1.0  0.25993  0.30835  0.23424  1.0000
  C   C487      1.0  0.36069  0.00094  0.10107  1.0000
  H   H810      1.0  0.37684  0.03635  0.46957  1.0000
  H   H811      1.0  0.32716  0.05105  0.46015  1.0000
  H   H812      1.0  0.32829  0.02479  0.08039  1.0000
  H   H813      1.0  0.33632  0.01109  0.12078  1.0000
  H   H814      1.0  0.34576  0.15341  0.26320  1.0000
  C   C488      1.0  0.33843  0.05894  0.45320  1.0000
  H   H815      1.0  0.33669  0.01676  0.39963  1.0000
  H   H816      1.0  0.34586  0.17090  0.31013  1.0000
  C   C489      1.0  0.36685  0.05511  0.42658  1.0000
  H   H817      1.0  0.32951  0.21503  0.22765  1.0000
  Fe  Fe75      1.0  0.27177  0.32737  0.20376  1.0000
  C   C490      1.0  0.35328  0.00455  0.05101  1.0000
  C   C491      1.0  0.25042  0.13728  0.34898  1.0000
  C   C492      1.0  0.41432  0.03901  0.23647  1.0000
  C   C493      1.0  0.35706  0.03118  0.08154  1.0000
  H   H818      1.0  0.34569  0.00889  0.00737  1.0000
  C   C494      1.0  0.42741  0.00543  0.21325  1.0000
  H   H819      1.0  0.25452  0.23753  0.12885  1.0000
  C   C495      1.0  0.33720  0.03588  0.07856  1.0000
  H   H820      1.0  0.25743  0.12129  0.38500  1.0000
  H   H821      1.0  0.37728  0.04530  0.42041  1.0000
  H   H822      1.0  0.42641  0.02935  0.27406  1.0000
  H   H823      1.0  0.47733  0.01694  0.21896  1.0000
  C   C496      1.0  0.39468  0.01938  0.09074  1.0000
  C   C497      1.0  0.34871  0.02967  0.43514  1.0000
  H   H824      1.0  0.39525  0.01138  0.11015  1.0000
  H   H825      1.0  0.36390  0.04017  0.06698  1.0000
  N   N34       1.0  0.36284  0.01242  0.07556  1.0000
  H   H826      1.0  0.41397  0.00043  0.21627  1.0000
  C   C498      1.0  0.37739  0.00102  0.25664  1.0000
  H   H827      1.0  0.36490  0.19247  0.23567  1.0000
  H   H828      1.0  0.27121  0.21320  0.11552  1.0000
  H   H829      1.0  0.40824  0.01904  0.08206  1.0000
  H   H830      1.0  0.32415  0.03524  0.41212  1.0000
  N   N35       1.0  0.35422  0.04707  0.44690  1.0000
  H   H831      1.0  0.36741  0.17029  0.24432  1.0000
  H   H832      1.0  0.36033  0.05886  0.40661  1.0000
  H   H833      1.0  0.36050  0.02095  0.43125  1.0000
  H   H834      1.0  0.33455  0.04289  0.05847  1.0000
  H   H835      1.0  0.36738  0.08068  0.44883  1.0000
  H   H836      1.0  0.37332  0.17487  0.29139  1.0000
  H   H837      1.0  0.38193  0.07850  0.41926  1.0000
  H   H838      1.0  0.35600  0.16096  0.20417  1.0000
  H   H839      1.0  0.33406  0.19855  0.28615  1.0000
  C   C499      1.0  0.37427  0.00120  0.22747  1.0000
  C   C500      1.0  0.27377  0.26832  0.34728  1.0000
  N   N36       1.0  0.43476  0.01126  0.24109  1.0000
  H   H840      1.0  0.26223  0.32222  0.38116  1.0000
  H   H841      1.0  0.28100  0.27278  0.36614  1.0000
  C   C501      1.0  0.38218  0.01190  0.06841  1.0000
  N   N37       1.0  0.34112  0.18077  0.25165  1.0000
  C   C502      1.0  0.25146  0.32875  0.12915  1.0000
  C   C503      1.0  0.26338  0.21038  0.13465  1.0000
  H   H842      1.0  0.36802  0.00611  0.11932  1.0000
  H   H843      1.0  0.36164  0.19587  0.29344  1.0000
  C   C504      1.0  0.25303  0.27201  0.29455  1.0000
  C   C505      1.0  0.25706  0.28005  0.34335  1.0000
  C   C506      1.0  0.25022  0.18688  0.16318  1.0000
  H   H844      1.0  0.42591  0.01668  0.19848  1.0000
  H   H845      1.0  0.34372  0.03815  0.39104  1.0000
  H   H846      1.0  0.25850  0.19259  0.17997  1.0000
  C   C507      1.0  0.44280  0.99980  0.29059  1.0000
  H   H847      1.0  0.45019  0.03009  0.21858  1.0000
  H   H848      1.0  0.26902  0.32122  0.09545  1.0000
  C   C508      1.0  0.33140  0.19667  0.26350  1.0000
  H   H849      1.0  0.47606  0.01025  0.25448  1.0000
  C   C509      1.0  0.39504  0.00376  0.46567  1.0000
  C   C510      1.0  0.25029  0.32698  0.37097  1.0000
  H   H850      1.0  0.33331  0.04536  0.09536  1.0000
  S   S152      1.0  0.26162  0.13451  0.16307  1.0000
  H   H851      1.0  0.49465  0.01092  0.47516  1.0000
  C   C511      1.0  0.36416  0.04345  0.47389  1.0000
  H   H852      1.0  0.38747  0.06745  0.45131  1.0000
  C   C512      1.0  0.33776  0.03033  0.40792  1.0000
  C   C513      1.0  0.36077  0.18270  0.25155  1.0000
  C   C514      1.0  0.27206  0.17965  0.12702  1.0000
  H   H853      1.0  0.38679  0.99817  0.06399  1.0000
  C   C515      1.0  0.33513  0.21433  0.24915  1.0000
  C   C516      1.0  0.37632  0.07141  0.43741  1.0000
  C   C517      1.0  0.28730  0.17870  0.14841  1.0000
  H   H854      1.0  0.27302  0.21196  0.15203  1.0000
  H   H855      1.0  0.33955  0.18990  0.20837  1.0000
  H   H856      1.0  0.39133  0.03326  0.09597  1.0000
  H   H857      1.0  0.25872  0.12981  0.33459  1.0000
  H   H858      1.0  0.27808  0.18332  0.10668  1.0000
  C   C518      1.0  0.46873  0.01034  0.23428  1.0000
  H   H859      1.0  0.32058  0.17926  0.22027  1.0000
  C   C519      1.0  0.42116  0.02344  0.25453  1.0000
  H   H860      1.0  0.32329  0.15981  0.25977  1.0000
  C   C520      1.0  0.36962  0.18707  0.27975  1.0000
  C   C521      1.0  0.33416  0.16581  0.29957  1.0000
  H   H861      1.0  0.29706  0.16846  0.14152  1.0000
  H   H862      1.0  0.29426  0.19124  0.14989  1.0000
  H   H863      1.0  0.28282  0.17478  0.16951  1.0000
  S   S153      1.0  0.26805  0.32519  0.15555  1.0000
  H   H864      1.0  0.45339  0.03017  0.25552  1.0000
  H   H865      1.0  0.40635  0.04812  0.24994  1.0000
  H   H866      1.0  0.34092  0.08176  0.42481  1.0000
  H   H867      1.0  0.25140  0.28228  0.36447  1.0000
  H   H868      1.0  0.26379  0.26185  0.29531  1.0000
  H   H869      1.0  0.27081  0.25432  0.35037  1.0000
  H   H870      1.0  0.48780  0.04732  0.40127  1.0000
  H   H871      1.0  0.34047  0.02255  0.45033  1.0000
  H   H872      1.0  0.38477  0.01948  0.04897  1.0000
  S   S154      1.0  0.29964  0.32282  0.22016  1.0000
  C   C522      1.0  0.35542  0.01395  0.02253  1.0000
  H   H873      1.0  0.41853  0.00625  0.99597  1.0000
  H   H874      1.0  0.25942  0.28458  0.28927  1.0000
  H   H875      1.0  0.43181  0.00611  0.30250  1.0000
  H   H876      1.0  0.36853  0.01103  0.01319  1.0000
  H   H877      1.0  0.25778  0.18479  0.07345  1.0000
  S   S155      1.0  0.28404  0.32664  0.28367  1.0000
  H   H878      1.0  0.32902  0.06419  0.40943  1.0000
  H   H879      1.0  0.35324  0.02835  0.02408  1.0000
  H   H880      1.0  0.34110  0.06782  0.47122  1.0000
  H   H881      1.0  0.48555  0.03224  0.47189  1.0000
  C   C523      1.0  0.49711  0.02474  0.48044  1.0000
  H   H882      1.0  0.25042  0.26438  0.25085  1.0000
  H   H883      1.0  0.25162  0.20771  0.08004  1.0000
  H   H884      1.0  0.26153  0.29320  0.33678  1.0000
  H   H885      1.0  0.45436  0.00826  0.29144  1.0000
  C   C524      1.0  0.24964  0.13245  0.37754  1.0000
  C   C525      1.0  0.24963  0.22543  0.13878  1.0000
  H   H886      1.0  0.24868  0.27599  0.03687  1.0000
  C   C526      1.0  0.34190  0.99864  0.11202  1.0000
  C   C527      1.0  0.40733  0.99804  0.99297  1.0000
  Fe  Fe76      1.0  0.25755  0.14634  0.77373  1.0000
  S   S156      1.0  0.28208  0.15942  0.78794  1.0000
  C   C528      1.0  0.34512  0.01774  0.80916  1.0000
  Fe  Fe77      1.0  0.26779  0.14659  0.71067  1.0000
  S   S157      1.0  0.29322  0.15965  0.72128  1.0000
  S   S158      1.0  0.26277  0.13984  0.66385  1.0000
  Fe  Fe78      1.0  0.29591  0.14042  0.75779  1.0000
  S   S159      1.0  0.32258  0.12518  0.76362  1.0000
  Fe  Fe79      1.0  0.27748  0.17732  0.75059  1.0000
  S   S160      1.0  0.27162  0.20709  0.75002  1.0000
  S   S161      1.0  0.27132  0.12647  0.74541  1.0000
  H   H887      1.0  0.27941  0.19573  0.69537  1.0000
  H   H888      1.0  0.30973  0.19116  0.68124  1.0000
  H   H889      1.0  0.45263  0.09333  0.88033  1.0000
  Fe  Fe80      1.0  0.29572  0.30740  0.74580  1.0000
  S   S162      1.0  0.30950  0.28080  0.75396  1.0000
  C   C529      1.0  0.27473  0.26034  0.83036  1.0000
  Fe  Fe81      1.0  0.40000  0.02151  0.89437  1.0000
  S   S163      1.0  0.40359  0.04992  0.88188  1.0000
  H   H890      1.0  0.38186  0.04243  0.75753  1.0000
  Fe  Fe82      1.0  0.39524  0.01110  0.83235  1.0000
  S   S164      1.0  0.39884  0.03835  0.81614  1.0000
  H   H891      1.0  0.41020  0.09953  0.78991  1.0000
  Fe  Fe83      1.0  0.42119  0.03911  0.84743  1.0000
  S   S165      1.0  0.44528  0.05322  0.83129  1.0000
  Fe  Fe84      1.0  0.38106  0.04710  0.85130  1.0000
  S   S166      1.0  0.35713  0.06634  0.84608  1.0000
  S   S167      1.0  0.41883  0.01107  0.86105  1.0000
  S   S168      1.0  0.37618  0.01952  0.86642  1.0000
  H   H892      1.0  0.26759  0.28423  0.89643  1.0000
  H   H893      1.0  0.39287  0.13913  0.84250  1.0000
  H   H894      1.0  0.28306  0.25530  0.84804  1.0000
  C   C530      1.0  0.40082  0.09037  0.83118  1.0000
  H   H895      1.0  0.30461  0.16223  0.64232  1.0000
  H   H896      1.0  0.40296  0.13886  0.80828  1.0000
  C   C531      1.0  0.46847  0.05407  0.83632  1.0000
  C   C532      1.0  0.47677  0.06846  0.82459  1.0000
  C   C533      1.0  0.47881  0.04131  0.85065  1.0000
  H   H897      1.0  0.46907  0.07836  0.81337  1.0000
  H   H898      1.0  0.47261  0.03008  0.85978  1.0000
  C   C534      1.0  0.33158  0.10846  0.78656  1.0000
  C   C535      1.0  0.32308  0.10305  0.81102  1.0000
  C   C536      1.0  0.33110  0.09024  0.82884  1.0000
  C   C537      1.0  0.34765  0.08242  0.82247  1.0000
  C   C538      1.0  0.35600  0.08760  0.79777  1.0000
  C   C539      1.0  0.34811  0.10057  0.78014  1.0000
  H   H899      1.0  0.31042  0.10893  0.81643  1.0000
  H   H900      1.0  0.32440  0.08640  0.84779  1.0000
  H   H901      1.0  0.36853  0.08161  0.79215  1.0000
  H   H902      1.0  0.35483  0.10455  0.76129  1.0000
  C   C540      1.0  0.28282  0.22720  0.75079  1.0000
  C   C541      1.0  0.30071  0.22819  0.75710  1.0000
  C   C542      1.0  0.30873  0.24467  0.75787  1.0000
  C   C543      1.0  0.29902  0.26028  0.75212  1.0000
  C   C544      1.0  0.28118  0.25921  0.74560  1.0000
  C   C545      1.0  0.27313  0.24281  0.74515  1.0000
  H   H903      1.0  0.30833  0.21630  0.76160  1.0000
  C   C546      1.0  0.37380  0.04717  0.73955  1.0000
  H   H904      1.0  0.27355  0.27103  0.74088  1.0000
  H   H905      1.0  0.25928  0.24221  0.74024  1.0000
  H   H906      1.0  0.35427  0.00753  0.81800  1.0000
  H   H907      1.0  0.37636  0.03875  0.72088  1.0000
  H   H908      1.0  0.31939  0.02513  0.77008  1.0000
  H   H909      1.0  0.38816  0.12250  0.81667  1.0000
  N   N38       1.0  0.41099  0.10212  0.85040  1.0000
  H   H910      1.0  0.32074  0.03948  0.74159  1.0000
  H   H911      1.0  0.27846  0.21784  0.68327  1.0000
  H   H912      1.0  0.25099  0.26889  0.78418  1.0000
  H   H913      1.0  0.43426  0.10223  0.89925  1.0000
  H   H914      1.0  0.26292  0.14587  0.89412  1.0000
  H   H915      1.0  0.26298  0.14380  0.84201  1.0000
  H   H916      1.0  0.36318  0.01503  0.73541  1.0000
  C   C547      1.0  0.38138  0.10700  0.87734  1.0000
  H   H917      1.0  0.29720  0.20937  0.62478  1.0000
  C   C548      1.0  0.39728  0.00353  0.75316  1.0000
  H   H918      1.0  0.40283  0.01537  0.71311  1.0000
  H   H919      1.0  0.42442  0.11832  0.82002  1.0000
  C   C549      1.0  0.27498  0.20632  0.59780  1.0000
  H   H920      1.0  0.32255  0.24533  0.76294  1.0000
  C   C550      1.0  0.34898  0.01745  0.73951  1.0000
  C   C551      1.0  0.40881  0.08714  0.80178  1.0000
  H   H921      1.0  0.40677  0.11575  0.89002  1.0000
  H   H922      1.0  0.30707  0.27333  0.82165  1.0000
  C   C552      1.0  0.39825  0.00380  0.72365  1.0000
  C   C553      1.0  0.25812  0.27645  0.88424  1.0000
  H   H923      1.0  0.27576  0.19218  0.59227  1.0000
  C   C554      1.0  0.39860  0.13046  0.82588  1.0000
  H   H924      1.0  0.32435  0.06495  0.77213  1.0000
  H   H925      1.0  0.31016  0.21301  0.66534  1.0000
  C   C555      1.0  0.42847  0.09290  0.85619  1.0000
  S   S169      1.0  0.40447  0.01466  0.94137  1.0000
  H   H926      1.0  0.35250  0.06007  0.76085  1.0000
  H   H927      1.0  0.40117  0.01478  0.76521  1.0000
  H   H928      1.0  0.34085  0.03774  0.49980  1.0000
  H   H929      1.0  0.26227  0.26240  0.88445  1.0000
  H   H930      1.0  0.28398  0.30244  0.85056  1.0000
  H   H931      1.0  0.37674  0.11733  0.86263  1.0000
  H   H932      1.0  0.40400  0.09268  0.89180  1.0000
  H   H933      1.0  0.43652  0.09166  0.83677  1.0000
  H   H934      1.0  0.30697  0.21034  0.70201  1.0000
  H   H935      1.0  0.44039  0.00074  0.63272  1.0000
  N   N39       1.0  0.34611  0.03254  0.75970  1.0000
  H   H936      1.0  0.37502  0.09452  0.87210  1.0000
  H   H937      1.0  0.34696  0.05236  0.72692  1.0000
  H   H938      1.0  0.47813  0.01966  0.77131  1.0000
  C   C556      1.0  0.44039  0.10157  0.87814  1.0000
  H   H939      1.0  0.37661  0.11082  0.89859  1.0000
  H   H940      1.0  0.38721  0.09540  0.82772  1.0000
  H   H941      1.0  0.37840  0.06044  0.73407  1.0000
  H   H942      1.0  0.39991  0.07879  0.78947  1.0000
  H   H943      1.0  0.25829  0.23978  0.84762  1.0000
  C   C557      1.0  0.41454  0.11964  0.83720  1.0000
  H   H944      1.0  0.30720  0.05222  0.78599  1.0000
  H   H945      1.0  0.32821  0.05130  0.80273  1.0000
  C   C558      1.0  0.28117  0.17912  0.64546  1.0000
  C   C559      1.0  0.28374  0.20439  0.67811  1.0000
  C   C560      1.0  0.32666  0.03655  0.76258  1.0000
  H   H946      1.0  0.29043  0.28222  0.86682  1.0000
  H   H947      1.0  0.42098  0.12835  0.85261  1.0000
  H   H948      1.0  0.44445  0.11477  0.87149  1.0000
  H   H949      1.0  0.26578  0.30292  0.80892  1.0000
  S   S170      1.0  0.26825  0.30942  0.72923  1.0000
  C   C561      1.0  0.32158  0.05214  0.78204  1.0000
  S   S171      1.0  0.27457  0.33060  0.65250  1.0000
  H   H950      1.0  0.28247  0.21350  0.58167  1.0000
  C   C562      1.0  0.40155  0.00461  0.49333  1.0000
  H   H951      1.0  0.42158  0.07980  0.80274  1.0000
  H   H952      1.0  0.39914  0.07734  0.84114  1.0000
  H   H953      1.0  0.35808  0.04139  0.79823  1.0000
  H   H954      1.0  0.42648  0.07923  0.86358  1.0000
  C   C563      1.0  0.26678  0.28840  0.80630  1.0000
  H   H955      1.0  0.30948  0.18444  0.63537  1.0000
  H   H956      1.0  0.27137  0.17321  0.63115  1.0000
  H   H957      1.0  0.31481  0.29171  0.84083  1.0000
  H   H958      1.0  0.27768  0.28589  0.79119  1.0000
  C   C564      1.0  0.35402  0.04857  0.74665  1.0000
  N   N40       1.0  0.27652  0.19828  0.65036  1.0000
  C   C565      1.0  0.28675  0.28821  0.84626  1.0000
  C   C566      1.0  0.28274  0.21000  0.62712  1.0000
  C   C567      1.0  0.25574  0.28372  0.85420  1.0000
  S   S172      1.0  0.29177  0.32755  0.78033  1.0000
  H   H959      1.0  0.33378  0.01064  0.80106  1.0000
  C   C568      1.0  0.35511  0.02883  0.78745  1.0000
  C   C569      1.0  0.30384  0.20465  0.68116  1.0000
  C   C570      1.0  0.29937  0.17454  0.63247  1.0000
  S   S173      1.0  0.30565  0.32749  0.71539  1.0000
  H   H960      1.0  0.35465  0.01860  0.49103  1.0000
  C   C571      1.0  0.40156  0.10442  0.87816  1.0000
  H   H961      1.0  0.36165  0.03380  0.51670  1.0000
  S   S174      1.0  0.25210  0.16501  0.73815  1.0000
  C   C572      1.0  0.25066  0.14510  0.85325  1.0000
  H   H962      1.0  0.34293  0.02065  0.71872  1.0000
  H   H963      1.0  0.36810  0.02210  0.78393  1.0000
  C   C573      1.0  0.39796  0.99910  0.96741  1.0000
  C   C574      1.0  0.25059  0.14619  0.88278  1.0000
  C   C575      1.0  0.25895  0.24802  0.82846  1.0000
  H   H964      1.0  0.26272  0.13376  0.60416  1.0000
  H   H965      1.0  0.28029  0.17170  0.66547  1.0000
  H   H966      1.0  0.28284  0.25804  0.81113  1.0000
  H   H967      1.0  0.26113  0.23871  0.81067  1.0000
  H   H968      1.0  0.29802  0.17141  0.60979  1.0000
  H   H969      1.0  0.27960  0.22403  0.63226  1.0000
  Fe  Fe85      1.0  0.27749  0.33077  0.70076  1.0000
  H   H970      1.0  0.45355  0.00048  0.68087  1.0000
  C   C576      1.0  0.49118  0.01583  0.78021  1.0000
  C   C577      1.0  0.30360  0.28695  0.82829  1.0000
  C   C578      1.0  0.35452  0.03280  0.49640  1.0000
  C   C579      1.0  0.25043  0.14057  0.60908  1.0000
  H   H971      1.0  0.30260  0.29554  0.80961  1.0000
  N   N41       1.0  0.27070  0.27974  0.83416  1.0000
  H   H972      1.0  0.49011  0.01624  0.80349  1.0000
  H   H973      1.0  0.27307  0.32737  0.59242  1.0000
  H   H974      1.0  0.34083  0.02604  0.82726  1.0000
  C   C580      1.0  0.49489  0.07050  0.82759  1.0000
  H   H975      1.0  0.25348  0.29821  0.85611  1.0000
  H   H976      1.0  0.24986  0.19880  0.69659  1.0000
  C   C581      1.0  0.49731  0.04319  0.85319  1.0000
  C   C582      1.0  0.25673  0.20051  0.65166  1.0000
  H   H977      1.0  0.41169  0.01379  0.49824  1.0000
  H   H978      1.0  0.25204  0.17771  0.67898  1.0000
  H   H979      1.0  0.26111  0.21115  0.59628  1.0000
  H   H980      1.0  0.25051  0.19504  0.63248  1.0000
  Fe  Fe86      1.0  0.26465  0.33054  0.76210  1.0000
  H   H981      1.0  0.49365  0.00217  0.77320  1.0000
  H   H982      1.0  0.25269  0.21469  0.65236  1.0000
  C   C583      1.0  0.25004  0.28279  0.79091  1.0000
  H   H983      1.0  0.36777  0.05593  0.48427  1.0000
  H   H984      1.0  0.32805  0.99963  0.75288  1.0000
  C   C584      1.0  0.34235  0.99947  0.74874  1.0000
  H   H985      1.0  0.49733  0.02637  0.50362  1.0000
  H   H986      1.0  0.24860  0.29061  0.77135  1.0000
  H   H987      1.0  0.24861  0.19820  0.95060  1.0000
  H   H988      1.0  0.27273  0.65005  0.09768  1.0000
  C   C585      1.0  0.42555  0.61727  0.18001  1.0000
  H   H989      1.0  0.42665  0.59061  0.09894  1.0000
  H   H990      1.0  0.39298  0.37892  0.25920  1.0000
  Fe  Fe87      1.0  0.29417  0.34510  0.25100  1.0000
  S   S175      1.0  0.30839  0.37076  0.26266  1.0000
  S   S176      1.0  0.26712  0.35064  0.23251  1.0000
  Fe  Fe88      1.0  0.38586  0.43068  0.34002  1.0000
  S   S177      1.0  0.37118  0.45669  0.34529  1.0000
  S   S178      1.0  0.37469  0.40413  0.32545  1.0000
  Fe  Fe89      1.0  0.42134  0.44643  0.35978  1.0000
  S   S179      1.0  0.40861  0.47320  0.36529  1.0000
  S   S180      1.0  0.44928  0.44438  0.37795  1.0000
  Fe  Fe90      1.0  0.38634  0.45986  0.38609  1.0000
  S   S181      1.0  0.37440  0.46799  0.42893  1.0000
  Fe  Fe91      1.0  0.39494  0.46793  0.32436  1.0000
  S   S182      1.0  0.39534  0.49044  0.29310  1.0000
  S   S183      1.0  0.39939  0.43299  0.38226  1.0000
  S   S184      1.0  0.40915  0.44199  0.31727  1.0000
  Fe  Fe92      1.0  0.39051  0.51195  0.13569  1.0000
  S   S185      1.0  0.40197  0.53566  0.15551  1.0000
  S   S186      1.0  0.37859  0.49089  0.16299  1.0000
  Fe  Fe93      1.0  0.39865  0.52405  0.07579  1.0000
  S   S187      1.0  0.41052  0.54901  0.09244  1.0000
  S   S188      1.0  0.40128  0.52053  0.02768  1.0000
  Fe  Fe94      1.0  0.42401  0.53164  0.12445  1.0000
  S   S189      1.0  0.45140  0.53216  0.14397  1.0000
  Fe  Fe95      1.0  0.38738  0.55111  0.12239  1.0000
  S   S190      1.0  0.37558  0.57827  0.13526  1.0000
  S   S191      1.0  0.41344  0.50671  0.10675  1.0000
  S   S192      1.0  0.37454  0.52750  0.10355  1.0000
  N   N42       1.0  0.25608  0.60720  0.43035  1.0000
  C   C586      1.0  0.25387  0.65942  0.36710  1.0000
  C   C587      1.0  0.25208  0.65227  0.33991  1.0000
  H   H991      1.0  0.30511  0.35336  0.36024  1.0000
  H   H992      1.0  0.49262  0.42898  0.30395  1.0000
  H   H993      1.0  0.26560  0.60028  0.37220  1.0000
  Fe  Fe96      1.0  0.29401  0.63194  0.21790  1.0000
  S   S193      1.0  0.30723  0.60551  0.20396  1.0000
  S   S194      1.0  0.26601  0.63098  0.23433  1.0000
  C   C588      1.0  0.35647  0.58550  0.15446  1.0000
  C   C589      1.0  0.35468  0.60330  0.16246  1.0000
  C   C590      1.0  0.33979  0.60971  0.17751  1.0000
  C   C591      1.0  0.32640  0.59839  0.18484  1.0000
  C   C592      1.0  0.32813  0.58064  0.17660  1.0000
  C   C593      1.0  0.34300  0.57423  0.16154  1.0000
  H   H994      1.0  0.36492  0.61222  0.15702  1.0000
  H   H995      1.0  0.33872  0.62340  0.18355  1.0000
  H   H996      1.0  0.31777  0.57179  0.18180  1.0000
  H   H997      1.0  0.34398  0.56060  0.15519  1.0000
  C   C594      1.0  0.47201  0.53634  0.12834  1.0000
  H   H998      1.0  0.26675  0.57449  0.40870  1.0000
  C   C595      1.0  0.47338  0.54424  0.10194  1.0000
  H   H999      1.0  0.26240  0.62818  0.40192  1.0000
  H   H1000     1.0  0.46165  0.54707  0.08973  1.0000
  C   C596      1.0  0.38217  0.48241  0.45568  1.0000
  H   H1001     1.0  0.43888  0.50118  0.99145  1.0000
  C   C597      1.0  0.38643  0.48947  0.00815  1.0000
  C   C598      1.0  0.39546  0.50469  0.00170  1.0000
  H   H1002     1.0  0.42566  0.42411  0.45157  1.0000
  C   C599      1.0  0.39480  0.49495  0.45031  1.0000
  H   H1003     1.0  0.41051  0.51551  0.46757  1.0000
  H   H1004     1.0  0.38261  0.48703  0.02965  1.0000
  C   C600      1.0  0.48513  0.44762  0.37867  1.0000
  H   H1005     1.0  0.39987  0.49634  0.42924  1.0000
  C   C601      1.0  0.39293  0.48779  0.25650  1.0000
  C   C602      1.0  0.38057  0.47654  0.24521  1.0000
  C   C603      1.0  0.37680  0.47699  0.21620  1.0000
  C   C604      1.0  0.38538  0.48870  0.19839  1.0000
  C   C605      1.0  0.39831  0.49931  0.20958  1.0000
  C   C606      1.0  0.40189  0.49902  0.23853  1.0000
  H   H1006     1.0  0.37321  0.46831  0.25913  1.0000
  H   H1007     1.0  0.36670  0.46883  0.20773  1.0000
  H   H1008     1.0  0.40531  0.50806  0.19608  1.0000
  H   H1009     1.0  0.41144  0.50778  0.24715  1.0000
  H   H1010     1.0  0.25559  0.56584  0.43903  1.0000
  C   C607      1.0  0.47050  0.44311  0.36235  1.0000
  C   C608      1.0  0.47330  0.43677  0.33509  1.0000
  H   H1011     1.0  0.30033  0.63394  0.13683  1.0000
  H   H1012     1.0  0.46222  0.43305  0.32243  1.0000
  C   C609      1.0  0.32658  0.37957  0.28153  1.0000
  C   C610      1.0  0.34017  0.36903  0.29300  1.0000
  C   C611      1.0  0.35446  0.37678  0.30693  1.0000
  C   C612      1.0  0.35535  0.39515  0.31012  1.0000
  C   C613      1.0  0.34151  0.40566  0.29931  1.0000
  C   C614      1.0  0.32741  0.39793  0.28488  1.0000
  H   H1013     1.0  0.33984  0.35492  0.29072  1.0000
  H   H1014     1.0  0.36504  0.36844  0.31506  1.0000
  H   H1015     1.0  0.34188  0.41977  0.30149  1.0000
  H   H1016     1.0  0.31710  0.40629  0.27601  1.0000
  C   C615      1.0  0.38216  0.47743  0.98671  1.0000
  H   H1017     1.0  0.27870  0.56730  0.43877  1.0000
  H   H1018     1.0  0.45352  0.43732  0.44664  1.0000
  H   H1019     1.0  0.28371  0.34833  0.34841  1.0000
  H   H1020     1.0  0.40202  0.41230  0.16731  1.0000
  H   H1021     1.0  0.24872  0.61167  0.10540  1.0000
  H   H1022     1.0  0.25809  0.59020  0.46658  1.0000
  H   H1023     1.0  0.25773  0.36099  0.35610  1.0000
  N   N43       1.0  0.43753  0.58751  0.15933  1.0000
  H   H1024     1.0  0.27870  0.59603  0.45240  1.0000
  H   H1025     1.0  0.42547  0.58961  0.21815  1.0000
  N   N44       1.0  0.38079  0.41253  0.23211  1.0000
  C   C616      1.0  0.36795  0.42619  0.24365  1.0000
  C   C617      1.0  0.39761  0.41402  0.24869  1.0000
  C   C618      1.0  0.37299  0.39468  0.23631  1.0000
  C   C619      1.0  0.38328  0.41623  0.20129  1.0000
  C   C620      1.0  0.34909  0.42597  0.23164  1.0000
  C   C621      1.0  0.40730  0.43140  0.24517  1.0000
  H   H1026     1.0  0.36692  0.42497  0.26695  1.0000
  H   H1027     1.0  0.37257  0.43962  0.23969  1.0000
  H   H1028     1.0  0.40737  0.40346  0.24346  1.0000
  H   H1029     1.0  0.39498  0.41221  0.27156  1.0000
  H   H1030     1.0  0.36512  0.39446  0.25590  1.0000
  H   H1031     1.0  0.36354  0.39171  0.21919  1.0000
  H   H1032     1.0  0.37083  0.41423  0.18961  1.0000
  H   H1033     1.0  0.38587  0.43033  0.19733  1.0000
  H   H1034     1.0  0.34869  0.42984  0.20919  1.0000
  H   H1035     1.0  0.34287  0.41312  0.23436  1.0000
  H   H1036     1.0  0.34078  0.43579  0.24321  1.0000
  H   H1037     1.0  0.41074  0.43404  0.22299  1.0000
  H   H1038     1.0  0.39977  0.44277  0.25406  1.0000
  H   H1039     1.0  0.41988  0.43045  0.25702  1.0000
  C   C622      1.0  0.45194  0.58158  0.13934  1.0000
  N   N45       1.0  0.35497  0.53667  0.23350  1.0000
  C   C623      1.0  0.35908  0.52007  0.24978  1.0000
  C   C624      1.0  0.37063  0.54046  0.21534  1.0000
  C   C625      1.0  0.33916  0.53464  0.21489  1.0000
  C   C626      1.0  0.35110  0.55132  0.25405  1.0000
  C   C627      1.0  0.34382  0.51234  0.26656  1.0000
  C   C628      1.0  0.38696  0.54689  0.23103  1.0000
  C   C629      1.0  0.34054  0.51954  0.19326  1.0000
  C   C630      1.0  0.34739  0.56970  0.24120  1.0000
  H   H1040     1.0  0.36410  0.50956  0.23558  1.0000
  H   H1041     1.0  0.36987  0.52205  0.26514  1.0000
  H   H1042     1.0  0.36726  0.55017  0.19858  1.0000
  H   H1043     1.0  0.37499  0.52849  0.20354  1.0000
  H   H1044     1.0  0.32705  0.53297  0.22755  1.0000
  H   H1045     1.0  0.33652  0.54684  0.20263  1.0000
  H   H1046     1.0  0.33922  0.54849  0.26663  1.0000
  H   H1047     1.0  0.36163  0.55228  0.27020  1.0000
  H   H1048     1.0  0.34886  0.50036  0.27763  1.0000
  H   H1049     1.0  0.33873  0.52145  0.28298  1.0000
  H   H1050     1.0  0.33298  0.50816  0.25276  1.0000
  H   H1051     1.0  0.39124  0.53782  0.24805  1.0000
  H   H1052     1.0  0.39803  0.54747  0.21598  1.0000
  H   H1053     1.0  0.38472  0.56032  0.23960  1.0000
  H   H1054     1.0  0.35108  0.52166  0.17764  1.0000
  H   H1055     1.0  0.32802  0.51906  0.18132  1.0000
  H   H1056     1.0  0.34267  0.50651  0.20325  1.0000
  H   H1057     1.0  0.33313  0.57186  0.23694  1.0000
  H   H1058     1.0  0.35467  0.57203  0.22155  1.0000
  H   H1059     1.0  0.35171  0.57995  0.25608  1.0000
  C   C631      1.0  0.44137  0.60576  0.16965  1.0000
  C   C632      1.0  0.42605  0.45927  0.44054  1.0000
  H   H1060     1.0  0.48647  0.52681  0.16447  1.0000
  N   N46       1.0  0.27248  0.38165  0.33652  1.0000
  C   C633      1.0  0.27106  0.40143  0.33661  1.0000
  C   C634      1.0  0.40079  0.50586  0.47214  1.0000
  C   C635      1.0  0.26680  0.37420  0.30872  1.0000
  C   C636      1.0  0.29139  0.37611  0.34151  1.0000
  C   C637      1.0  0.28114  0.41081  0.31315  1.0000
  H   H1061     1.0  0.43104  0.48087  0.41239  1.0000
  Fe  Fe97      1.0  0.26068  0.65353  0.20460  1.0000
  C   C638      1.0  0.29531  0.35611  0.34338  1.0000
  H   H1062     1.0  0.29516  0.65630  0.09152  1.0000
  H   H1063     1.0  0.27603  0.40673  0.35680  1.0000
  H   H1064     1.0  0.45785  0.48818  0.00325  1.0000
  H   H1065     1.0  0.31392  0.63940  0.07070  1.0000
  H   H1066     1.0  0.27628  0.37721  0.29180  1.0000
  H   H1067     1.0  0.26687  0.35960  0.30953  1.0000
  H   H1068     1.0  0.29981  0.38080  0.32417  1.0000
  H   H1069     1.0  0.29683  0.38257  0.36048  1.0000
  H   H1070     1.0  0.29555  0.40919  0.31592  1.0000
  H   H1071     1.0  0.27738  0.40647  0.29181  1.0000
  H   H1072     1.0  0.27804  0.42513  0.31435  1.0000
  H   H1073     1.0  0.47448  0.59129  0.16387  1.0000
  C   C639      1.0  0.42321  0.57752  0.20588  1.0000
  H   H1074     1.0  0.32612  0.64342  0.12045  1.0000
  H   H1075     1.0  0.25709  0.40612  0.33550  1.0000
  H   H1076     1.0  0.33822  0.62272  0.11549  1.0000
  C   C640      1.0  0.43598  0.47592  0.43290  1.0000
  S   S195      1.0  0.26891  0.65585  0.31431  1.0000
  C   C641      1.0  0.33149  0.63395  0.10475  1.0000
  H   H1077     1.0  0.48313  0.52516  0.03715  1.0000
  H   H1078     1.0  0.42419  0.56647  0.22109  1.0000
  H   H1079     1.0  0.42177  0.47548  0.98399  1.0000
  H   H1080     1.0  0.43332  0.48667  0.44811  1.0000
  H   H1081     1.0  0.42733  0.45006  0.42253  1.0000
  H   H1082     1.0  0.34181  0.64078  0.09288  1.0000
  C   C642      1.0  0.38583  0.37871  0.23884  1.0000
  C   C643      1.0  0.48995  0.54911  0.09183  1.0000
  H   H1083     1.0  0.39683  0.43836  0.44525  1.0000
  H   H1084     1.0  0.40534  0.59848  0.10913  1.0000
  H   H1085     1.0  0.48814  0.49277  0.28974  1.0000
  H   H1086     1.0  0.48313  0.45245  0.39983  1.0000
  H   H1087     1.0  0.27013  0.39070  0.39497  1.0000
  C   C644      1.0  0.26058  0.37500  0.35924  1.0000
  H   H1088     1.0  0.27544  0.62149  0.03526  1.0000
  H   H1089     1.0  0.39529  0.37771  0.22129  1.0000
  H   H1090     1.0  0.43007  0.62597  0.19714  1.0000
  H   H1091     1.0  0.39531  0.42237  0.47214  1.0000
  H   H1092     1.0  0.28046  0.62046  0.42264  1.0000
  H   H1093     1.0  0.42407  0.61088  0.11872  1.0000
  H   H1094     1.0  0.37509  0.46579  0.99205  1.0000
  H   H1095     1.0  0.49083  0.55571  0.07180  1.0000
  H   H1096     1.0  0.44873  0.56881  0.12944  1.0000
  H   H1097     1.0  0.45128  0.60511  0.18689  1.0000
  H   H1098     1.0  0.49378  0.50443  0.03091  1.0000
  H   H1099     1.0  0.45008  0.57438  0.19489  1.0000
  N   N47       1.0  0.30132  0.61997  0.09687  1.0000
  C   C645      1.0  0.30745  0.60371  0.11267  1.0000
  C   C646      1.0  0.28615  0.62660  0.04859  1.0000
  C   C647      1.0  0.28877  0.61435  0.07415  1.0000
  C   C648      1.0  0.40115  0.43514  0.46692  1.0000
  C   C649      1.0  0.29289  0.59258  0.12568  1.0000
  C   C650      1.0  0.31735  0.62785  0.08395  1.0000
  H   H1100     1.0  0.27107  0.63932  0.45592  1.0000
  H   H1101     1.0  0.48023  0.57758  0.13465  1.0000
  H   H1102     1.0  0.31554  0.59484  0.09884  1.0000
  H   H1103     1.0  0.31611  0.60716  0.13047  1.0000
  C   C651      1.0  0.26639  0.57424  0.43187  1.0000
  C   C652      1.0  0.43619  0.47273  0.98538  1.0000
  H   H1104     1.0  0.29309  0.60140  0.06516  1.0000
  H   H1105     1.0  0.27550  0.61231  0.08299  1.0000
  H   H1106     1.0  0.28025  0.62620  0.12587  1.0000
  C   C653      1.0  0.28615  0.65047  0.10679  1.0000
  H   H1107     1.0  0.28604  0.59960  0.14313  1.0000
  H   H1108     1.0  0.28323  0.58817  0.10996  1.0000
  H   H1109     1.0  0.29908  0.58055  0.13502  1.0000
  H   H1110     1.0  0.43773  0.46113  0.99948  1.0000
  H   H1111     1.0  0.45313  0.59097  0.12160  1.0000
  H   H1112     1.0  0.40921  0.40200  0.19837  1.0000
  H   H1113     1.0  0.47641  0.46373  0.99507  1.0000
  H   H1114     1.0  0.27263  0.62047  0.47940  1.0000
  H   H1115     1.0  0.25032  0.62449  0.15331  1.0000
  H   H1116     1.0  0.45025  0.47337  0.42995  1.0000
  H   H1117     1.0  0.47190  0.56767  0.16542  1.0000
  H   H1118     1.0  0.27890  0.36828  0.39380  1.0000
  H   H1119     1.0  0.44744  0.61342  0.15245  1.0000
  C   C654      1.0  0.43741  0.57454  0.18328  1.0000
  C   C655      1.0  0.49058  0.43446  0.32470  1.0000
  H   H1120     1.0  0.42079  0.62628  0.16311  1.0000
  H   H1121     1.0  0.40900  0.59100  0.15652  1.0000
  H   H1122     1.0  0.43594  0.56096  0.17504  1.0000
  H   H1123     1.0  0.32383  0.61824  0.06931  1.0000
  H   H1124     1.0  0.41197  0.46330  0.44091  1.0000
  H   H1125     1.0  0.49017  0.51997  0.00236  1.0000
  C   C656      1.0  0.39728  0.40489  0.18577  1.0000
  C   C657      1.0  0.49272  0.47954  0.29666  1.0000
  C   C658      1.0  0.26513  0.59241  0.44642  1.0000
  H   H1126     1.0  0.41439  0.61007  0.18858  1.0000
  C   C659      1.0  0.42038  0.58669  0.14356  1.0000
  H   H1127     1.0  0.41759  0.57284  0.13813  1.0000
  C   C660      1.0  0.41927  0.59740  0.11609  1.0000
  H   H1128     1.0  0.43788  0.48882  0.02296  1.0000
  C   C661      1.0  0.48740  0.53285  0.14399  1.0000
  C   C662      1.0  0.47058  0.57953  0.15197  1.0000
  H   H1129     1.0  0.39170  0.39241  0.17831  1.0000
  H   H1130     1.0  0.37816  0.36652  0.23880  1.0000
  H   H1131     1.0  0.49653  0.46740  0.25608  1.0000
  H   H1132     1.0  0.28207  0.64014  0.05443  1.0000
  N   N48       1.0  0.43131  0.45010  0.46741  1.0000
  H   H1133     1.0  0.28507  0.59451  0.39321  1.0000
  C   C663      1.0  0.29228  0.63220  0.11755  1.0000
  H   H1134     1.0  0.45901  0.45652  0.46442  1.0000
  C   C664      1.0  0.27603  0.60527  0.38606  1.0000
  H   H1135     1.0  0.29809  0.62672  0.03524  1.0000
  C   C665      1.0  0.26720  0.37693  0.38967  1.0000
  C   C666      1.0  0.45060  0.44500  0.46617  1.0000
  S   S196      1.0  0.30156  0.65088  0.25211  1.0000
  S   S197      1.0  0.28796  0.65360  0.18698  1.0000
  H   H1136     1.0  0.28572  0.65985  0.12466  1.0000
  H   H1137     1.0  0.48076  0.47174  0.29969  1.0000
  C   C667      1.0  0.44339  0.48862  0.00133  1.0000
  Fe  Fe98      1.0  0.27313  0.65166  0.26636  1.0000
  H   H1138     1.0  0.40970  0.57754  0.19719  1.0000
  H   H1139     1.0  0.28397  0.61399  0.37271  1.0000
  C   C668      1.0  0.26358  0.62998  0.46874  1.0000
  C   C669      1.0  0.26872  0.61609  0.41097  1.0000
  C   C670      1.0  0.42136  0.43324  0.46876  1.0000
  C   C671      1.0  0.24944  0.62088  0.45113  1.0000
  H   H1140     1.0  0.25677  0.37266  0.40429  1.0000
  C   C672      1.0  0.49376  0.51846  0.02480  1.0000
  H   H1141     1.0  0.30091  0.35118  0.32322  1.0000
  H   H1142     1.0  0.39559  0.44505  0.48174  1.0000
  C   C673      1.0  0.29103  0.59620  0.79175  1.0000
  H   H1143     1.0  0.42010  0.62097  0.65794  1.0000
  H   H1144     1.0  0.34221  0.63409  0.79975  1.0000
  C   C674      1.0  0.46007  0.45710  0.95873  1.0000
  N   N49       1.0  0.30689  0.37439  0.65241  1.0000
  S   S198      1.0  0.31522  0.37335  0.75353  1.0000
  S   S199      1.0  0.27158  0.35227  0.73235  1.0000
  Fe  Fe99      1.0  0.38959  0.43159  0.83944  1.0000
  S   S200      1.0  0.37547  0.45749  0.84832  1.0000
  S   S201      1.0  0.37596  0.40523  0.83151  1.0000
  Fe  Fe100     1.0  0.42596  0.44670  0.85671  1.0000
  S   S202      1.0  0.41377  0.47337  0.86578  1.0000
  S   S203      1.0  0.45387  0.44128  0.87363  1.0000
  Fe  Fe101     1.0  0.39209  0.45958  0.88758  1.0000
  S   S204      1.0  0.38140  0.46446  0.93237  1.0000
  Fe  Fe102     1.0  0.39848  0.46920  0.82577  1.0000
  S   S205      1.0  0.39561  0.49301  0.79706  1.0000
  S   S206      1.0  0.40474  0.43295  0.88021  1.0000
  S   S207      1.0  0.41205  0.44327  0.81511  1.0000
  Fe  Fe103     1.0  0.40022  0.51426  0.63606  1.0000
  S   S208      1.0  0.40293  0.54182  0.65213  1.0000
  S   S209      1.0  0.39749  0.49017  0.66360  1.0000
  Fe  Fe104     1.0  0.39967  0.52482  0.57364  1.0000
  S   S210      1.0  0.40183  0.55334  0.58582  1.0000
  S   S211      1.0  0.40263  0.51869  0.52628  1.0000
  Fe  Fe105     1.0  0.42253  0.54417  0.61675  1.0000
  S   S212      1.0  0.44713  0.56057  0.61884  1.0000
  Fe  Fe106     1.0  0.38206  0.54898  0.62030  1.0000
  S   S213      1.0  0.35766  0.56731  0.62791  1.0000
  S   S214      1.0  0.42142  0.51603  0.60317  1.0000
  S   S215      1.0  0.37827  0.52107  0.60570  1.0000
  Fe  Fe107     1.0  0.25871  0.64374  0.70383  1.0000
  S   S216      1.0  0.26736  0.65295  0.81313  1.0000
  C   C675      1.0  0.45512  0.48316  0.91132  1.0000
  S   S217      1.0  0.29595  0.66166  0.74898  1.0000
  H   H1145     1.0  0.40712  0.51929  0.96811  1.0000
  C   C676      1.0  0.25499  0.33964  0.83862  1.0000
  Fe  Fe108     1.0  0.29726  0.63806  0.71979  1.0000
  S   S218      1.0  0.32296  0.62094  0.71843  1.0000
  S   S219      1.0  0.27225  0.62707  0.73709  1.0000
  C   C677      1.0  0.34838  0.58220  0.65347  1.0000
  C   C678      1.0  0.33212  0.59079  0.64772  1.0000
  C   C679      1.0  0.32416  0.60263  0.66718  1.0000
  C   C680      1.0  0.33233  0.60608  0.69287  1.0000
  C   C681      1.0  0.34859  0.59744  0.69867  1.0000
  C   C682      1.0  0.35657  0.58564  0.67916  1.0000
  H   H1146     1.0  0.32558  0.58829  0.62799  1.0000
  H   H1147     1.0  0.31168  0.60907  0.66225  1.0000
  H   H1148     1.0  0.35511  0.59995  0.71841  1.0000
  H   H1149     1.0  0.36905  0.57922  0.68398  1.0000
  C   C683      1.0  0.46870  0.55135  0.62326  1.0000
  C   C684      1.0  0.47158  0.53369  0.63032  1.0000
  C   C685      1.0  0.48330  0.56211  0.62020  1.0000
  H   H1150     1.0  0.46050  0.52526  0.63281  1.0000
  H   H1151     1.0  0.48122  0.57580  0.61481  1.0000
  C   C686      1.0  0.38699  0.48027  0.95853  1.0000
  H   H1152     1.0  0.38181  0.58610  0.59429  1.0000
  C   C687      1.0  0.38159  0.49200  0.50513  1.0000
  C   C688      1.0  0.39426  0.50451  0.49973  1.0000
  H   H1153     1.0  0.29432  0.37382  0.58132  1.0000
  C   C689      1.0  0.39608  0.49545  0.95209  1.0000
  C   C690      1.0  0.33239  0.35659  0.67630  1.0000
  H   H1154     1.0  0.37637  0.49077  0.52613  1.0000
  C   C691      1.0  0.26011  0.33171  0.59928  1.0000
  H   H1155     1.0  0.39972  0.49800  0.93055  1.0000
  C   C692      1.0  0.39782  0.49148  0.76014  1.0000
  C   C693      1.0  0.40159  0.50665  0.74476  1.0000
  C   C694      1.0  0.40217  0.50628  0.71520  1.0000
  C   C695      1.0  0.39876  0.49076  0.70074  1.0000
  C   C696      1.0  0.39525  0.47554  0.71612  1.0000
  C   C697      1.0  0.39487  0.47585  0.74571  1.0000
  H   H1156     1.0  0.40404  0.51874  0.75581  1.0000
  H   H1157     1.0  0.40519  0.51798  0.70362  1.0000
  H   H1158     1.0  0.39262  0.46347  0.70511  1.0000
  H   H1159     1.0  0.39194  0.46409  0.75731  1.0000
  C   C698      1.0  0.48980  0.44388  0.87512  1.0000
  C   C699      1.0  0.47479  0.44389  0.85781  1.0000
  C   C700      1.0  0.47696  0.44516  0.82871  1.0000
  H   H1160     1.0  0.48831  0.44279  0.89762  1.0000
  H   H1161     1.0  0.46557  0.44505  0.81512  1.0000
  C   C701      1.0  0.33197  0.38194  0.77585  1.0000
  C   C702      1.0  0.33744  0.39927  0.77148  1.0000
  C   C703      1.0  0.35076  0.40665  0.78819  1.0000
  C   C704      1.0  0.35894  0.39678  0.80959  1.0000
  C   C705      1.0  0.35339  0.37950  0.81407  1.0000
  C   C706      1.0  0.34003  0.37214  0.79743  1.0000
  H   H1162     1.0  0.33140  0.40704  0.75489  1.0000
  H   H1163     1.0  0.35482  0.41990  0.78429  1.0000
  H   H1164     1.0  0.35958  0.37165  0.83044  1.0000
  H   H1165     1.0  0.33611  0.35882  0.80115  1.0000
  H   H1166     1.0  0.33133  0.58551  0.79072  1.0000
  C   C707      1.0  0.25465  0.34258  0.86782  1.0000
  H   H1167     1.0  0.33509  0.60781  0.78003  1.0000
  H   H1168     1.0  0.46813  0.47624  0.91212  1.0000
  H   H1169     1.0  0.49081  0.51331  0.64048  1.0000
  H   H1170     1.0  0.26733  0.62855  0.58736  1.0000
  H   H1171     1.0  0.38711  0.59605  0.56165  1.0000
  C   C708      1.0  0.29503  0.37343  0.62698  1.0000
  H   H1172     1.0  0.29458  0.61672  0.88969  1.0000
  C   C709      1.0  0.30422  0.37152  0.59821  1.0000
  H   H1173     1.0  0.44748  0.61895  0.63328  1.0000
  H   H1174     1.0  0.42457  0.45273  0.51140  1.0000
  H   H1175     1.0  0.41740  0.63135  0.62541  1.0000
  H   H1176     1.0  0.27895  0.59608  0.80478  1.0000
  H   H1177     1.0  0.45537  0.49437  0.95228  1.0000
  H   H1178     1.0  0.33470  0.60984  0.83973  1.0000
  H   H1179     1.0  0.43415  0.49305  0.93804  1.0000
  H   H1180     1.0  0.27562  0.38938  0.70145  1.0000
  H   H1181     1.0  0.30962  0.35796  0.59501  1.0000
  H   H1182     1.0  0.49295  0.54505  0.52704  1.0000
  H   H1183     1.0  0.41544  0.44600  0.97465  1.0000
  C   C710      1.0  0.32813  0.43005  0.85178  1.0000
  Fe  Fe109     1.0  0.29942  0.34797  0.74858  1.0000
  H   H1184     1.0  0.35446  0.42669  0.86689  1.0000
  H   H1185     1.0  0.28597  0.36229  0.62886  1.0000
  C   C711      1.0  0.25479  0.63138  0.59729  1.0000
  S   S220      1.0  0.28364  0.65325  0.68501  1.0000
  H   H1186     1.0  0.28636  0.38541  0.62536  1.0000
  H   H1187     1.0  0.39224  0.58210  0.63837  1.0000
  H   H1188     1.0  0.30924  0.40167  0.64100  1.0000
  H   H1189     1.0  0.33160  0.65518  0.79765  1.0000
  H   H1190     1.0  0.32032  0.59226  0.83406  1.0000
  H   H1191     1.0  0.28819  0.36147  0.67878  1.0000
  H   H1192     1.0  0.32600  0.44411  0.85711  1.0000
  H   H1193     1.0  0.31072  0.34611  0.65303  1.0000
  H   H1194     1.0  0.34257  0.45797  0.94792  1.0000
  H   H1195     1.0  0.26549  0.63063  0.63942  1.0000
  H   H1196     1.0  0.34274  0.36641  0.67394  1.0000
  H   H1197     1.0  0.41410  0.58059  0.62665  1.0000
  C   C712      1.0  0.31619  0.63613  0.81978  1.0000
  H   H1198     1.0  0.24937  0.33253  0.55704  1.0000
  C   C713      1.0  0.41895  0.61813  0.63527  1.0000
  H   H1199     1.0  0.32749  0.44087  0.95339  1.0000
  H   H1200     1.0  0.44643  0.47128  0.52125  1.0000
  C   C714      1.0  0.30410  0.62098  0.87356  1.0000
  H   H1201     1.0  0.40377  0.61922  0.58700  1.0000
  H   H1202     1.0  0.44644  0.47626  0.89663  1.0000
  H   H1203     1.0  0.42416  0.42615  0.48876  1.0000
  N   N50       1.0  0.30997  0.61751  0.82008  1.0000
  H   H1204     1.0  0.26798  0.65617  0.87332  1.0000
  H   H1205     1.0  0.31607  0.40952  0.68590  1.0000
  H   H1206     1.0  0.34716  0.39538  0.90985  1.0000
  H   H1207     1.0  0.43970  0.59718  0.63572  1.0000
  N   N51       1.0  0.34675  0.52356  0.70424  1.0000
  C   C715      1.0  0.35863  0.52850  0.72821  1.0000
  C   C716      1.0  0.33239  0.51245  0.71588  1.0000
  C   C717      1.0  0.33860  0.53956  0.69029  1.0000
  C   C718      1.0  0.35755  0.51358  0.68270  1.0000
  C   C719      1.0  0.37198  0.54281  0.72195  1.0000
  C   C720      1.0  0.33821  0.49377  0.72533  1.0000
  C   C721      1.0  0.32760  0.55189  0.70960  1.0000
  C   C722      1.0  0.34747  0.50678  0.65690  1.0000
  H   H1208     1.0  0.35089  0.53300  0.74684  1.0000
  H   H1209     1.0  0.36638  0.51680  0.73570  1.0000
  H   H1210     1.0  0.32143  0.51122  0.70061  1.0000
  H   H1211     1.0  0.32618  0.51891  0.73452  1.0000
  H   H1212     1.0  0.34882  0.54740  0.67988  1.0000
  H   H1213     1.0  0.32970  0.53572  0.67291  1.0000
  H   H1214     1.0  0.36797  0.52189  0.67398  1.0000
  H   H1215     1.0  0.36510  0.50238  0.69222  1.0000
  H   H1216     1.0  0.38033  0.53958  0.70358  1.0000
  H   H1217     1.0  0.36547  0.55585  0.71883  1.0000
  H   H1218     1.0  0.38091  0.54400  0.74028  1.0000
  H   H1219     1.0  0.34903  0.49390  0.74095  1.0000
  H   H1220     1.0  0.32695  0.48737  0.73550  1.0000
  H   H1221     1.0  0.34225  0.48537  0.70726  1.0000
  H   H1222     1.0  0.33524  0.55679  0.72763  1.0000
  H   H1223     1.0  0.31566  0.54546  0.71730  1.0000
  H   H1224     1.0  0.32310  0.56358  0.69727  1.0000
  H   H1225     1.0  0.34595  0.51717  0.64064  1.0000
  H   H1226     1.0  0.33437  0.50186  0.66207  1.0000
  H   H1227     1.0  0.35491  0.49533  0.64785  1.0000
  C   C723      1.0  0.42273  0.44244  0.95520  1.0000
  C   C724      1.0  0.29722  0.61592  0.84424  1.0000
  H   H1228     1.0  0.30487  0.63544  0.87581  1.0000
  N   N52       1.0  0.33760  0.42202  0.90246  1.0000
  C   C725      1.0  0.34036  0.44382  0.94398  1.0000
  C   C726      1.0  0.34157  0.42084  0.87149  1.0000
  C   C727      1.0  0.34927  0.40890  0.91783  1.0000
  C   C728      1.0  0.31875  0.41790  0.90849  1.0000
  C   C729      1.0  0.25579  0.65006  0.86794  1.0000
  H   H1229     1.0  0.37399  0.60818  0.58642  1.0000
  C   C730      1.0  0.31281  0.39958  0.89896  1.0000
  H   H1230     1.0  0.28638  0.40204  0.67530  1.0000
  C   C731      1.0  0.33556  0.59859  0.79793  1.0000
  H   H1231     1.0  0.34965  0.59674  0.80360  1.0000
  H   H1232     1.0  0.47998  0.52574  0.52760  1.0000
  H   H1233     1.0  0.31617  0.41843  0.93146  1.0000
  H   H1234     1.0  0.30947  0.42810  0.89980  1.0000
  H   H1235     1.0  0.41337  0.46798  0.48929  1.0000
  C   C732      1.0  0.29519  0.37407  0.67791  1.0000
  H   H1236     1.0  0.37509  0.60799  0.63484  1.0000
  H   H1237     1.0  0.34583  0.40841  0.94053  1.0000
  H   H1238     1.0  0.30002  0.58519  0.79798  1.0000
  H   H1239     1.0  0.37637  0.40176  0.92826  1.0000
  H   H1240     1.0  0.31480  0.38978  0.91603  1.0000
  H   H1241     1.0  0.31966  0.39456  0.87998  1.0000
  H   H1242     1.0  0.29865  0.40033  0.89328  1.0000
  H   H1243     1.0  0.42382  0.57800  0.67080  1.0000
  C   C733      1.0  0.43020  0.45864  0.94036  1.0000
  C   C734      1.0  0.44678  0.48542  0.94066  1.0000
  H   H1244     1.0  0.29274  0.60220  0.84624  1.0000
  C   C735      1.0  0.31742  0.39084  0.65051  1.0000
  H   H1245     1.0  0.33762  0.40402  0.67446  1.0000
  C   C736      1.0  0.43695  0.61021  0.62610  1.0000
  H   H1246     1.0  0.37378  0.41004  0.89349  1.0000
  H   H1247     1.0  0.47989  0.54082  0.55694  1.0000
  C   C737      1.0  0.38664  0.61631  0.63868  1.0000
  C   C738      1.0  0.41162  0.58642  0.67055  1.0000
  H   H1248     1.0  0.41885  0.46738  0.93453  1.0000
  H   H1249     1.0  0.35105  0.43648  0.95511  1.0000
  H   H1250     1.0  0.45718  0.49633  0.90209  1.0000
  C   C739      1.0  0.29978  0.61417  0.79353  1.0000
  H   H1251     1.0  0.43176  0.48759  0.50760  1.0000
  N   N53       1.0  0.40331  0.60718  0.62846  1.0000
  C   C740      1.0  0.25191  0.64681  0.83945  1.0000
  C   C741      1.0  0.32927  0.64087  0.79656  1.0000
  C   C742      1.0  0.40227  0.60604  0.59675  1.0000
  H   H1252     1.0  0.38630  0.60954  0.68377  1.0000
  H   H1253     1.0  0.26990  0.38647  0.66546  1.0000
  H   H1254     1.0  0.41323  0.59762  0.58819  1.0000
  H   H1255     1.0  0.37258  0.62768  0.67411  1.0000
  H   H1256     1.0  0.30787  0.61544  0.77443  1.0000
  H   H1257     1.0  0.30475  0.64557  0.81816  1.0000
  H   H1258     1.0  0.32648  0.35754  0.69748  1.0000
  H   H1259     1.0  0.43560  0.45378  0.92009  1.0000
  H   H1260     1.0  0.39554  0.63086  0.67625  1.0000
  H   H1261     1.0  0.40174  0.57938  0.68305  1.0000
  H   H1262     1.0  0.38412  0.62868  0.62663  1.0000
  N   N54       1.0  0.44371  0.46867  0.95659  1.0000
  H   H1263     1.0  0.28507  0.62408  0.84042  1.0000
  H   H1264     1.0  0.28918  0.62442  0.79098  1.0000
  H   H1265     1.0  0.28689  0.59383  0.76971  1.0000
  H   H1266     1.0  0.31697  0.61452  0.87848  1.0000
  H   H1267     1.0  0.30271  0.37427  0.69771  1.0000
  H   H1268     1.0  0.43815  0.60916  0.60296  1.0000
  C   C743      1.0  0.40501  0.58874  0.63994  1.0000
  C   C744      1.0  0.38563  0.62124  0.67004  1.0000
  C   C745      1.0  0.48827  0.53436  0.54056  1.0000
  H   H1269     1.0  0.32426  0.63835  0.77516  1.0000
  H   H1270     1.0  0.41447  0.59857  0.68200  1.0000
  C   C746      1.0  0.43937  0.47542  0.50182  1.0000
  H   H1271     1.0  0.41306  0.43635  0.94103  1.0000
  C   C747      1.0  0.34083  0.44055  0.91197  1.0000
  C   C748      1.0  0.32514  0.60454  0.82442  1.0000
  H   H1272     1.0  0.32298  0.63934  0.83971  1.0000
  H   H1273     1.0  0.26516  0.34961  0.87766  1.0000
  C   C749      1.0  0.28106  0.38898  0.67980  1.0000
  H   H1274     1.0  0.45752  0.44529  0.97163  1.0000
  H   H1275     1.0  0.37296  0.42483  0.92332  1.0000
  C   C750      1.0  0.38524  0.59866  0.58444  1.0000
  H   H1276     1.0  0.32652  0.38885  0.69570  1.0000
  H   H1277     1.0  0.33099  0.44990  0.90257  1.0000
  H   H1278     1.0  0.32663  0.35719  0.63291  1.0000
  H   H1279     1.0  0.35373  0.44506  0.90424  1.0000
  H   H1280     1.0  0.34323  0.40697  0.86441  1.0000
  Fe  Fe110     1.0  0.27022  0.65122  0.76475  1.0000
  H   H1281     1.0  0.32880  0.38871  0.63610  1.0000
  H   H1282     1.0  0.46387  0.45137  0.93795  1.0000
  H   H1283     1.0  0.31466  0.38117  0.59526  1.0000
  C   C751      1.0  0.48880  0.52696  0.63474  1.0000
  H   H1284     1.0  0.33330  0.42946  0.82998  1.0000
  C   C752      1.0  0.32456  0.39837  0.67842  1.0000
  C   C753      1.0  0.31873  0.35814  0.65247  1.0000
  C   C754      1.0  0.36916  0.41179  0.91542  1.0000
  H   H1285     1.0  0.45346  0.42034  0.49006  1.0000
  H   H1286     1.0  0.45374  0.43993  0.51171  1.0000
  C   C755      1.0  0.49398  0.44592  0.81710  1.0000
  H   H1287     1.0  0.31543  0.42330  0.85160  1.0000
  H   H1288     1.0  0.26566  0.34448  0.82611  1.0000
  C   C756      1.0  0.25378  0.63263  0.62679  1.0000
  H   H1289     1.0  0.49551  0.44642  0.79454  1.0000
  C   C757      1.0  0.40023  0.50755  0.97348  1.0000
  H   H1290     1.0  0.43302  0.43224  0.95967  1.0000
  C   C758      1.0  0.42638  0.46123  0.49266  1.0000
  C   C759      1.0  0.45771  0.43413  0.49125  1.0000
  H   H1291     1.0  0.36571  0.47155  0.48771  1.0000
  H   H1292     1.0  0.47796  0.47923  0.96642  1.0000
  H   H1293     1.0  0.48839  0.45848  0.96329  1.0000
  H   H1294     1.0  0.33910  0.34345  0.67509  1.0000
  H   H1295     1.0  0.47231  0.43362  0.49050  1.0000
  C   C760      1.0  0.37555  0.48111  0.48323  1.0000
  C   C761      1.0  0.25693  0.33432  0.62819  1.0000
  C   C762      1.0  0.47643  0.46528  0.97187  1.0000
  H   H1296     1.0  0.25700  0.63789  0.48552  1.0000
  H   H1297     1.0  0.44900  0.47929  0.48590  1.0000
  H   H1298     1.0  0.49821  0.51011  0.55739  1.0000
  Fe  Fe111     1.0  0.38743  0.96630  0.14572  1.0000
  S   S221      1.0  0.40443  0.94377  0.16070  1.0000
  H   H1299     1.0  0.31691  0.84206  0.15774  1.0000
  Fe  Fe112     1.0  0.38975  0.95485  0.08362  1.0000
  S   S222      1.0  0.40663  0.93096  0.09499  1.0000
  S   S223      1.0  0.38029  0.96173  0.03875  1.0000
  Fe  Fe113     1.0  0.38780  0.92738  0.13179  1.0000
  S   S224      1.0  0.37762  0.90095  0.14888  1.0000
  Fe  Fe114     1.0  0.42155  0.94926  0.12328  1.0000
  S   S225      1.0  0.44995  0.95856  0.12487  1.0000
  S   S226      1.0  0.37009  0.95003  0.11843  1.0000
  S   S227      1.0  0.40520  0.97303  0.11016  1.0000
  H   H1300     1.0  0.34708  0.83641  0.15916  1.0000
  S   S228      1.0  0.31112  0.69576  0.21610  1.0000
  H   H1301     1.0  0.31599  0.74614  0.29791  1.0000
  Fe  Fe115     1.0  0.25941  0.82487  0.20508  1.0000
  S   S229      1.0  0.28662  0.82271  0.18738  1.0000
  C   C763      1.0  0.29587  0.69394  0.35460  1.0000
  Fe  Fe116     1.0  0.27215  0.82766  0.26629  1.0000
  S   S230      1.0  0.30063  0.82611  0.25205  1.0000
  S   S231      1.0  0.26740  0.82684  0.31439  1.0000
  Fe  Fe117     1.0  0.29321  0.84483  0.21683  1.0000
  S   S232      1.0  0.30620  0.87012  0.19992  1.0000
  Fe  Fe118     1.0  0.29204  0.80421  0.22354  1.0000
  S   S233      1.0  0.30981  0.77982  0.21731  1.0000
  S   S234      1.0  0.26518  0.84793  0.23302  1.0000
  S   S235      1.0  0.26434  0.80481  0.23929  1.0000
  C   C764      1.0  0.30886  0.71912  0.21635  1.0000
  C   C765      1.0  0.32434  0.72840  0.21374  1.0000
  C   C766      1.0  0.32406  0.74678  0.21420  1.0000
  C   C767      1.0  0.30829  0.75650  0.21732  1.0000
  C   C768      1.0  0.29255  0.74738  0.22004  1.0000
  C   C769      1.0  0.29282  0.72866  0.21952  1.0000
  H   H1302     1.0  0.33677  0.72130  0.21132  1.0000
  H   H1303     1.0  0.33627  0.75357  0.21207  1.0000
  H   H1304     1.0  0.28025  0.75471  0.22232  1.0000
  H   H1305     1.0  0.28073  0.72168  0.22136  1.0000
  C   C770      1.0  0.35751  0.89264  0.16274  1.0000
  C   C771      1.0  0.35792  0.87639  0.17700  1.0000
  C   C772      1.0  0.34251  0.86937  0.18865  1.0000
  C   C773      1.0  0.32629  0.87841  0.18616  1.0000
  C   C774      1.0  0.32586  0.89463  0.17179  1.0000
  C   C775      1.0  0.34125  0.90163  0.16005  1.0000
  H   H1306     1.0  0.37032  0.86923  0.17929  1.0000
  H   H1307     1.0  0.34322  0.85699  0.19980  1.0000
  H   H1308     1.0  0.31343  0.90175  0.16943  1.0000
  H   H1309     1.0  0.34053  0.91395  0.14878  1.0000
  C   C776      1.0  0.47139  0.94884  0.12705  1.0000
  C   C777      1.0  0.47447  0.93099  0.13257  1.0000
  H   H1310     1.0  0.32762  0.86645  0.13270  1.0000
  H   H1311     1.0  0.46348  0.92248  0.13530  1.0000
  H   H1312     1.0  0.48361  0.97352  0.11933  1.0000
  C   C778      1.0  0.30027  0.84765  0.10764  1.0000
  H   H1313     1.0  0.34740  0.82138  0.13004  1.0000
  C   C779      1.0  0.38793  0.97579  0.01133  1.0000
  H   H1314     1.0  0.31170  0.82221  0.14173  1.0000
  Fe  Fe119     1.0  0.29333  0.67254  0.22210  1.0000
  C   C780      1.0  0.25367  0.82729  0.36820  1.0000
  H   H1315     1.0  0.29287  0.70329  0.26810  1.0000
  H   H1316     1.0  0.49378  0.93947  0.19836  1.0000
  H   H1317     1.0  0.39093  0.92147  0.20696  1.0000
  C   C781      1.0  0.38050  0.98733  0.21039  1.0000
  C   C782      1.0  0.39268  0.97291  0.25190  1.0000
  C   C783      1.0  0.38996  0.97332  0.22271  1.0000
  H   H1318     1.0  0.39981  0.96190  0.26129  1.0000
  H   H1319     1.0  0.39519  0.96276  0.20986  1.0000
  C   C784      1.0  0.49534  0.95698  0.04536  1.0000
  H   H1320     1.0  0.38533  0.92994  0.24077  1.0000
  H   H1321     1.0  0.29445  0.74611  0.28342  1.0000
  H   H1322     1.0  0.34009  0.83004  0.08743  1.0000
  C   C785      1.0  0.37855  0.97682  0.98578  1.0000
  H   H1323     1.0  0.34474  0.85458  0.11594  1.0000
  H   H1324     1.0  0.25848  0.69572  0.28535  1.0000
  C   C786      1.0  0.27079  0.72065  0.29721  1.0000
  H   H1325     1.0  0.46735  0.99674  0.22685  1.0000
  H   H1326     1.0  0.28697  0.68623  0.29105  1.0000
  H   H1327     1.0  0.27380  0.72579  0.27591  1.0000
  C   C787      1.0  0.33060  0.85853  0.11369  1.0000
  H   H1328     1.0  0.26649  0.82207  0.37425  1.0000
  H   H1329     1.0  0.44673  0.95348  0.45970  1.0000
  H   H1330     1.0  0.33844  0.81465  0.16233  1.0000
  C   C788      1.0  0.29949  0.72647  0.31685  1.0000
  H   H1331     1.0  0.26622  0.73230  0.30970  1.0000
  H   H1332     1.0  0.44689  0.98582  0.25211  1.0000
  H   H1333     1.0  0.33305  0.99305  0.09610  1.0000
  H   H1334     1.0  0.30085  0.68197  0.34352  1.0000
  N   N55       1.0  0.28697  0.71202  0.31034  1.0000
  C   C789      1.0  0.48586  0.95969  0.12362  1.0000
  H   H1335     1.0  0.30677  0.70251  0.36044  1.0000
  H   H1336     1.0  0.41010  0.98565  0.03379  1.0000
  C   C790      1.0  0.29193  0.86099  0.12847  1.0000
  H   H1337     1.0  0.33828  0.88195  0.09154  1.0000
  H   H1338     1.0  0.46686  0.95578  0.04804  1.0000
  C   C791      1.0  0.25028  0.83092  0.33961  1.0000
  H   H1339     1.0  0.32002  0.69555  0.31410  1.0000
  C   C792      1.0  0.32099  0.83317  0.14020  1.0000
  C   C793      1.0  0.28140  0.70349  0.33738  1.0000
  H   H1340     1.0  0.41674  0.95599  0.43550  1.0000
  H   H1341     1.0  0.32300  0.80552  0.06871  1.0000
  H   H1342     1.0  0.29897  0.87348  0.12950  1.0000
  H   H1343     1.0  0.29083  0.85533  0.14980  1.0000
  C   C794      1.0  0.47832  0.94648  0.04587  1.0000
  C   C795      1.0  0.43438  0.94991  0.47057  1.0000
  H   H1344     1.0  0.32156  0.83711  0.06795  1.0000
  C   C796      1.0  0.43792  0.99118  0.19690  1.0000
  C   C797      1.0  0.40252  0.98637  0.01459  1.0000
  H   H1345     1.0  0.27157  0.69327  0.33333  1.0000
  H   H1346     1.0  0.49591  0.96335  0.06640  1.0000
  C   C798      1.0  0.29448  0.69851  0.29006  1.0000
  N   N56       1.0  0.31936  0.84262  0.11250  1.0000
  C   C799      1.0  0.33959  0.82617  0.14819  1.0000
  H   H1347     1.0  0.29815  0.85299  0.08610  1.0000
  C   C800      1.0  0.38179  0.99195  0.45981  1.0000
  H   H1348     1.0  0.43249  0.93611  0.46433  1.0000
  H   H1349     1.0  0.49120  0.94350  0.98424  1.0000
  H   H1350     1.0  0.29006  0.68933  0.37457  1.0000
  C   C801      1.0  0.31851  0.81229  0.08822  1.0000
  H   H1351     1.0  0.29203  0.83586  0.10872  1.0000
  H   H1352     1.0  0.31166  0.72149  0.32719  1.0000
  H   H1353     1.0  0.31586  0.87689  0.08577  1.0000
  H   H1354     1.0  0.33336  0.86427  0.06846  1.0000
  H   H1355     1.0  0.31604  0.67908  0.28882  1.0000
  C   C802      1.0  0.32924  0.87094  0.08818  1.0000
  S   S236      1.0  0.26564  0.67413  0.23745  1.0000
  H   H1356     1.0  0.27829  0.86432  0.12155  1.0000
  H   H1357     1.0  0.42285  0.97492  0.45471  1.0000
  N   N57       1.0  0.34802  0.93526  0.22596  1.0000
  C   C803      1.0  0.36449  0.93303  0.20850  1.0000
  C   C804      1.0  0.33389  0.94308  0.20710  1.0000
  C   C805      1.0  0.34294  0.91728  0.23611  1.0000
  C   C806      1.0  0.35212  0.94709  0.25036  1.0000
  C   C807      1.0  0.38006  0.92285  0.22242  1.0000
  C   C808      1.0  0.33770  0.96116  0.19420  1.0000
  C   C809      1.0  0.32341  0.91462  0.24306  1.0000
  C   C810      1.0  0.33687  0.95229  0.27020  1.0000
  H   H1358     1.0  0.36162  0.92621  0.18844  1.0000
  H   H1359     1.0  0.36957  0.94595  0.20221  1.0000
  H   H1360     1.0  0.32110  0.94463  0.21801  1.0000
  H   H1361     1.0  0.33131  0.93396  0.18937  1.0000
  H   H1362     1.0  0.34624  0.90707  0.22001  1.0000
  H   H1363     1.0  0.35068  0.91337  0.25509  1.0000
  H   H1364     1.0  0.36231  0.94080  0.26411  1.0000
  H   H1365     1.0  0.35841  0.95931  0.24338  1.0000
  H   H1366     1.0  0.37674  0.90929  0.22843  1.0000
  C   C811      1.0  0.32549  0.83110  0.08842  1.0000
  H   H1367     1.0  0.26198  0.83422  0.13906  1.0000
  H   H1368     1.0  0.34071  0.97112  0.21035  1.0000
  H   H1369     1.0  0.34846  0.96026  0.17853  1.0000
  H   H1370     1.0  0.32585  0.96609  0.18272  1.0000
  H   H1371     1.0  0.31805  0.92425  0.25840  1.0000
  H   H1372     1.0  0.32202  0.90135  0.25236  1.0000
  H   H1373     1.0  0.31519  0.91487  0.22377  1.0000
  H   H1374     1.0  0.33513  0.94213  0.28660  1.0000
  H   H1375     1.0  0.32427  0.95502  0.25932  1.0000
  H   H1376     1.0  0.33992  0.96488  0.28071  1.0000
  H   H1377     1.0  0.44007  0.97889  0.20898  1.0000
  H   H1378     1.0  0.32212  0.69995  0.27695  1.0000
  C   C812      1.0  0.38655  0.98681  0.26896  1.0000
  H   H1379     1.0  0.30396  0.81219  0.08830  1.0000
  H   H1380     1.0  0.40687  0.96031  0.46895  1.0000
  H   H1381     1.0  0.26517  0.66714  0.37183  1.0000
  H   H1382     1.0  0.26138  0.83879  0.08724  1.0000
  C   C813      1.0  0.31423  0.69333  0.29321  1.0000
  H   H1383     1.0  0.32373  0.80437  0.10610  1.0000
  H   H1384     1.0  0.29350  0.73584  0.33237  1.0000
  H   H1385     1.0  0.48338  0.96008  0.20870  1.0000
  H   H1386     1.0  0.49318  0.96796  0.03017  1.0000
  H   H1387     1.0  0.37662  0.99105  0.43870  1.0000
  C   C814      1.0  0.30529  0.73741  0.29142  1.0000
  C   C815      1.0  0.25477  0.70890  0.29353  1.0000
  H   H1388     1.0  0.31047  0.72907  0.27412  1.0000
  S   S237      1.0  0.39049  0.98574  0.30547  1.0000
  H   H1389     1.0  0.47633  0.93881  0.02648  1.0000
  H   H1390     1.0  0.36727  0.96872  0.98282  1.0000
  C   C816      1.0  0.49186  0.92416  0.13495  1.0000
  H   H1391     1.0  0.47800  0.93767  0.06445  1.0000
  H   H1392     1.0  0.42473  0.98837  0.26171  1.0000
  H   H1393     1.0  0.27480  0.71339  0.35139  1.0000
  H   H1394     1.0  0.44628  0.98737  0.30175  1.0000
  C   C817      1.0  0.41929  0.96096  0.45702  1.0000
  C   C818      1.0  0.25035  0.83131  0.12712  1.0000
  H   H1395     1.0  0.34249  0.98916  0.12977  1.0000
  C   C819      1.0  0.24996  0.83393  0.09783  1.0000
  H   H1396     1.0  0.36507  0.97201  0.47650  1.0000
  C   C820      1.0  0.37528  0.98113  0.48132  1.0000
  C   C821      1.0  0.43717  0.99561  0.26027  1.0000
  S   S238      1.0  0.37639  0.98798  0.17384  1.0000
  H   H1397     1.0  0.45046  0.99618  0.18880  1.0000
  H   H1398     1.0  0.36638  0.98752  0.09694  1.0000
  H   H1399     1.0  0.35765  0.99063  0.04793  1.0000
  H   H1400     1.0  0.43018  0.98751  0.17806  1.0000
  H   H1401     1.0  0.49411  0.91036  0.13950  1.0000
  C   C822      1.0  0.49591  0.95221  0.20905  1.0000
  Fe  Fe120     1.0  0.39197  0.96708  0.64123  1.0000
  S   S239      1.0  0.40427  0.94032  0.64933  1.0000
  H   H1402     1.0  0.26913  0.73864  0.82773  1.0000
  Fe  Fe121     1.0  0.38401  0.95928  0.57885  1.0000
  S   S240      1.0  0.39545  0.93188  0.58360  1.0000
  S   S241      1.0  0.37372  0.96732  0.53494  1.0000
  Fe  Fe122     1.0  0.38087  0.93040  0.62499  1.0000
  S   S242      1.0  0.36705  0.90422  0.63363  1.0000
  Fe  Fe123     1.0  0.41756  0.94395  0.60750  1.0000
  S   S243      1.0  0.44575  0.94259  0.59116  1.0000
  S   S244      1.0  0.36793  0.95726  0.61878  1.0000
  S   S245      1.0  0.40658  0.97127  0.60092  1.0000
  Fe  Fe124     1.0  0.28010  0.67590  0.71552  1.0000
  S   S246      1.0  0.27813  0.70363  0.69664  1.0000
  H   H1403     1.0  0.47691  0.95437  0.68491  1.0000
  H   H1404     1.0  0.46423  0.94534  0.50009  1.0000
  S   S247      1.0  0.28466  0.82443  0.69262  1.0000
  H   H1405     1.0  0.34485  0.98990  0.73144  1.0000
  Fe  Fe125     1.0  0.26656  0.83467  0.76924  1.0000
  S   S248      1.0  0.29497  0.82869  0.75898  1.0000
  S   S249      1.0  0.26260  0.84055  0.81638  1.0000
  Fe  Fe126     1.0  0.29224  0.84662  0.72141  1.0000
  S   S250      1.0  0.30840  0.87148  0.71418  1.0000
  Fe  Fe127     1.0  0.28504  0.80702  0.73136  1.0000
  S   S251      1.0  0.29753  0.77998  0.74066  1.0000
  S   S252      1.0  0.26432  0.85390  0.73343  1.0000
  H   H1406     1.0  0.48751  0.91822  0.66169  1.0000
  C   C823      1.0  0.28251  0.72464  0.71101  1.0000
  C   C824      1.0  0.27486  0.73970  0.69825  1.0000
  C   C825      1.0  0.27885  0.75671  0.70760  1.0000
  C   C826      1.0  0.29094  0.75888  0.72938  1.0000
  C   C827      1.0  0.29849  0.74382  0.74228  1.0000
  C   C828      1.0  0.29414  0.72680  0.73343  1.0000
  C   C829      1.0  0.25659  0.71076  0.61626  1.0000
  H   H1407     1.0  0.27301  0.76814  0.69737  1.0000
  H   H1408     1.0  0.30801  0.74531  0.75892  1.0000
  H   H1409     1.0  0.30030  0.71537  0.74321  1.0000
  C   C830      1.0  0.35082  0.89543  0.65661  1.0000
  C   C831      1.0  0.34690  0.87749  0.65449  1.0000
  C   C832      1.0  0.33417  0.86987  0.67198  1.0000
  C   C833      1.0  0.32502  0.88012  0.69187  1.0000
  C   C834      1.0  0.32893  0.89805  0.69405  1.0000
  C   C835      1.0  0.34169  0.90566  0.67659  1.0000
  H   H1410     1.0  0.35388  0.86938  0.63925  1.0000
  H   H1411     1.0  0.33154  0.85605  0.67013  1.0000
  H   H1412     1.0  0.32200  0.90619  0.70929  1.0000
  H   H1413     1.0  0.34448  0.91944  0.67859  1.0000
  C   C836      1.0  0.46649  0.93951  0.60773  1.0000
  C   C837      1.0  0.46881  0.92918  0.63180  1.0000
  C   C838      1.0  0.48124  0.94714  0.59549  1.0000
  H   H1414     1.0  0.45766  0.92289  0.64104  1.0000
  H   H1415     1.0  0.47964  0.95498  0.57670  1.0000
  H   H1416     1.0  0.31515  0.86079  0.62140  1.0000
  C   C839      1.0  0.38357  0.98827  0.96394  1.0000
  C   C840      1.0  0.38205  0.98174  0.50887  1.0000
  H   H1417     1.0  0.44176  0.97735  0.63095  1.0000
  H   H1418     1.0  0.32226  0.91446  0.79803  1.0000
  H   H1419     1.0  0.29256  0.86973  0.65881  1.0000
  H   H1420     1.0  0.43253  0.97200  0.55232  1.0000
  H   H1421     1.0  0.29060  0.69583  0.62224  1.0000
  H   H1422     1.0  0.28416  0.79501  0.85633  1.0000
  H   H1423     1.0  0.27937  0.84571  0.60564  1.0000
  C   C841      1.0  0.31041  0.86271  0.85289  1.0000
  H   H1424     1.0  0.24943  0.76024  0.84275  1.0000
  N   N58       1.0  0.30569  0.88115  0.80777  1.0000
  C   C842      1.0  0.39343  0.98918  0.70771  1.0000
  C   C843      1.0  0.38768  0.97422  0.72149  1.0000
  H   H1425     1.0  0.25287  0.86189  0.61953  1.0000
  C   C844      1.0  0.27488  0.88774  0.78653  1.0000
  H   H1426     1.0  0.29142  0.76380  0.83033  1.0000
  H   H1427     1.0  0.26136  0.81876  0.58792  1.0000
  H   H1428     1.0  0.31104  0.87417  0.86716  1.0000
  H   H1429     1.0  0.29398  0.86892  0.77158  1.0000
  H   H1430     1.0  0.27769  0.90138  0.61353  1.0000
  H   H1431     1.0  0.45781  0.93444  0.69432  1.0000
  H   H1432     1.0  0.29985  0.89085  0.76578  1.0000
  C   C845      1.0  0.27799  0.74284  0.81073  1.0000
  H   H1433     1.0  0.30794  0.88977  0.64083  1.0000
  C   C846      1.0  0.24952  0.83872  0.87043  1.0000
  C   C847      1.0  0.29922  0.86679  0.82652  1.0000
  H   H1434     1.0  0.27820  0.68266  0.64578  1.0000
  C   C848      1.0  0.45621  0.97535  0.71773  1.0000
  Fe  Fe128     1.0  0.25697  0.83099  0.70652  1.0000
  C   C849      1.0  0.27326  0.79344  0.81324  1.0000
  N   N59       1.0  0.45414  0.97210  0.68671  1.0000
  H   H1435     1.0  0.32847  0.88724  0.78274  1.0000
  C   C850      1.0  0.27905  0.87116  0.65041  1.0000
  H   H1436     1.0  0.25036  0.66900  0.55843  1.0000
  H   H1437     1.0  0.44903  0.91677  0.48717  1.0000
  C   C851      1.0  0.42019  0.94708  0.51816  1.0000
  H   H1438     1.0  0.44176  0.95385  0.65854  1.0000
  C   C852      1.0  0.28764  0.79835  0.83445  1.0000
  H   H1439     1.0  0.30637  0.90866  0.62010  1.0000
  C   C853      1.0  0.40970  0.93140  0.50703  1.0000
  C   C854      1.0  0.28806  0.85720  0.60551  1.0000
  C   C855      1.0  0.32858  0.85933  0.78591  1.0000
  H   H1440     1.0  0.28946  0.81276  0.83359  1.0000
  C   C856      1.0  0.44004  0.97105  0.50738  1.0000
  H   H1441     1.0  0.27230  0.88414  0.68970  1.0000
  H   H1442     1.0  0.32391  0.85801  0.84757  1.0000
  H   H1443     1.0  0.30418  0.85202  0.86482  1.0000
  C   C857      1.0  0.28654  0.88984  0.60881  1.0000
  H   H1444     1.0  0.26248  0.84262  0.87673  1.0000
  C   C858      1.0  0.39521  0.99363  0.51473  1.0000
  H   H1445     1.0  0.29048  0.73499  0.81271  1.0000
  C   C859      1.0  0.44316  0.97630  0.53828  1.0000
  H   H1446     1.0  0.27335  0.90093  0.79617  1.0000
  C   C860      1.0  0.25392  0.77188  0.79205  1.0000
  C   C861      1.0  0.29429  0.88200  0.78188  1.0000
  H   H1447     1.0  0.48183  0.99377  0.67758  1.0000
  H   H1448     1.0  0.26066  0.77373  0.77147  1.0000
  H   H1449     1.0  0.43392  0.99350  0.72684  1.0000
  H   H1450     1.0  0.27969  0.71559  0.58940  1.0000
  H   H1451     1.0  0.44234  0.94238  0.72072  1.0000
  H   H1452     1.0  0.27880  0.79545  0.79185  1.0000
  H   H1453     1.0  0.30303  0.84428  0.63983  1.0000
  H   H1454     1.0  0.25258  0.88508  0.61714  1.0000
  C   C862      1.0  0.24931  0.82551  0.62767  1.0000
  H   H1455     1.0  0.44116  0.91603  0.52336  1.0000
  H   H1456     1.0  0.41710  0.92191  0.49375  1.0000
  C   C863      1.0  0.30869  0.91486  0.80646  1.0000
  C   C864      1.0  0.30510  0.89417  0.61923  1.0000
  H   H1457     1.0  0.34270  0.85847  0.78003  1.0000
  H   H1458     1.0  0.30048  0.79202  0.82885  1.0000
  H   H1459     1.0  0.31540  0.88878  0.60484  1.0000
  C   C865      1.0  0.30475  0.89827  0.82370  1.0000
  H   H1460     1.0  0.42885  0.97960  0.50024  1.0000
  N   N60       1.0  0.27881  0.87294  0.61885  1.0000
  C   C866      1.0  0.48659  0.97992  0.67818  1.0000
  H   H1461     1.0  0.38392  0.96289  0.70942  1.0000
  C   C867      1.0  0.39111  0.98874  0.76696  1.0000
  C   C868      1.0  0.44459  0.94047  0.69791  1.0000
  C   C869      1.0  0.28206  0.76254  0.81253  1.0000
  H   H1462     1.0  0.49595  0.97835  0.66035  1.0000
  H   H1463     1.0  0.46248  0.96374  0.72833  1.0000
  C   C870      1.0  0.38643  0.97407  0.75101  1.0000
  C   C871      1.0  0.30539  0.85048  0.61913  1.0000
  H   H1464     1.0  0.33368  0.87931  0.81678  1.0000
  H   H1465     1.0  0.29099  0.85980  0.58300  1.0000
  H   H1466     1.0  0.42767  0.96220  0.68517  1.0000
  H   H1467     1.0  0.26162  0.88333  0.56637  1.0000
  H   H1468     1.0  0.31144  0.84009  0.60555  1.0000
  C   C872      1.0  0.32448  0.87757  0.79887  1.0000
  H   H1469     1.0  0.26593  0.73820  0.68079  1.0000
  H   H1470     1.0  0.25573  0.88706  0.66360  1.0000
  N   N61       1.0  0.43638  0.95196  0.50194  1.0000
  H   H1471     1.0  0.44199  0.98140  0.75641  1.0000
  H   H1472     1.0  0.46400  0.91515  0.51588  1.0000
  C   C873      1.0  0.45227  0.94128  0.51157  1.0000
  H   H1473     1.0  0.42880  0.97062  0.73111  1.0000
  H   H1474     1.0  0.28970  0.76577  0.79340  1.0000
  H   H1475     1.0  0.26034  0.82066  0.64004  1.0000
  H   H1476     1.0  0.26827  0.76838  0.85997  1.0000
  H   H1477     1.0  0.26820  0.88849  0.76580  1.0000
  C   C874      1.0  0.25977  0.87302  0.60976  1.0000
  H   H1478     1.0  0.31435  0.89805  0.84135  1.0000
  H   H1479     1.0  0.32629  0.84842  0.80069  1.0000
  H   H1480     1.0  0.39762  0.93615  0.49594  1.0000
  S   S253      1.0  0.25452  0.66681  0.73284  1.0000
  H   H1481     1.0  0.45503  0.94361  0.53410  1.0000
  H   H1482     1.0  0.42359  0.94432  0.54051  1.0000
  C   C875      1.0  0.25798  0.77181  0.84406  1.0000
  H   H1483     1.0  0.29922  0.91713  0.78905  1.0000
  C   C876      1.0  0.47181  0.96665  0.67482  1.0000
  H   H1484     1.0  0.47090  0.96302  0.65228  1.0000
  H   H1485     1.0  0.40490  0.92377  0.52517  1.0000
  C   C877      1.0  0.26947  0.68133  0.60140  1.0000
  H   H1486     1.0  0.27596  0.89921  0.66188  1.0000
  H   H1487     1.0  0.26167  0.85953  0.56850  1.0000
  H   H1488     1.0  0.26263  0.80355  0.81502  1.0000
  C   C878      1.0  0.45124  0.92120  0.50900  1.0000
  H   H1489     1.0  0.29359  0.67252  0.62234  1.0000
  H   H1490     1.0  0.29801  0.85432  0.81454  1.0000
  C   C879      1.0  0.44149  0.95763  0.68113  1.0000
  H   H1491     1.0  0.30756  0.92652  0.82046  1.0000
  H   H1492     1.0  0.29168  0.90033  0.83384  1.0000
  H   H1493     1.0  0.38170  0.96255  0.76154  1.0000
  H   H1494     1.0  0.32108  0.85727  0.76636  1.0000
  S   S254      1.0  0.25686  0.81227  0.74326  1.0000
  H   H1495     1.0  0.27261  0.85882  0.65684  1.0000
  H   H1496     1.0  0.41067  0.95843  0.51884  1.0000
  S   S255      1.0  0.38855  0.98825  0.80386  1.0000
  H   H1497     1.0  0.25591  0.70223  0.56040  1.0000
  C   C880      1.0  0.44783  0.98895  0.64054  1.0000
  C   C881      1.0  0.25639  0.87196  0.57780  1.0000
  H   H1498     1.0  0.26590  0.66726  0.60129  1.0000
  H   H1499     1.0  0.26776  0.87805  0.79920  1.0000
  H   H1500     1.0  0.27642  0.68324  0.58109  1.0000
  H   H1501     1.0  0.27244  0.73944  0.78991  1.0000
  H   H1502     1.0  0.43498  0.93072  0.69076  1.0000
  C   C882      1.0  0.48576  0.92649  0.64336  1.0000
  C   C883      1.0  0.28358  0.68337  0.62437  1.0000
  N   N62       1.0  0.26647  0.77513  0.81594  1.0000
  H   H1503     1.0  0.28573  0.87007  0.83428  1.0000
  H   H1504     1.0  0.28739  0.88995  0.58549  1.0000
  C   C884      1.0  0.44695  0.98863  0.67292  1.0000
  H   H1505     1.0  0.49385  0.97754  0.69813  1.0000
  H   H1506     1.0  0.25306  0.67066  0.65427  1.0000
  S   S256      1.0  0.39453  0.99040  0.67071  1.0000
  C   C885      1.0  0.43914  0.98044  0.73358  1.0000
  C   C886      1.0  0.27016  0.88642  0.66689  1.0000
  H   H1507     1.0  0.45163  0.97522  0.49505  1.0000
  H   H1508     1.0  0.40047  0.99441  0.53581  1.0000
  H   H1509     1.0  0.34984  0.99428  0.76710  1.0000
  H   H1510     1.0  0.37616  0.98887  0.94455  1.0000
  H   H1511     1.0  0.45605  0.97131  0.54622  1.0000
  H   H1512     1.0  0.43287  0.99097  0.67854  1.0000
  H   H1513     1.0  0.46155  0.98987  0.63296  1.0000
  H   H1514     1.0  0.46536  0.98622  0.72153  1.0000
  H   H1515     1.0  0.27336  0.73333  0.61245  1.0000
  H   H1516     1.0  0.25471  0.79434  0.87301  1.0000
  C   C887      1.0  0.24985  0.82443  0.59816  1.0000
  H   H1517     1.0  0.26280  0.70945  0.63731  1.0000
  C   C888      1.0  0.26827  0.72281  0.59874  1.0000
  H   H1518     1.0  0.26054  0.72934  0.58170  1.0000
  N   N63       1.0  0.25314  0.69309  0.60338  1.0000
  H   H1519     1.0  0.44332  0.99085  0.53977  1.0000
  H   H1520     1.0  0.24956  0.75811  0.79212  1.0000
  C   C889      1.0  0.49812  0.94462  0.60724  1.0000
  Fe  Fe129     1.0  0.70096  0.15568  0.21253  1.0000
  S   S257      1.0  0.67251  0.15989  0.22564  1.0000
  S   S258      1.0  0.70538  0.15533  0.16431  1.0000
  Fe  Fe130     1.0  0.71239  0.15423  0.27482  1.0000
  S   S259      1.0  0.68510  0.15872  0.29138  1.0000
  H   H1521     1.0  0.72836  0.18516  0.38591  1.0000
  Fe  Fe131     1.0  0.67690  0.13898  0.25893  1.0000
  S   S260      1.0  0.66143  0.11367  0.26761  1.0000
  Fe  Fe132     1.0  0.68301  0.17921  0.25708  1.0000
  S   S261      1.0  0.67023  0.20616  0.26614  1.0000
  S   S262      1.0  0.70470  0.13352  0.24366  1.0000
  S   S263      1.0  0.71094  0.17598  0.24266  1.0000
  Fe  Fe133     1.0  0.69421  0.30882  0.23628  1.0000
  C   C890      1.0  0.56618  0.13018  0.33583  1.0000
  S   S264      1.0  0.69660  0.27996  0.22178  1.0000
  C   C891      1.0  0.73558  0.25873  0.14936  1.0000
  Fe  Fe134     1.0  0.55019  0.03813  0.36418  1.0000
  S   S265      1.0  0.56058  0.01099  0.37444  1.0000
  S   S266      1.0  0.52263  0.04706  0.37855  1.0000
  Fe  Fe135     1.0  0.58738  0.05125  0.34794  1.0000
  S   S267      1.0  0.60016  0.02478  0.35799  1.0000
  S   S268      1.0  0.59935  0.07832  0.33856  1.0000
  Fe  Fe136     1.0  0.57682  0.01381  0.33508  1.0000
  C   C892      1.0  0.58455  0.01015  0.99808  1.0000
  Fe  Fe137     1.0  0.58282  0.02372  0.39666  1.0000
  S   S269      1.0  0.59166  0.01824  0.44230  1.0000
  S   S270      1.0  0.56477  0.04016  0.32312  1.0000
  S   S271      1.0  0.57177  0.05091  0.38822  1.0000
  H   H1522     1.0  0.53633  0.06814  0.30266  1.0000
  H   H1523     1.0  0.57338  0.10382  0.32337  1.0000
  H   H1524     1.0  0.52813  0.09039  0.30307  1.0000
  H   H1525     1.0  0.69660  0.30640  0.17234  1.0000
  H   H1526     1.0  0.71229  0.26590  0.12515  1.0000
  C   C893      1.0  0.58086  0.00679  0.25548  1.0000
  H   H1527     1.0  0.58310  0.01939  0.21510  1.0000
  H   H1528     1.0  0.58198  0.01884  0.26729  1.0000
  H   H1529     1.0  0.56232  0.04931  0.44934  1.0000
  H   H1530     1.0  0.54459  0.07895  0.39472  1.0000
  H   H1531     1.0  0.71849  0.11270  0.38790  1.0000
  C   C894      1.0  0.51558  0.10122  0.35817  1.0000
  H   H1532     1.0  0.51176  0.04091  0.32018  1.0000
  C   C895      1.0  0.64371  0.10430  0.28699  1.0000
  C   C896      1.0  0.63219  0.11431  0.30397  1.0000
  C   C897      1.0  0.61882  0.10613  0.31948  1.0000
  C   C898      1.0  0.61662  0.08780  0.31833  1.0000
  C   C899      1.0  0.62811  0.07780  0.30131  1.0000
  C   C900      1.0  0.64148  0.08599  0.28580  1.0000
  H   H1533     1.0  0.63364  0.12837  0.30527  1.0000
  H   H1534     1.0  0.61012  0.11410  0.33253  1.0000
  H   H1535     1.0  0.62669  0.06374  0.30000  1.0000
  H   H1536     1.0  0.65020  0.07803  0.27276  1.0000
  C   C901      1.0  0.67884  0.22673  0.25620  1.0000
  C   C902      1.0  0.66989  0.24239  0.26417  1.0000
  C   C903      1.0  0.67558  0.25889  0.25495  1.0000
  C   C904      1.0  0.69013  0.25989  0.23715  1.0000
  C   C905      1.0  0.69913  0.24423  0.22931  1.0000
  C   C906      1.0  0.69371  0.22779  0.23912  1.0000
  H   H1537     1.0  0.65835  0.24175  0.27734  1.0000
  H   H1538     1.0  0.66842  0.27079  0.26096  1.0000
  H   H1539     1.0  0.71042  0.24483  0.21563  1.0000
  H   H1540     1.0  0.70088  0.21593  0.23319  1.0000
  H   H1541     1.0  0.68692  0.28735  0.15666  1.0000
  H   H1542     1.0  0.71083  0.26994  0.16118  1.0000
  C   C907      1.0  0.73206  0.28555  0.08628  1.0000
  C   C908      1.0  0.72316  0.15617  0.13957  1.0000
  C   C909      1.0  0.71945  0.15478  0.11061  1.0000
  C   C910      1.0  0.73294  0.15537  0.09016  1.0000
  C   C911      1.0  0.69219  0.30049  0.15242  1.0000
  H   H1543     1.0  0.70604  0.15304  0.10392  1.0000
  H   H1544     1.0  0.72977  0.15414  0.06810  1.0000
  C   C912      1.0  0.73452  0.15044  0.34056  1.0000
  H   H1545     1.0  0.57229  0.13668  0.31754  1.0000
  C   C913      1.0  0.71746  0.15090  0.38374  1.0000
  C   C914      1.0  0.71833  0.15227  0.35430  1.0000
  H   H1546     1.0  0.70485  0.15197  0.39418  1.0000
  H   H1547     1.0  0.70644  0.15440  0.34224  1.0000
  C   C915      1.0  0.73278  0.14817  0.39976  1.0000
  C   C916      1.0  0.73020  0.29855  0.16550  1.0000
  H   H1548     1.0  0.67222  0.12841  0.32607  1.0000
  H   H1549     1.0  0.53848  0.03365  0.42858  1.0000
  H   H1550     1.0  0.56085  0.07686  0.33610  1.0000
  C   C917      1.0  0.50190  0.04410  0.36226  1.0000
  S   S272      1.0  0.72017  0.32088  0.22717  1.0000
  C   C918      1.0  0.74531  0.19651  0.34096  1.0000
  H   H1551     1.0  0.74300  0.24722  0.37780  1.0000
  H   H1552     1.0  0.52812  0.11747  0.32804  1.0000
  H   H1553     1.0  0.72334  0.29299  0.18394  1.0000
  H   H1554     1.0  0.72071  0.20604  0.44041  1.0000
  H   H1555     1.0  0.70937  0.31371  0.12422  1.0000
  H   H1556     1.0  0.66397  0.13221  0.36064  1.0000
  H   H1557     1.0  0.55703  0.09171  0.41827  1.0000
  H   H1558     1.0  0.65913  0.11222  0.34327  1.0000
  C   C919      1.0  0.51395  0.03176  0.46712  1.0000
  H   H1559     1.0  0.68217  0.06797  0.36466  1.0000
  N   N64       1.0  0.72381  0.29040  0.13852  1.0000
  H   H1560     1.0  0.70100  0.29379  0.11121  1.0000
  H   H1561     1.0  0.73230  0.24526  0.14261  1.0000
  H   H1562     1.0  0.73273  0.22083  0.35402  1.0000
  H   H1563     1.0  0.66474  0.06786  0.33960  1.0000
  H   H1564     1.0  0.58569  0.99912  0.04009  1.0000
  H   H1565     1.0  0.55474  0.13852  0.34245  1.0000
  H   H1566     1.0  0.72686  0.22975  0.41007  1.0000
  H   H1567     1.0  0.53651  0.10053  0.40593  1.0000
  H   H1568     1.0  0.53973  0.07531  0.35005  1.0000
  H   H1569     1.0  0.56073  0.11477  0.38336  1.0000
  H   H1570     1.0  0.57134  0.09457  0.37364  1.0000
  H   H1571     1.0  0.74382  0.15948  0.16977  1.0000
  H   H1572     1.0  0.72983  0.27125  0.08723  1.0000
  H   H1573     1.0  0.73278  0.18946  0.34045  1.0000
  H   H1574     1.0  0.53258  0.12330  0.36342  1.0000
  H   H1575     1.0  0.51081  0.01040  0.25209  1.0000
  C   C920      1.0  0.58155  0.00705  0.22593  1.0000
  S   S273      1.0  0.73102  0.14544  0.43647  1.0000
  H   H1576     1.0  0.55434  0.01875  0.44257  1.0000
  C   C921      1.0  0.72702  0.19812  0.39645  1.0000
  C   C922      1.0  0.54368  0.02827  0.44870  1.0000
  H   H1577     1.0  0.72691  0.31289  0.16592  1.0000
  S   S274      1.0  0.73613  0.15049  0.30347  1.0000
  H   H1578     1.0  0.54300  0.05445  0.46915  1.0000
  C   C923      1.0  0.72249  0.19406  0.42738  1.0000
  H   H1579     1.0  0.71525  0.20484  0.38688  1.0000
  C   C924      1.0  0.54005  0.08195  0.30633  1.0000
  H   H1580     1.0  0.50671  0.10981  0.37105  1.0000
  H   H1581     1.0  0.57632  0.12973  0.35262  1.0000
  H   H1582     1.0  0.50764  0.09745  0.33966  1.0000
  C   C925      1.0  0.74064  0.15838  0.14770  1.0000
  C   C926      1.0  0.70688  0.29986  0.13010  1.0000
  H   H1583     1.0  0.72255  0.10830  0.28245  1.0000
  H   H1584     1.0  0.68110  0.30897  0.14465  1.0000
  N   N65       1.0  0.69632  0.10054  0.34166  1.0000
  C   C927      1.0  0.68614  0.11353  0.35972  1.0000
  C   C928      1.0  0.71023  0.09154  0.35954  1.0000
  C   C929      1.0  0.68453  0.08684  0.32973  1.0000
  C   C930      1.0  0.70438  0.11030  0.31753  1.0000
  C   C931      1.0  0.66948  0.12193  0.34632  1.0000
  C   C932      1.0  0.72424  0.10360  0.37194  1.0000
  C   C933      1.0  0.67369  0.07656  0.35123  1.0000
  C   C934      1.0  0.71798  0.09979  0.29973  1.0000
  H   H1585     1.0  0.68225  0.10749  0.37999  1.0000
  H   H1586     1.0  0.69451  0.12460  0.36577  1.0000
  H   H1587     1.0  0.71710  0.08076  0.34773  1.0000
  H   H1588     1.0  0.70418  0.08502  0.37789  1.0000
  H   H1589     1.0  0.67520  0.09277  0.31420  1.0000
  H   H1590     1.0  0.69228  0.07681  0.31765  1.0000
  H   H1591     1.0  0.69407  0.11516  0.30265  1.0000
  H   H1592     1.0  0.71087  0.12228  0.32500  1.0000
  H   H1593     1.0  0.55462  0.11296  0.30613  1.0000
  H   H1594     1.0  0.66522  0.08520  0.36456  1.0000
  H   H1595     1.0  0.58955  0.02265  0.00460  1.0000
  C   C935      1.0  0.55250  0.04369  0.46373  1.0000
  H   H1596     1.0  0.70992  0.18702  0.42797  1.0000
  H   H1597     1.0  0.73441  0.09540  0.38294  1.0000
  H   H1598     1.0  0.51043  0.03763  0.44633  1.0000
  H   H1599     1.0  0.50486  0.01325  0.42006  1.0000
  H   H1600     1.0  0.73112  0.11122  0.35574  1.0000
  H   H1601     1.0  0.55006  0.08504  0.29028  1.0000
  H   H1602     1.0  0.71231  0.08805  0.28990  1.0000
  H   H1603     1.0  0.72986  0.09593  0.31197  1.0000
  N   N66       1.0  0.66878  0.20693  0.16375  1.0000
  C   C936      1.0  0.68661  0.21518  0.16311  1.0000
  C   C937      1.0  0.65650  0.21830  0.14617  1.0000
  C   C938      1.0  0.67065  0.18867  0.15143  1.0000
  C   C939      1.0  0.66299  0.20624  0.19399  1.0000
  C   C940      1.0  0.70231  0.20349  0.17324  1.0000
  C   C941      1.0  0.65355  0.23736  0.15660  1.0000
  C   C942      1.0  0.65402  0.18047  0.13918  1.0000
  C   C943      1.0  0.64447  0.19958  0.20003  1.0000
  H   H1604     1.0  0.68994  0.21944  0.14142  1.0000
  H   H1605     1.0  0.68666  0.22729  0.17625  1.0000
  H   H1606     1.0  0.64329  0.21271  0.14436  1.0000
  H   H1607     1.0  0.66141  0.21887  0.12415  1.0000
  H   H1608     1.0  0.68029  0.18836  0.13380  1.0000
  H   H1609     1.0  0.67607  0.17930  0.16739  1.0000
  H   H1610     1.0  0.67211  0.19763  0.20636  1.0000
  H   H1611     1.0  0.66409  0.21919  0.20455  1.0000
  H   H1612     1.0  0.70649  0.19386  0.15687  1.0000
  H   H1613     1.0  0.71375  0.21180  0.17753  1.0000
  H   H1614     1.0  0.69947  0.19628  0.19277  1.0000
  H   H1615     1.0  0.64749  0.23785  0.17780  1.0000
  H   H1616     1.0  0.66582  0.24482  0.15667  1.0000
  H   H1617     1.0  0.64426  0.24436  0.14216  1.0000
  H   H1618     1.0  0.64985  0.18709  0.11940  1.0000
  H   H1619     1.0  0.64294  0.18041  0.15409  1.0000
  H   H1620     1.0  0.65718  0.16653  0.13374  1.0000
  H   H1621     1.0  0.64467  0.18505  0.20177  1.0000
  H   H1622     1.0  0.63445  0.20399  0.18462  1.0000
  H   H1623     1.0  0.63984  0.20517  0.22039  1.0000
  N   N67       1.0  0.54916  0.10202  0.34725  1.0000
  C   C944      1.0  0.56093  0.11154  0.32713  1.0000
  C   C945      1.0  0.54767  0.08357  0.33624  1.0000
  C   C946      1.0  0.55819  0.10136  0.37549  1.0000
  C   C947      1.0  0.53166  0.11185  0.34898  1.0000
  H   H1624     1.0  0.51855  0.08943  0.37099  1.0000
  C   C948      1.0  0.71988  0.27134  0.14298  1.0000
  C   C949      1.0  0.54828  0.09255  0.39960  1.0000
  C   C950      1.0  0.58487  0.00289  0.46838  1.0000
  H   H1625     1.0  0.52667  0.01170  0.40499  1.0000
  S   S275      1.0  0.67933  0.32941  0.21107  1.0000
  H   H1626     1.0  0.74754  0.20109  0.31913  1.0000
  H   H1627     1.0  0.54064  0.99897  0.15869  1.0000
  H   H1628     1.0  0.52159  0.00522  0.17832  1.0000
  H   H1629     1.0  0.73246  0.18512  0.43726  1.0000
  C   C951      1.0  0.51739  0.00547  0.41950  1.0000
  C   C952      1.0  0.50016  0.04173  0.33325  1.0000
  C   C953      1.0  0.52535  0.00268  0.44904  1.0000
  H   H1630     1.0  0.73845  0.25849  0.17226  1.0000
  H   H1631     1.0  0.74320  0.28749  0.07165  1.0000
  S   S276      1.0  0.69028  0.32403  0.27689  1.0000
  N   N68       1.0  0.74319  0.20874  0.39179  1.0000
  H   H1632     1.0  0.74210  0.20227  0.03549  1.0000
  H   H1633     1.0  0.74761  0.26177  0.13763  1.0000
  H   H1634     1.0  0.74556  0.22378  0.43038  1.0000
  H   H1635     1.0  0.52895  0.00925  0.22847  1.0000
  C   C954      1.0  0.73686  0.29315  0.11521  1.0000
  H   H1636     1.0  0.74633  0.22538  0.03798  1.0000
  H   H1637     1.0  0.72054  0.29259  0.07685  1.0000
  N   N69       1.0  0.52955  0.01917  0.46497  1.0000
  H   H1638     1.0  0.73888  0.30745  0.11227  1.0000
  H   H1639     1.0  0.51733  0.04339  0.47994  1.0000
  C   C955      1.0  0.52052  0.00121  0.24204  1.0000
  C   C956      1.0  0.74434  0.21258  0.36075  1.0000
  H   H1640     1.0  0.74788  0.20688  0.11425  1.0000
  C   C957      1.0  0.74101  0.22566  0.40834  1.0000
  Fe  Fe138     1.0  0.70483  0.14727  0.71827  1.0000
  S   S277      1.0  0.68148  0.16399  0.73219  1.0000
  S   S278      1.0  0.70581  0.14234  0.67040  1.0000
  Fe  Fe139     1.0  0.71751  0.14392  0.77994  1.0000
  S   S279      1.0  0.69518  0.16051  0.79706  1.0000
  H   H1641     1.0  0.71005  0.33104  0.59586  1.0000
  Fe  Fe140     1.0  0.67851  0.14443  0.76781  1.0000
  S   S280      1.0  0.65096  0.13400  0.77747  1.0000
  Fe  Fe141     1.0  0.70015  0.17832  0.76016  1.0000
  S   S281      1.0  0.70925  0.20673  0.76113  1.0000
  S   S282      1.0  0.70083  0.12698  0.75229  1.0000
  S   S283      1.0  0.72349  0.16231  0.74464  1.0000
  Fe  Fe142     1.0  0.68788  0.30973  0.74937  1.0000
  H   H1642     1.0  0.73550  0.27418  0.79536  1.0000
  S   S284      1.0  0.67448  0.28394  0.75883  1.0000
  H   H1643     1.0  0.61071  0.08114  0.95545  1.0000
  Fe  Fe143     1.0  0.55398  0.04755  0.85439  1.0000
  S   S285      1.0  0.55640  0.01992  0.87037  1.0000
  S   S286      1.0  0.52814  0.06249  0.84501  1.0000
  Fe  Fe144     1.0  0.59444  0.05171  0.84895  1.0000
  S   S287      1.0  0.59915  0.02382  0.86430  1.0000
  S   S288      1.0  0.62032  0.06597  0.83931  1.0000
  Fe  Fe145     1.0  0.57672  0.01671  0.83607  1.0000
  H   H1644     1.0  0.51415  0.00086  0.51195  1.0000
  Fe  Fe146     1.0  0.57857  0.02926  0.89749  1.0000
  S   S289      1.0  0.58390  0.02487  0.94486  1.0000
  S   S290      1.0  0.57330  0.04390  0.81864  1.0000
  S   S291      1.0  0.57483  0.05759  0.88362  1.0000
  H   H1645     1.0  0.61213  0.09095  0.92074  1.0000
  C   C958      1.0  0.68073  0.19034  0.66962  1.0000
  C   C959      1.0  0.71131  0.19166  0.62268  1.0000
  H   H1646     1.0  0.73562  0.18086  0.81219  1.0000
  H   H1647     1.0  0.54583  0.02022  0.79699  1.0000
  H   H1648     1.0  0.53612  0.02632  0.50786  1.0000
  H   H1649     1.0  0.68179  0.28927  0.82577  1.0000
  C   C960      1.0  0.73750  0.19264  0.91850  1.0000
  N   N70       1.0  0.70885  0.28302  0.83766  1.0000
  H   H1650     1.0  0.52637  0.02941  0.81220  1.0000
  H   H1651     1.0  0.74085  0.26635  0.84574  1.0000
  H   H1652     1.0  0.67508  0.31266  0.85954  1.0000
  H   H1653     1.0  0.73245  0.27701  0.52956  1.0000
  C   C961      1.0  0.64280  0.11507  0.79515  1.0000
  C   C962      1.0  0.65389  0.10212  0.80718  1.0000
  C   C963      1.0  0.64675  0.08726  0.82035  1.0000
  C   C964      1.0  0.62843  0.08500  0.82178  1.0000
  C   C965      1.0  0.61736  0.09789  0.80958  1.0000
  C   C966      1.0  0.62450  0.11276  0.79643  1.0000
  H   H1654     1.0  0.66797  0.10355  0.80640  1.0000
  H   H1655     1.0  0.65553  0.07740  0.82941  1.0000
  H   H1656     1.0  0.60328  0.09649  0.81044  1.0000
  H   H1657     1.0  0.61572  0.12261  0.78725  1.0000
  C   C967      1.0  0.69903  0.22794  0.75938  1.0000
  C   C968      1.0  0.70973  0.24255  0.75611  1.0000
  C   C969      1.0  0.70237  0.25971  0.75467  1.0000
  C   C970      1.0  0.68422  0.26251  0.75739  1.0000
  C   C971      1.0  0.67352  0.24791  0.76069  1.0000
  C   C972      1.0  0.68085  0.23068  0.76138  1.0000
  H   H1658     1.0  0.72383  0.24057  0.75452  1.0000
  H   H1659     1.0  0.71075  0.27080  0.75200  1.0000
  H   H1660     1.0  0.65946  0.24995  0.76289  1.0000
  H   H1661     1.0  0.67246  0.21959  0.76400  1.0000
  C   C973      1.0  0.72065  0.28587  0.86263  1.0000
  H   H1662     1.0  0.70579  0.29132  0.79441  1.0000
  H   H1663     1.0  0.59791  0.01635  0.50197  1.0000
  C   C974      1.0  0.72237  0.14523  0.64414  1.0000
  C   C975      1.0  0.71761  0.14474  0.61551  1.0000
  C   C976      1.0  0.73023  0.14673  0.59398  1.0000
  H   H1664     1.0  0.74346  0.19475  0.65519  1.0000
  H   H1665     1.0  0.70405  0.14276  0.60987  1.0000
  H   H1666     1.0  0.72629  0.14621  0.57216  1.0000
  C   C977      1.0  0.73888  0.13488  0.84411  1.0000
  S   S292      1.0  0.73591  0.13732  0.94041  1.0000
  C   C978      1.0  0.72193  0.13778  0.88723  1.0000
  C   C979      1.0  0.72272  0.13744  0.85768  1.0000
  H   H1667     1.0  0.70939  0.13974  0.89758  1.0000
  H   H1668     1.0  0.71081  0.13904  0.84546  1.0000
  C   C980      1.0  0.66176  0.07345  0.89526  1.0000
  H   H1669     1.0  0.74638  0.17983  0.68394  1.0000
  C   C981      1.0  0.63398  0.02599  0.91943  1.0000
  C   C982      1.0  0.52797  0.00119  0.81089  1.0000
  C   C983      1.0  0.58982  0.00540  0.49662  1.0000
  N   N71       1.0  0.63555  0.05983  0.92210  1.0000
  H   H1670     1.0  0.74275  0.29795  0.59984  1.0000
  H   H1671     1.0  0.74328  0.21781  0.87644  1.0000
  C   C984      1.0  0.72885  0.19117  0.82505  1.0000
  H   H1672     1.0  0.72697  0.17454  0.86126  1.0000
  H   H1673     1.0  0.65475  0.04129  0.90371  1.0000
  H   H1674     1.0  0.68791  0.25366  0.86028  1.0000
  H   H1675     1.0  0.72195  0.19714  0.86761  1.0000
  H   H1676     1.0  0.73969  0.18685  0.93967  1.0000
  C   C985      1.0  0.57789  0.00998  0.72793  1.0000
  S   S293      1.0  0.67719  0.32894  0.71733  1.0000
  C   C986      1.0  0.70702  0.26393  0.82995  1.0000
  H   H1677     1.0  0.63926  0.02381  0.94089  1.0000
  C   C987      1.0  0.51990  0.00732  0.71982  1.0000
  H   H1678     1.0  0.71523  0.30719  0.81650  1.0000
  C   C988      1.0  0.53493  0.05412  0.77014  1.0000
  C   C989      1.0  0.70184  0.25156  0.85404  1.0000
  H   H1679     1.0  0.59332  0.07916  0.93082  1.0000
  C   C990      1.0  0.57864  0.00932  0.75746  1.0000
  H   H1680     1.0  0.71909  0.25813  0.82046  1.0000
  C   C991      1.0  0.61577  0.06196  0.92117  1.0000
  H   H1681     1.0  0.72309  0.21578  0.63376  1.0000
  H   H1682     1.0  0.54354  0.06307  0.75841  1.0000
  H   H1683     1.0  0.52185  0.06085  0.77179  1.0000
  H   H1684     1.0  0.54071  0.05256  0.79128  1.0000
  N   N72       1.0  0.52376  0.02233  0.76818  1.0000
  H   H1685     1.0  0.58080  0.02205  0.71717  1.0000
  H   H1686     1.0  0.70309  0.23777  0.84647  1.0000
  N   N73       1.0  0.65634  0.10304  0.70263  1.0000
  C   C992      1.0  0.66144  0.12203  0.70082  1.0000
  C   C993      1.0  0.67069  0.09330  0.71872  1.0000
  C   C994      1.0  0.63901  0.10233  0.71820  1.0000
  C   C995      1.0  0.65458  0.09619  0.67309  1.0000
  C   C996      1.0  0.64751  0.13498  0.68830  1.0000
  C   C997      1.0  0.68904  0.09253  0.70485  1.0000
  C   C998      1.0  0.63556  0.08576  0.73585  1.0000
  C   C999      1.0  0.65078  0.07656  0.67017  1.0000
  H   H1687     1.0  0.66483  0.12710  0.72202  1.0000
  H   H1688     1.0  0.67339  0.12352  0.68776  1.0000
  H   H1689     1.0  0.66741  0.07942  0.72250  1.0000
  H   H1690     1.0  0.67211  0.09919  0.74007  1.0000
  H   H1691     1.0  0.63766  0.11330  0.73355  1.0000
  H   H1692     1.0  0.62773  0.10429  0.70351  1.0000
  H   H1693     1.0  0.64375  0.10330  0.66178  1.0000
  H   H1694     1.0  0.66668  0.09872  0.66078  1.0000
  H   H1695     1.0  0.64479  0.13217  0.66591  1.0000
  H   H1696     1.0  0.63510  0.13541  0.70046  1.0000
  H   H1697     1.0  0.65275  0.14843  0.68912  1.0000
  H   H1698     1.0  0.68905  0.08510  0.68482  1.0000
  H   H1699     1.0  0.69447  0.10566  0.70131  1.0000
  H   H1700     1.0  0.69838  0.08548  0.71917  1.0000
  H   H1701     1.0  0.63729  0.07335  0.72404  1.0000
  H   H1702     1.0  0.62181  0.08646  0.74370  1.0000
  H   H1703     1.0  0.64413  0.08520  0.75473  1.0000
  H   H1704     1.0  0.66092  0.06802  0.68043  1.0000
  H   H1705     1.0  0.65079  0.07303  0.64751  1.0000
  H   H1706     1.0  0.63758  0.07362  0.67832  1.0000
  C   C1000     1.0  0.71675  0.22401  0.68425  1.0000
  C   C1001     1.0  0.71084  0.20904  0.63966  1.0000
  C   C1002     1.0  0.70604  0.24126  0.67916  1.0000
  C   C1003     1.0  0.72030  0.19224  0.68289  1.0000
  H   H1707     1.0  0.71813  0.22246  0.70739  1.0000
  H   H1708     1.0  0.73024  0.22643  0.67647  1.0000
  H   H1709     1.0  0.69979  0.21745  0.63138  1.0000
  H   H1710     1.0  0.72357  0.19041  0.91317  1.0000
  H   H1711     1.0  0.70249  0.24314  0.65676  1.0000
  H   H1712     1.0  0.69404  0.24195  0.69243  1.0000
  H   H1713     1.0  0.71403  0.25255  0.68563  1.0000
  H   H1714     1.0  0.66817  0.06715  0.95914  1.0000
  C   C1004     1.0  0.53422  0.03647  0.75433  1.0000
  H   H1715     1.0  0.63870  0.01474  0.90632  1.0000
  C   C1005     1.0  0.73149  0.18806  0.85687  1.0000
  C   C1006     1.0  0.71508  0.29290  0.81227  1.0000
  H   H1716     1.0  0.50022  0.03444  0.74946  1.0000
  C   C1007     1.0  0.50537  0.05802  0.84189  1.0000
  H   H1717     1.0  0.72499  0.18779  0.61669  1.0000
  H   H1718     1.0  0.61100  0.06075  0.89916  1.0000
  H   H1719     1.0  0.71588  0.17948  0.67495  1.0000
  H   H1720     1.0  0.58221  0.02081  0.76925  1.0000
  H   H1721     1.0  0.73874  0.26690  0.88319  1.0000
  H   H1722     1.0  0.69616  0.31086  0.87576  1.0000
  H   H1723     1.0  0.69373  0.31889  0.84020  1.0000
  H   H1724     1.0  0.67813  0.19152  0.64676  1.0000
  H   H1725     1.0  0.66769  0.19019  0.68008  1.0000
  H   H1726     1.0  0.52888  0.03981  0.73320  1.0000
  C   C1008     1.0  0.64104  0.05899  0.95250  1.0000
  H   H1727     1.0  0.70425  0.19381  0.60248  1.0000
  S   S294      1.0  0.71562  0.31208  0.73459  1.0000
  H   H1728     1.0  0.71350  0.28315  0.88250  1.0000
  H   H1729     1.0  0.61947  0.02542  0.91977  1.0000
  H   H1730     1.0  0.66686  0.04548  0.94381  1.0000
  H   H1731     1.0  0.68738  0.17759  0.67439  1.0000
  H   H1732     1.0  0.63518  0.04392  0.88443  1.0000
  C   C1009     1.0  0.69079  0.20614  0.68069  1.0000
  C   C1010     1.0  0.50488  0.02882  0.76982  1.0000
  C   C1011     1.0  0.52854  0.99934  0.50974  1.0000
  H   H1733     1.0  0.55102  0.01092  0.49239  1.0000
  H   H1734     1.0  0.50521  0.03348  0.86446  1.0000
  H   H1735     1.0  0.67161  0.06860  0.91066  1.0000
  H   H1736     1.0  0.63469  0.07991  0.88967  1.0000
  H   H1737     1.0  0.66181  0.06471  0.87658  1.0000
  C   C1012     1.0  0.73730  0.13587  0.90341  1.0000
  C   C1013     1.0  0.60786  0.07940  0.93282  1.0000
  H   H1738     1.0  0.69010  0.20588  0.70411  1.0000
  H   H1739     1.0  0.72982  0.29807  0.54506  1.0000
  C   C1014     1.0  0.58040  0.00750  0.96952  1.0000
  C   C1015     1.0  0.64037  0.04317  0.90632  1.0000
  H   H1740     1.0  0.63304  0.04958  0.96459  1.0000
  C   C1016     1.0  0.73366  0.28815  0.80130  1.0000
  H   H1741     1.0  0.71043  0.25266  0.87269  1.0000
  H   H1742     1.0  0.68270  0.21778  0.67398  1.0000
  N   N74       1.0  0.70961  0.20757  0.67124  1.0000
  H   H1743     1.0  0.63805  0.07175  0.96309  1.0000
  S   S295      1.0  0.68934  0.33050  0.78303  1.0000
  H   H1744     1.0  0.60941  0.05139  0.93318  1.0000
  C   C1017     1.0  0.74793  0.14898  0.60072  1.0000
  C   C1018     1.0  0.74002  0.14773  0.65088  1.0000
  C   C1019     1.0  0.53126  0.01916  0.79723  1.0000
  C   C1020     1.0  0.66062  0.05490  0.95865  1.0000
  H   H1745     1.0  0.68439  0.28218  0.86109  1.0000
  H   H1746     1.0  0.69692  0.26263  0.81317  1.0000
  H   H1747     1.0  0.71463  0.19046  0.82018  1.0000
  C   C1021     1.0  0.68914  0.30921  0.85554  1.0000
  H   H1748     1.0  0.54807  0.03180  0.75090  1.0000
  H   H1749     1.0  0.50597  0.01187  0.71820  1.0000
  H   H1750     1.0  0.70510  0.18043  0.63289  1.0000
  C   C1022     1.0  0.64312  0.07561  0.90769  1.0000
  H   H1751     1.0  0.72402  0.29999  0.86409  1.0000
  H   H1752     1.0  0.73288  0.20431  0.81812  1.0000
  H   H1753     1.0  0.71844  0.19142  0.70603  1.0000
  C   C1023     1.0  0.69058  0.29013  0.84451  1.0000
  H   H1754     1.0  0.66605  0.08645  0.88777  1.0000
  C   C1024     1.0  0.74027  0.19265  0.67761  1.0000
  H   H1755     1.0  0.73993  0.20686  0.92037  1.0000
  H   H1756     1.0  0.64323  0.08709  0.92218  1.0000
  S   S296      1.0  0.74059  0.13506  0.80706  1.0000
  H   H1757     1.0  0.53421  0.99868  0.53127  1.0000
  H   H1758     1.0  0.50364  0.04017  0.78450  1.0000
  H   H1759     1.0  0.74724  0.16926  0.89785  1.0000
  H   H1760     1.0  0.53246  0.00146  0.83306  1.0000
  H   H1761     1.0  0.74401  0.14789  0.67268  1.0000
  C   C1025     1.0  0.53681  0.01465  0.49377  1.0000
  H   H1762     1.0  0.66183  0.04841  0.97949  1.0000
  H   H1763     1.0  0.54030  0.00182  0.75004  1.0000
  C   C1026     1.0  0.73822  0.27506  0.86386  1.0000
  H   H1764     1.0  0.74652  0.20275  0.69076  1.0000
  H   H1765     1.0  0.73593  0.29577  0.78185  1.0000
  C   C1027     1.0  0.52616  0.00595  0.75056  1.0000
  H   H1766     1.0  0.52843  0.01582  0.70714  1.0000
  H   H1767     1.0  0.73248  0.27950  0.56723  1.0000
  H   H1768     1.0  0.74393  0.29221  0.81624  1.0000
  H   H1769     1.0  0.50086  0.08198  0.81881  1.0000
  C   C1028     1.0  0.73698  0.28521  0.54732  1.0000
  H   H1770     1.0  0.74762  0.27674  0.61633  1.0000
  H   H1771     1.0  0.55993  0.03936  0.48267  1.0000
  Fe  Fe147     1.0  0.67738  0.34586  0.25071  1.0000
  S   S297      1.0  0.70251  0.35961  0.24068  1.0000
  S   S298      1.0  0.65061  0.36033  0.25923  1.0000
  H   H1772     1.0  0.55753  0.55236  0.03238  1.0000
  C   C1029     1.0  0.72281  0.65205  0.09507  1.0000
  H   H1773     1.0  0.66643  0.53998  0.07459  1.0000
  C   C1030     1.0  0.67269  0.57417  0.06009  1.0000
  C   C1031     1.0  0.63854  0.43260  0.41073  1.0000
  Fe  Fe148     1.0  0.57761  0.47340  0.33297  1.0000
  S   S299      1.0  0.57439  0.44684  0.31399  1.0000
  S   S300      1.0  0.58089  0.49773  0.30609  1.0000
  Fe  Fe149     1.0  0.57440  0.46003  0.39389  1.0000
  S   S301      1.0  0.57069  0.43222  0.37821  1.0000
  S   S302      1.0  0.57406  0.46339  0.44228  1.0000
  Fe  Fe150     1.0  0.59283  0.43678  0.34761  1.0000
  S   S303      1.0  0.61859  0.42021  0.34208  1.0000
  Fe  Fe151     1.0  0.55250  0.44455  0.34576  1.0000
  S   S304      1.0  0.52671  0.43506  0.32737  1.0000
  S   S305      1.0  0.59747  0.46388  0.36508  1.0000
  S   S306      1.0  0.55486  0.47179  0.36302  1.0000
  H   H1774     1.0  0.73451  0.34447  0.05990  1.0000
  C   C1032     1.0  0.61147  0.41650  0.41854  1.0000
  C   C1033     1.0  0.54585  0.54747  0.02119  1.0000
  Fe  Fe152     1.0  0.71030  0.65060  0.26596  1.0000
  Fe  Fe153     1.0  0.71531  0.33738  0.26564  1.0000
  S   S307      1.0  0.72405  0.63935  0.30548  1.0000
  Fe  Fe154     1.0  0.68233  0.64014  0.22061  1.0000
  S   S308      1.0  0.66332  0.61723  0.21418  1.0000
  S   S309      1.0  0.71104  0.63337  0.22735  1.0000
  Fe  Fe155     1.0  0.59031  0.55738  0.12777  1.0000
  S   S310      1.0  0.60238  0.53034  0.12020  1.0000
  S   S311      1.0  0.60599  0.58285  0.13264  1.0000
  Fe  Fe156     1.0  0.55298  0.54457  0.11100  1.0000
  S   S312      1.0  0.56301  0.51701  0.10329  1.0000
  S   S313      1.0  0.52572  0.55285  0.09452  1.0000
  Fe  Fe157     1.0  0.57853  0.52077  0.14321  1.0000
  S   S314      1.0  0.57957  0.49702  0.17231  1.0000
  Fe  Fe158     1.0  0.58571  0.52875  0.08091  1.0000
  S   S315      1.0  0.59594  0.52303  0.03612  1.0000
  S   S316      1.0  0.56698  0.54785  0.15255  1.0000
  S   S317      1.0  0.57517  0.55630  0.08706  1.0000
  H   H1775     1.0  0.74641  0.61018  0.06725  1.0000
  H   H1776     1.0  0.61729  0.40399  0.41056  1.0000
  H   H1777     1.0  0.67844  0.58338  0.04479  1.0000
  H   H1778     1.0  0.51570  0.53472  0.14599  1.0000
  N   N75       1.0  0.62727  0.66144  0.23026  1.0000
  C   C1034     1.0  0.64831  0.60735  0.19015  1.0000
  C   C1035     1.0  0.64039  0.59155  0.19782  1.0000
  C   C1036     1.0  0.62773  0.58368  0.18042  1.0000
  C   C1037     1.0  0.62254  0.59163  0.15511  1.0000
  C   C1038     1.0  0.63058  0.60734  0.14728  1.0000
  C   C1039     1.0  0.64343  0.61508  0.16448  1.0000
  H   H1779     1.0  0.64397  0.58540  0.21758  1.0000
  H   H1780     1.0  0.62175  0.57164  0.18691  1.0000
  H   H1781     1.0  0.62677  0.61365  0.12776  1.0000
  H   H1782     1.0  0.64938  0.62713  0.15804  1.0000
  H   H1783     1.0  0.54682  0.48263  0.28535  1.0000
  C   C1040     1.0  0.57974  0.49803  0.45973  1.0000
  H   H1784     1.0  0.64521  0.64345  0.25182  1.0000
  C   C1041     1.0  0.58951  0.50783  0.00955  1.0000
  C   C1042     1.0  0.57916  0.49341  0.01543  1.0000
  C   C1043     1.0  0.53222  0.50644  0.24078  1.0000
  H   H1785     1.0  0.58046  0.50141  0.43771  1.0000
  C   C1044     1.0  0.62122  0.62961  0.24630  1.0000
  H   H1786     1.0  0.57504  0.49104  0.03680  1.0000
  H   H1787     1.0  0.60643  0.40522  0.22675  1.0000
  C   C1045     1.0  0.58042  0.49738  0.26888  1.0000
  C   C1046     1.0  0.58188  0.51318  0.25396  1.0000
  C   C1047     1.0  0.58143  0.51338  0.22436  1.0000
  C   C1048     1.0  0.57965  0.49772  0.20945  1.0000
  C   C1049     1.0  0.57813  0.48194  0.22437  1.0000
  C   C1050     1.0  0.57844  0.48176  0.25392  1.0000
  H   H1788     1.0  0.58338  0.52534  0.26536  1.0000
  H   H1789     1.0  0.58264  0.52562  0.21310  1.0000
  H   H1790     1.0  0.57664  0.46979  0.21296  1.0000
  H   H1791     1.0  0.57709  0.46957  0.26507  1.0000
  C   C1051     1.0  0.72796  0.34485  0.13137  1.0000
  S   S318      1.0  0.73847  0.34250  0.42739  1.0000
  C   C1052     1.0  0.72428  0.34605  0.10238  1.0000
  H   H1792     1.0  0.51347  0.44907  0.38095  1.0000
  H   H1793     1.0  0.63883  0.39396  0.43579  1.0000
  C   C1053     1.0  0.64201  0.37689  0.28275  1.0000
  C   C1054     1.0  0.62408  0.38204  0.28098  1.0000
  C   C1055     1.0  0.61664  0.39515  0.29887  1.0000
  C   C1056     1.0  0.62704  0.40335  0.31896  1.0000
  C   C1057     1.0  0.64496  0.39821  0.32075  1.0000
  C   C1058     1.0  0.65241  0.38516  0.30281  1.0000
  H   H1794     1.0  0.61584  0.37574  0.26568  1.0000
  H   H1795     1.0  0.60284  0.39878  0.29717  1.0000
  H   H1796     1.0  0.65325  0.40440  0.33606  1.0000
  H   H1797     1.0  0.66618  0.38141  0.30457  1.0000
  C   C1059     1.0  0.64366  0.52483  0.08121  1.0000
  C   C1060     1.0  0.52583  0.52318  0.98619  1.0000
  H   H1798     1.0  0.52936  0.49445  0.33288  1.0000
  H   H1799     1.0  0.65444  0.53610  0.04379  1.0000
  H   H1800     1.0  0.64810  0.44180  0.41970  1.0000
  H   H1801     1.0  0.50779  0.45709  0.28463  1.0000
  C   C1061     1.0  0.63088  0.64682  0.25106  1.0000
  H   H1802     1.0  0.62716  0.65092  0.27270  1.0000
  C   C1062     1.0  0.59586  0.65594  0.21070  1.0000
  H   H1803     1.0  0.51604  0.50487  0.30713  1.0000
  H   H1804     1.0  0.65838  0.42256  0.38183  1.0000
  C   C1063     1.0  0.73420  0.64847  0.33592  1.0000
  H   H1805     1.0  0.54265  0.52804  0.05302  1.0000
  C   C1064     1.0  0.57421  0.48191  0.99366  1.0000
  H   H1806     1.0  0.50811  0.49315  0.23285  1.0000
  C   C1065     1.0  0.64992  0.41734  0.39869  1.0000
  H   H1807     1.0  0.60535  0.44230  0.45716  1.0000
  C   C1066     1.0  0.73831  0.33959  0.39044  1.0000
  Fe  Fe159     1.0  0.71633  0.65792  0.20320  1.0000
  C   C1067     1.0  0.72341  0.65300  0.12460  1.0000
  H   H1808     1.0  0.65013  0.39697  0.46793  1.0000
  H   H1809     1.0  0.55558  0.52074  0.02471  1.0000
  H   H1810     1.0  0.60788  0.45053  0.42252  1.0000
  H   H1811     1.0  0.54861  0.54883  0.99845  1.0000
  C   C1068     1.0  0.52926  0.50005  0.02130  1.0000
  C   C1069     1.0  0.73711  0.65722  0.07874  1.0000
  H   H1812     1.0  0.54236  0.50824  0.25714  1.0000
  C   C1070     1.0  0.50237  0.44571  0.36803  1.0000
  H   H1813     1.0  0.51853  0.49312  0.01043  1.0000
  H   H1814     1.0  0.53265  0.47015  0.30610  1.0000
  H   H1815     1.0  0.52481  0.44017  0.25835  1.0000
  H   H1816     1.0  0.64561  0.42643  0.46329  1.0000
  H   H1817     1.0  0.58829  0.40126  0.42665  1.0000
  S   S319      1.0  0.68121  0.65579  0.26109  1.0000
  N   N76       1.0  0.52125  0.47910  0.26677  1.0000
  C   C1071     1.0  0.53091  0.46733  0.24596  1.0000
  H   H1818     1.0  0.62010  0.58155  0.03427  1.0000
  C   C1072     1.0  0.54325  0.52820  0.02968  1.0000
  C   C1073     1.0  0.62666  0.45952  0.45263  1.0000
  C   C1074     1.0  0.53627  0.44872  0.25624  1.0000
  H   H1819     1.0  0.60695  0.63131  0.25053  1.0000
  C   C1075     1.0  0.50521  0.43884  0.34113  1.0000
  H   H1820     1.0  0.73893  0.62306  0.35486  1.0000
  H   H1821     1.0  0.62767  0.64416  0.19364  1.0000
  C   C1076     1.0  0.63745  0.39973  0.45697  1.0000
  C   C1077     1.0  0.51651  0.49593  0.25144  1.0000
  H   H1822     1.0  0.52300  0.46576  0.22644  1.0000
  H   H1823     1.0  0.51798  0.49759  0.06401  1.0000
  H   H1824     1.0  0.54512  0.44237  0.24045  1.0000
  H   H1825     1.0  0.58291  0.65479  0.22118  1.0000
  C   C1078     1.0  0.52895  0.49826  0.31039  1.0000
  H   H1826     1.0  0.54362  0.44898  0.27627  1.0000
  C   C1079     1.0  0.57680  0.48064  0.46749  1.0000
  H   H1827     1.0  0.65247  0.51294  0.08103  1.0000
  H   H1828     1.0  0.62641  0.61962  0.26142  1.0000
  H   H1829     1.0  0.56625  0.47080  0.99856  1.0000
  H   H1830     1.0  0.71104  0.34712  0.33417  1.0000
  H   H1831     1.0  0.71094  0.34895  0.09560  1.0000
  H   H1832     1.0  0.63543  0.45484  0.46982  1.0000
  H   H1833     1.0  0.62750  0.39245  0.46895  1.0000
  H   H1834     1.0  0.62345  0.62397  0.22516  1.0000
  H   H1835     1.0  0.52746  0.51972  0.23411  1.0000
  N   N77       1.0  0.62487  0.42796  0.43218  1.0000
  H   H1836     1.0  0.63435  0.46589  0.43592  1.0000
  H   H1837     1.0  0.60602  0.42303  0.39940  1.0000
  N   N78       1.0  0.62758  0.44356  0.24748  1.0000
  C   C1080     1.0  0.62533  0.42477  0.23825  1.0000
  C   C1081     1.0  0.64695  0.44571  0.25275  1.0000
  C   C1082     1.0  0.62169  0.45524  0.22344  1.0000
  C   C1083     1.0  0.61641  0.44700  0.27320  1.0000
  C   C1084     1.0  0.60651  0.41965  0.23022  1.0000
  C   C1085     1.0  0.65513  0.43378  0.27581  1.0000
  C   C1086     1.0  0.62404  0.47512  0.22707  1.0000
  C   C1087     1.0  0.62155  0.46233  0.29266  1.0000
  H   H1838     1.0  0.63400  0.42146  0.22000  1.0000
  H   H1839     1.0  0.62947  0.41547  0.25513  1.0000
  H   H1840     1.0  0.65005  0.45934  0.25848  1.0000
  H   H1841     1.0  0.65454  0.44314  0.23308  1.0000
  H   H1842     1.0  0.62866  0.45125  0.20374  1.0000
  H   H1843     1.0  0.60745  0.45382  0.21913  1.0000
  H   H1844     1.0  0.60243  0.44930  0.26707  1.0000
  H   H1845     1.0  0.61645  0.43509  0.28671  1.0000
  H   H1846     1.0  0.59690  0.42263  0.24719  1.0000
  H   H1847     1.0  0.60210  0.42586  0.21027  1.0000
  H   H1848     1.0  0.64727  0.43395  0.29537  1.0000
  H   H1849     1.0  0.65700  0.42003  0.26838  1.0000
  H   H1850     1.0  0.66840  0.43844  0.28121  1.0000
  H   H1851     1.0  0.61578  0.48061  0.24429  1.0000
  H   H1852     1.0  0.61935  0.48188  0.20764  1.0000
  H   H1853     1.0  0.63794  0.47862  0.22987  1.0000
  H   H1854     1.0  0.60942  0.46966  0.29933  1.0000
  H   H1855     1.0  0.63017  0.47213  0.28338  1.0000
  H   H1856     1.0  0.62759  0.45716  0.31236  1.0000
  C   C1088     1.0  0.65669  0.56056  0.11909  1.0000
  H   H1857     1.0  0.68119  0.56212  0.05968  1.0000
  H   H1858     1.0  0.67331  0.58076  0.08083  1.0000
  H   H1859     1.0  0.65838  0.57251  0.13214  1.0000
  H   H1860     1.0  0.66958  0.55735  0.10955  1.0000
  H   H1861     1.0  0.65339  0.55004  0.13419  1.0000
  Fe  Fe160     1.0  0.70542  0.34162  0.20285  1.0000
  H   H1862     1.0  0.53450  0.55608  0.02732  1.0000
  C   C1089     1.0  0.64128  0.56396  0.09833  1.0000
  H   H1863     1.0  0.63798  0.57830  0.09879  1.0000
  C   C1090     1.0  0.50532  0.54574  0.10763  1.0000
  H   H1864     1.0  0.60054  0.64240  0.20601  1.0000
  H   H1865     1.0  0.74599  0.38995  0.33067  1.0000
  C   C1091     1.0  0.59568  0.41180  0.43710  1.0000
  H   H1866     1.0  0.63146  0.52120  0.07011  1.0000
  H   H1867     1.0  0.74426  0.61429  0.23489  1.0000
  C   C1092     1.0  0.65288  0.53997  0.06628  1.0000
  H   H1868     1.0  0.62977  0.55757  0.10789  1.0000
  H   H1869     1.0  0.64066  0.52794  0.10345  1.0000
  H   H1870     1.0  0.53106  0.47915  0.05231  1.0000
  C   C1093     1.0  0.73841  0.65902  0.13803  1.0000
  H   H1871     1.0  0.74786  0.64574  0.24052  1.0000
  C   C1094     1.0  0.72281  0.34330  0.34567  1.0000
  H   H1872     1.0  0.53842  0.50020  0.22202  1.0000
  N   N79       1.0  0.64371  0.55776  0.06842  1.0000
  C   C1095     1.0  0.65358  0.57092  0.05138  1.0000
  H   H1873     1.0  0.51291  0.52647  0.05507  1.0000
  H   H1874     1.0  0.58391  0.52452  0.47411  1.0000
  N   N80       1.0  0.52742  0.51962  0.01722  1.0000
  H   H1875     1.0  0.64691  0.58410  0.05237  1.0000
  H   H1876     1.0  0.58633  0.42317  0.43949  1.0000
  H   H1877     1.0  0.53946  0.50795  0.30777  1.0000
  C   C1096     1.0  0.73765  0.34350  0.08202  1.0000
  C   C1097     1.0  0.74069  0.63703  0.35703  1.0000
  H   H1878     1.0  0.65373  0.56703  0.02879  1.0000
  H   H1879     1.0  0.63219  0.43960  0.39260  1.0000
  H   H1880     1.0  0.65890  0.41161  0.41482  1.0000
  C   C1098     1.0  0.53288  0.48179  0.29203  1.0000
  C   C1099     1.0  0.74533  0.34120  0.13970  1.0000
  H   H1881     1.0  0.60130  0.56995  0.04461  1.0000
  H   H1882     1.0  0.61353  0.58093  0.07099  1.0000
  H   H1883     1.0  0.54149  0.49484  0.01120  1.0000
  C   C1100     1.0  0.62577  0.55609  0.05516  1.0000
  C   C1101     1.0  0.61479  0.57329  0.05124  1.0000
  C   C1102     1.0  0.72299  0.34406  0.37525  1.0000
  S   S320      1.0  0.73927  0.33960  0.29399  1.0000
  H   H1884     1.0  0.71127  0.34842  0.38637  1.0000
  H   H1885     1.0  0.61743  0.54745  0.06798  1.0000
  S   S321      1.0  0.71031  0.34785  0.15595  1.0000
  H   H1886     1.0  0.62444  0.42185  0.47648  1.0000
  C   C1103     1.0  0.52996  0.49373  0.05204  1.0000
  H   H1887     1.0  0.62680  0.54968  0.03412  1.0000
  C   C1104     1.0  0.58170  0.51114  0.48051  1.0000
  H   H1888     1.0  0.71240  0.64876  0.13695  1.0000
  H   H1889     1.0  0.54334  0.47330  0.23921  1.0000
  H   H1890     1.0  0.64209  0.40701  0.38875  1.0000
  C   C1105     1.0  0.61531  0.44481  0.44067  1.0000
  H   H1891     1.0  0.59973  0.40695  0.45811  1.0000
  C   C1106     1.0  0.63322  0.41975  0.45798  1.0000
  H   H1892     1.0  0.54172  0.49852  0.06297  1.0000
  C   C1107     1.0  0.73806  0.33825  0.33104  1.0000
  S   S322      1.0  0.73623  0.65470  0.04182  1.0000
  H   H1893     1.0  0.63587  0.66366  0.15804  1.0000
  C   C1108     1.0  0.50400  0.53735  0.13360  1.0000
  H   H1894     1.0  0.50826  0.50503  0.26425  1.0000
  C   C1109     1.0  0.51131  0.52710  0.03186  1.0000
  H   H1895     1.0  0.50946  0.54133  0.02715  1.0000
  H   H1896     1.0  0.61779  0.46996  0.46156  1.0000
  S   S323      1.0  0.74041  0.65887  0.17503  1.0000
  H   H1897     1.0  0.71126  0.64711  0.08481  1.0000
  H   H1898     1.0  0.53141  0.50605  0.47313  1.0000
  C   C1110     1.0  0.63422  0.65585  0.20186  1.0000
  H   H1899     1.0  0.64831  0.65158  0.20356  1.0000
  H   H1900     1.0  0.49915  0.48011  0.31755  1.0000
  C   C1111     1.0  0.50466  0.47007  0.27501  1.0000
  H   H1901     1.0  0.74620  0.37642  0.36112  1.0000
  H   H1902     1.0  0.59307  0.66299  0.19071  1.0000
  S   S324      1.0  0.68768  0.66394  0.19379  1.0000
  Fe  Fe161     1.0  0.68069  0.35011  0.74998  1.0000
  S   S325      1.0  0.70839  0.35512  0.73505  1.0000
  S   S326      1.0  0.65895  0.37202  0.75304  1.0000
  H   H1903     1.0  0.53355  0.56550  0.55704  1.0000
  H   H1904     1.0  0.53153  0.38622  0.84954  1.0000
  N   N81       1.0  0.52065  0.52296  0.53974  1.0000
  H   H1905     1.0  0.55616  0.51457  0.77300  1.0000
  H   H1906     1.0  0.65473  0.60541  0.63252  1.0000
  Fe  Fe162     1.0  0.58644  0.47535  0.83145  1.0000
  S   S327      1.0  0.57982  0.44936  0.81295  1.0000
  S   S328      1.0  0.59592  0.49753  0.80405  1.0000
  Fe  Fe163     1.0  0.57702  0.46464  0.89183  1.0000
  S   S329      1.0  0.56990  0.43749  0.87676  1.0000
  S   S330      1.0  0.57197  0.46995  0.93903  1.0000
  Fe  Fe164     1.0  0.59438  0.43775  0.84976  1.0000
  S   S331      1.0  0.61463  0.41465  0.84740  1.0000
  Fe  Fe165     1.0  0.55595  0.45139  0.84100  1.0000
  S   S332      1.0  0.53017  0.44564  0.81868  1.0000
  S   S333      1.0  0.60241  0.46386  0.86736  1.0000
  S   S334      1.0  0.56168  0.47832  0.85708  1.0000
  H   H1907     1.0  0.54047  0.50330  0.96096  1.0000
  C   C1112     1.0  0.72539  0.65520  0.59866  1.0000
  H   H1908     1.0  0.57369  0.46329  0.50279  1.0000
  H   H1909     1.0  0.58014  0.40579  0.75912  1.0000
  C   C1113     1.0  0.57949  0.48457  0.96564  1.0000
  C   C1114     1.0  0.73031  0.65718  0.88735  1.0000
  Fe  Fe166     1.0  0.67852  0.64051  0.71810  1.0000
  S   S335      1.0  0.66394  0.61467  0.71036  1.0000
  S   S336      1.0  0.70547  0.63549  0.73719  1.0000
  Fe  Fe167     1.0  0.58858  0.55493  0.63084  1.0000
  S   S337      1.0  0.60392  0.53147  0.61353  1.0000
  S   S338      1.0  0.60035  0.58218  0.63942  1.0000
  Fe  Fe168     1.0  0.55323  0.53521  0.62875  1.0000
  S   S339      1.0  0.56686  0.51079  0.61207  1.0000
  S   S340      1.0  0.52469  0.52819  0.63752  1.0000
  Fe  Fe169     1.0  0.58767  0.51607  0.64409  1.0000
  S   S341      1.0  0.59598  0.49260  0.67078  1.0000
  Fe  Fe170     1.0  0.58145  0.52806  0.58280  1.0000
  S   S342      1.0  0.58274  0.52460  0.53452  1.0000
  S   S343      1.0  0.57337  0.53941  0.66275  1.0000
  S   S344      1.0  0.56697  0.55260  0.59804  1.0000
  H   H1910     1.0  0.56121  0.50303  0.73001  1.0000
  H   H1911     1.0  0.71233  0.65495  0.63879  1.0000
  C   C1115     1.0  0.57594  0.47665  0.49639  1.0000
  H   H1912     1.0  0.60012  0.37769  0.83647  1.0000
  H   H1913     1.0  0.64704  0.57974  0.60501  1.0000
  C   C1116     1.0  0.64574  0.60614  0.69123  1.0000
  C   C1117     1.0  0.64333  0.58785  0.69115  1.0000
  C   C1118     1.0  0.62958  0.58029  0.67565  1.0000
  C   C1119     1.0  0.61787  0.59092  0.65996  1.0000
  C   C1120     1.0  0.62024  0.60923  0.66019  1.0000
  C   C1121     1.0  0.63400  0.61680  0.67570  1.0000
  H   H1914     1.0  0.65224  0.57939  0.70305  1.0000
  H   H1915     1.0  0.62802  0.56622  0.67582  1.0000
  H   H1916     1.0  0.61130  0.61764  0.64824  1.0000
  H   H1917     1.0  0.63553  0.63087  0.67546  1.0000
  Fe  Fe171     1.0  0.71662  0.33407  0.76637  1.0000
  C   C1122     1.0  0.58998  0.49889  0.95979  1.0000
  H   H1918     1.0  0.56119  0.39288  0.76493  1.0000
  C   C1123     1.0  0.58077  0.50718  0.50941  1.0000
  C   C1124     1.0  0.57792  0.48976  0.51719  1.0000
  H   H1919     1.0  0.71329  0.65620  0.58676  1.0000
  H   H1920     1.0  0.59419  0.50117  0.93844  1.0000
  H   H1921     1.0  0.52857  0.49960  0.67625  1.0000
  H   H1922     1.0  0.57716  0.48641  0.53921  1.0000
  H   H1923     1.0  0.54208  0.40546  0.80823  1.0000
  C   C1125     1.0  0.59523  0.49614  0.76699  1.0000
  C   C1126     1.0  0.59816  0.51120  0.75088  1.0000
  C   C1127     1.0  0.59802  0.51042  0.72132  1.0000
  C   C1128     1.0  0.59536  0.49444  0.70770  1.0000
  C   C1129     1.0  0.59249  0.47939  0.72381  1.0000
  C   C1130     1.0  0.59214  0.48029  0.75329  1.0000
  H   H1924     1.0  0.60053  0.52354  0.76128  1.0000
  H   H1925     1.0  0.60032  0.52209  0.70909  1.0000
  H   H1926     1.0  0.59028  0.46704  0.71337  1.0000
  H   H1927     1.0  0.58963  0.46867  0.76530  1.0000
  C   C1131     1.0  0.50898  0.44582  0.83442  1.0000
  H   H1928     1.0  0.70283  0.59504  0.79012  1.0000
  C   C1132     1.0  0.73673  0.33423  0.58160  1.0000
  H   H1929     1.0  0.63294  0.62351  0.75556  1.0000
  H   H1930     1.0  0.69516  0.58816  0.59389  1.0000
  C   C1133     1.0  0.64655  0.38324  0.77990  1.0000
  C   C1134     1.0  0.63257  0.39474  0.77195  1.0000
  C   C1135     1.0  0.62282  0.40460  0.79210  1.0000
  C   C1136     1.0  0.62675  0.40293  0.82073  1.0000
  C   C1137     1.0  0.64049  0.39116  0.82875  1.0000
  C   C1138     1.0  0.65038  0.38146  0.80855  1.0000
  H   H1931     1.0  0.62936  0.39611  0.74990  1.0000
  H   H1932     1.0  0.61226  0.41343  0.78541  1.0000
  H   H1933     1.0  0.64363  0.38961  0.85080  1.0000
  H   H1934     1.0  0.66102  0.37267  0.81515  1.0000
  H   H1935     1.0  0.58334  0.36122  0.80129  1.0000
  H   H1936     1.0  0.71553  0.60335  0.65587  1.0000
  C   C1139     1.0  0.54857  0.50247  0.77013  1.0000
  C   C1140     1.0  0.54998  0.40359  0.82776  1.0000
  C   C1141     1.0  0.56934  0.40323  0.77412  1.0000
  H   H1937     1.0  0.56698  0.36189  0.77372  1.0000
  S   S345      1.0  0.74010  0.65165  0.68077  1.0000
  H   H1938     1.0  0.68546  0.63736  0.59214  1.0000
  H   H1939     1.0  0.52143  0.54784  0.51710  1.0000
  C   C1142     1.0  0.72351  0.33288  0.60229  1.0000
  H   H1940     1.0  0.55488  0.48179  0.65959  1.0000
  C   C1143     1.0  0.72007  0.65649  0.83829  1.0000
  H   H1941     1.0  0.54193  0.54039  0.53029  1.0000
  H   H1942     1.0  0.72229  0.59719  0.60876  1.0000
  H   H1943     1.0  0.53509  0.50487  0.77797  1.0000
  H   H1944     1.0  0.68852  0.60840  0.57975  1.0000
  H   H1945     1.0  0.66003  0.60771  0.59655  1.0000
  H   H1946     1.0  0.66394  0.57965  0.81874  1.0000
  H   H1947     1.0  0.56558  0.34671  0.80161  1.0000
  H   H1948     1.0  0.50471  0.52816  0.57688  1.0000
  S   S346      1.0  0.67225  0.66274  0.74845  1.0000
  H   H1949     1.0  0.54773  0.53122  0.73063  1.0000
  C   C1144     1.0  0.55018  0.49581  0.73943  1.0000
  C   C1145     1.0  0.58980  0.37447  0.85183  1.0000
  C   C1146     1.0  0.74495  0.33636  0.63908  1.0000
  N   N82       1.0  0.53414  0.49771  0.72091  1.0000
  H   H1950     1.0  0.64278  0.58016  0.83447  1.0000
  H   H1951     1.0  0.64454  0.58631  0.79856  1.0000
  C   C1147     1.0  0.53383  0.51264  0.55727  1.0000
  N   N83       1.0  0.56471  0.39010  0.82346  1.0000
  C   C1148     1.0  0.57395  0.38750  0.85127  1.0000
  C   C1149     1.0  0.55691  0.37323  0.81332  1.0000
  C   C1150     1.0  0.53661  0.39966  0.85110  1.0000
  C   C1151     1.0  0.71358  0.60815  0.60117  1.0000
  H   H1952     1.0  0.56483  0.38258  0.86747  1.0000
  H   H1953     1.0  0.55141  0.36585  0.83132  1.0000
  H   H1954     1.0  0.54557  0.37624  0.79909  1.0000
  H   H1955     1.0  0.50460  0.47015  0.75505  1.0000
  C   C1152     1.0  0.74153  0.65470  0.58440  1.0000
  H   H1956     1.0  0.54223  0.40189  0.87228  1.0000
  H   H1957     1.0  0.71821  0.61220  0.58006  1.0000
  H   H1958     1.0  0.51819  0.44483  0.87713  1.0000
  H   H1959     1.0  0.51818  0.49170  0.57595  1.0000
  H   H1960     1.0  0.54952  0.50736  0.68597  1.0000
  C   C1153     1.0  0.53494  0.51070  0.49447  1.0000
  H   H1961     1.0  0.55483  0.49258  0.78443  1.0000
  H   H1962     1.0  0.54722  0.51306  0.54797  1.0000
  N   N84       1.0  0.64398  0.45495  0.76525  1.0000
  C   C1154     1.0  0.63948  0.44031  0.74530  1.0000
  C   C1155     1.0  0.66294  0.45172  0.77361  1.0000
  C   C1156     1.0  0.64218  0.47197  0.74917  1.0000
  C   C1157     1.0  0.63151  0.45478  0.78988  1.0000
  C   C1158     1.0  0.62088  0.44110  0.73236  1.0000
  C   C1159     1.0  0.66683  0.43469  0.79046  1.0000
  C   C1160     1.0  0.64574  0.48895  0.76547  1.0000
  C   C1161     1.0  0.63717  0.46431  0.81704  1.0000
  H   H1963     1.0  0.64897  0.43952  0.72748  1.0000
  H   H1964     1.0  0.64068  0.42742  0.75597  1.0000
  H   H1965     1.0  0.66821  0.46266  0.78596  1.0000
  H   H1966     1.0  0.67148  0.45119  0.75460  1.0000
  H   H1967     1.0  0.65094  0.47162  0.73042  1.0000
  H   H1968     1.0  0.62863  0.47397  0.74092  1.0000
  H   H1969     1.0  0.61850  0.46059  0.78376  1.0000
  H   H1970     1.0  0.62878  0.44104  0.79606  1.0000
  H   H1971     1.0  0.61961  0.45145  0.71605  1.0000
  H   H1972     1.0  0.61854  0.42845  0.72153  1.0000
  H   H1973     1.0  0.61042  0.44285  0.74836  1.0000
  H   H1974     1.0  0.68041  0.43495  0.79897  1.0000
  H   H1975     1.0  0.65787  0.43316  0.80857  1.0000
  H   H1976     1.0  0.66632  0.42282  0.77695  1.0000
  H   H1977     1.0  0.65910  0.48913  0.77463  1.0000
  H   H1978     1.0  0.63562  0.49158  0.78181  1.0000
  H   H1979     1.0  0.64465  0.50020  0.75065  1.0000
  H   H1980     1.0  0.62678  0.47411  0.82316  1.0000
  H   H1981     1.0  0.64943  0.47157  0.81578  1.0000
  H   H1982     1.0  0.63840  0.45479  0.83469  1.0000
  H   H1983     1.0  0.69918  0.61202  0.68017  1.0000
  H   H1984     1.0  0.68113  0.58725  0.78528  1.0000
  C   C1162     1.0  0.74683  0.65030  0.87939  1.0000
  H   H1985     1.0  0.68852  0.60559  0.76530  1.0000
  C   C1163     1.0  0.52988  0.49317  0.56240  1.0000
  H   H1986     1.0  0.52515  0.40898  0.84908  1.0000
  S   S347      1.0  0.74124  0.33531  0.92747  1.0000
  S   S348      1.0  0.68860  0.65882  0.68514  1.0000
  H   H1987     1.0  0.51263  0.51578  0.71051  1.0000
  H   H1988     1.0  0.56138  0.41564  0.77596  1.0000
  H   H1989     1.0  0.55968  0.47511  0.69465  1.0000
  N   N85       1.0  0.68275  0.60558  0.62433  1.0000
  C   C1164     1.0  0.66425  0.60089  0.61620  1.0000
  C   C1165     1.0  0.68206  0.62457  0.63336  1.0000
  C   C1166     1.0  0.68846  0.59397  0.64863  1.0000
  C   C1167     1.0  0.69437  0.60239  0.59908  1.0000
  H   H1990     1.0  0.54308  0.50006  0.50421  1.0000
  C   C1168     1.0  0.67654  0.63799  0.61054  1.0000
  H   H1991     1.0  0.71546  0.61973  0.61458  1.0000
  C   C1169     1.0  0.53995  0.49697  0.69054  1.0000
  C   C1170     1.0  0.50327  0.52355  0.55488  1.0000
  H   H1992     1.0  0.69484  0.62885  0.64154  1.0000
  H   H1993     1.0  0.67284  0.62641  0.65139  1.0000
  H   H1994     1.0  0.67725  0.59203  0.66320  1.0000
  H   H1995     1.0  0.69247  0.58061  0.64105  1.0000
  H   H1996     1.0  0.51182  0.55834  0.56363  1.0000
  C   C1171     1.0  0.66098  0.58119  0.61140  1.0000
  C   C1172     1.0  0.72570  0.33893  0.84597  1.0000
  H   H1997     1.0  0.59612  0.37512  0.87284  1.0000
  H   H1998     1.0  0.55479  0.48182  0.74036  1.0000
  H   H1999     1.0  0.53720  0.53360  0.69671  1.0000
  H   H2000     1.0  0.50652  0.49288  0.76225  1.0000
  H   H2001     1.0  0.67735  0.65144  0.61943  1.0000
  H   H2002     1.0  0.67020  0.65297  0.85667  1.0000
  C   C1173     1.0  0.52425  0.51500  0.72483  1.0000
  H   H2003     1.0  0.52732  0.54330  0.72700  1.0000
  N   N86       1.0  0.66364  0.61783  0.81029  1.0000
  C   C1174     1.0  0.66229  0.63620  0.82221  1.0000
  C   C1175     1.0  0.65624  0.61849  0.78091  1.0000
  C   C1176     1.0  0.68292  0.61224  0.80953  1.0000
  C   C1177     1.0  0.65340  0.60604  0.82924  1.0000
  C   C1178     1.0  0.67063  0.63873  0.85151  1.0000
  C   C1179     1.0  0.63696  0.62504  0.77788  1.0000
  C   C1180     1.0  0.68892  0.59921  0.78626  1.0000
  C   C1181     1.0  0.65121  0.58704  0.81922  1.0000
  H   H2004     1.0  0.66842  0.64567  0.80763  1.0000
  H   H2005     1.0  0.64835  0.64078  0.82438  1.0000
  H   H2006     1.0  0.65705  0.60544  0.77055  1.0000
  H   H2007     1.0  0.66430  0.62715  0.76761  1.0000
  H   H2008     1.0  0.69132  0.62383  0.80633  1.0000
  H   H2009     1.0  0.68721  0.60653  0.83004  1.0000
  H   H2010     1.0  0.65965  0.60505  0.85033  1.0000
  H   H2011     1.0  0.63998  0.61177  0.83298  1.0000
  H   H2012     1.0  0.68467  0.63443  0.85230  1.0000
  H   H2013     1.0  0.58564  0.36075  0.84904  1.0000
  Fe  Fe172     1.0  0.71487  0.65513  0.70570  1.0000
  H   H2014     1.0  0.62785  0.61727  0.79064  1.0000
  H   H2015     1.0  0.63532  0.63923  0.78276  1.0000
  Fe  Fe173     1.0  0.69991  0.65867  0.76553  1.0000
  C   C1182     1.0  0.74037  0.65301  0.64369  1.0000
  H   H2016     1.0  0.66277  0.57338  0.63091  1.0000
  H   H2017     1.0  0.66324  0.63202  0.86820  1.0000
  C   C1183     1.0  0.70346  0.60040  0.66755  1.0000
  H   H2018     1.0  0.58866  0.38881  0.79824  1.0000
  H   H2019     1.0  0.51857  0.51641  0.74609  1.0000
  S   S349      1.0  0.74140  0.65527  0.54730  1.0000
  C   C1184     1.0  0.73660  0.64969  0.83033  1.0000
  H   H2020     1.0  0.57862  0.40030  0.85931  1.0000
  H   H2021     1.0  0.51165  0.56376  0.62211  1.0000
  H   H2022     1.0  0.54291  0.52252  0.49182  1.0000
  C   C1185     1.0  0.53495  0.53156  0.71948  1.0000
  H   H2023     1.0  0.55535  0.41670  0.83240  1.0000
  C   C1186     1.0  0.57732  0.39778  0.80272  1.0000
  C   C1187     1.0  0.54890  0.47962  0.68055  1.0000
  C   C1188     1.0  0.72481  0.65445  0.62815  1.0000
  H   H2024     1.0  0.50934  0.52300  0.49803  1.0000
  H   H2025     1.0  0.66923  0.57550  0.59435  1.0000
  H   H2026     1.0  0.53928  0.46912  0.67783  1.0000
  C   C1189     1.0  0.51804  0.51453  0.51148  1.0000
  H   H2027     1.0  0.70703  0.58991  0.68291  1.0000
  H   H2028     1.0  0.58333  0.40965  0.81182  1.0000
  H   H2029     1.0  0.53511  0.51872  0.57836  1.0000
  S   S350      1.0  0.71006  0.33206  0.65621  1.0000
  C   C1190     1.0  0.56918  0.36040  0.79668  1.0000
  C   C1191     1.0  0.74124  0.33381  0.89035  1.0000
  C   C1192     1.0  0.50339  0.53770  0.63179  1.0000
  C   C1193     1.0  0.52185  0.48282  0.72559  1.0000
  H   H2030     1.0  0.71449  0.34371  0.88698  1.0000
  S   S351      1.0  0.70263  0.66034  0.81366  1.0000
  C   C1194     1.0  0.52764  0.54113  0.53551  1.0000
  C   C1195     1.0  0.50679  0.44502  0.86355  1.0000
  C   C1196     1.0  0.71705  0.66019  0.86694  1.0000
  H   H2031     1.0  0.52841  0.48568  0.54264  1.0000
  C   C1197     1.0  0.54174  0.51712  0.96801  1.0000
  H   H2032     1.0  0.52863  0.46994  0.72151  1.0000
  H   H2033     1.0  0.72775  0.66013  0.90922  1.0000
  H   H2034     1.0  0.53040  0.54760  0.58059  1.0000
  C   C1198     1.0  0.52565  0.55371  0.56080  1.0000
  H   H2035     1.0  0.71408  0.34356  0.83479  1.0000
  H   H2036     1.0  0.51065  0.48380  0.71049  1.0000
  H   H2037     1.0  0.51444  0.51629  0.97724  1.0000
  H   H2038     1.0  0.51100  0.50200  0.51350  1.0000
  H   H2039     1.0  0.66274  0.63647  0.60376  1.0000
  C   C1199     1.0  0.72601  0.33909  0.87553  1.0000
  H   H2040     1.0  0.52263  0.53727  0.98179  1.0000
  S   S352      1.0  0.74121  0.33413  0.79382  1.0000
  H   H2041     1.0  0.52426  0.47714  0.77088  1.0000
  H   H2042     1.0  0.73337  0.33343  0.55957  1.0000
  C   C1200     1.0  0.51403  0.48100  0.75525  1.0000
  C   C1201     1.0  0.72746  0.33397  0.63119  1.0000
  H   H2043     1.0  0.54264  0.52572  0.94927  1.0000
  H   H2044     1.0  0.73917  0.64670  0.80847  1.0000
  Fe  Fe174     1.0  0.70540  0.33273  0.70429  1.0000
  C   C1202     1.0  0.74063  0.33341  0.83094  1.0000
  H   H2045     1.0  0.54116  0.48696  0.57389  1.0000
  H   H2046     1.0  0.60307  0.52139  0.97669  1.0000
  C   C1203     1.0  0.50058  0.55532  0.62430  1.0000
  H   H2047     1.0  0.55451  0.51815  0.97887  1.0000
  C   C1204     1.0  0.59498  0.51038  0.98160  1.0000
  H   H2048     1.0  0.74826  0.33722  0.66113  1.0000
  Fe  Fe175     1.0  0.68847  0.67916  0.23459  1.0000
  S   S353      1.0  0.67441  0.70553  0.24374  1.0000
  H   H2049     1.0  0.70916  0.84874  0.09171  1.0000
  Fe  Fe176     1.0  0.71827  0.84082  0.20922  1.0000
  S   S354      1.0  0.69374  0.83082  0.18988  1.0000
  H   H2050     1.0  0.60249  0.66654  0.25145  1.0000
  Fe  Fe177     1.0  0.70746  0.83144  0.26936  1.0000
  S   S355      1.0  0.68179  0.82080  0.25342  1.0000
  S   S356      1.0  0.71275  0.82682  0.31673  1.0000
  Fe  Fe178     1.0  0.69756  0.80771  0.21906  1.0000
  S   S357      1.0  0.69595  0.78079  0.19781  1.0000
  Fe  Fe179     1.0  0.67966  0.84480  0.22526  1.0000
  S   S358      1.0  0.65225  0.85843  0.21997  1.0000
  S   S359      1.0  0.72320  0.81689  0.23610  1.0000
  S   S360      1.0  0.70424  0.85633  0.24355  1.0000
  Fe  Fe180     1.0  0.57577  0.95783  0.08256  1.0000
  S   S361      1.0  0.57330  0.92937  0.09542  1.0000
  S   S362      1.0  0.57326  0.96280  0.03477  1.0000
  Fe  Fe181     1.0  0.57742  0.96888  0.14481  1.0000
  S   S363      1.0  0.57451  0.94159  0.16134  1.0000
  H   H2051     1.0  0.64159  0.67488  0.28509  1.0000
  Fe  Fe182     1.0  0.59427  0.93366  0.12822  1.0000
  S   S364      1.0  0.62002  0.91751  0.13621  1.0000
  Fe  Fe183     1.0  0.55379  0.93961  0.12752  1.0000
  S   S365      1.0  0.52794  0.92592  0.13522  1.0000
  S   S366      1.0  0.59815  0.96141  0.11289  1.0000
  S   S367      1.0  0.55524  0.96759  0.11351  1.0000
  C   C1205     1.0  0.63466  0.68360  0.26974  1.0000
  C   C1206     1.0  0.57448  0.98857  0.46191  1.0000
  C   C1207     1.0  0.72067  0.87746  0.42113  1.0000
  C   C1208     1.0  0.70684  0.80220  0.12291  1.0000
  H   H2052     1.0  0.51417  0.96134  0.12284  1.0000
  C   C1209     1.0  0.62841  0.90062  0.15923  1.0000
  C   C1210     1.0  0.61815  0.89285  0.17993  1.0000
  C   C1211     1.0  0.62565  0.87997  0.19813  1.0000
  C   C1212     1.0  0.64350  0.87459  0.19599  1.0000
  C   C1213     1.0  0.65372  0.88228  0.17518  1.0000
  C   C1214     1.0  0.64622  0.89515  0.15700  1.0000
  H   H2053     1.0  0.60444  0.89680  0.18196  1.0000
  H   H2054     1.0  0.61756  0.87417  0.21409  1.0000
  H   H2055     1.0  0.66743  0.87835  0.17312  1.0000
  H   H2056     1.0  0.65433  0.90099  0.14110  1.0000
  C   C1215     1.0  0.68181  0.72626  0.23213  1.0000
  C   C1216     1.0  0.69125  0.72792  0.20715  1.0000
  C   C1217     1.0  0.69555  0.74468  0.19719  1.0000
  C   C1218     1.0  0.69105  0.75998  0.21246  1.0000
  C   C1219     1.0  0.68191  0.75833  0.23777  1.0000
  C   C1220     1.0  0.67709  0.74158  0.24729  1.0000
  H   H2057     1.0  0.69479  0.71632  0.19506  1.0000
  H   H2058     1.0  0.70234  0.74571  0.17740  1.0000
  H   H2059     1.0  0.67827  0.76995  0.24973  1.0000
  H   H2060     1.0  0.66973  0.74046  0.26660  1.0000
  C   C1221     1.0  0.52908  0.99372  0.16980  1.0000
  H   H2061     1.0  0.69458  0.87384  0.40203  1.0000
  C   C1222     1.0  0.57604  0.98045  0.01036  1.0000
  C   C1223     1.0  0.72639  0.76210  0.13986  1.0000
  C   C1224     1.0  0.69872  0.84260  0.44538  1.0000
  H   H2062     1.0  0.68981  0.84449  0.46362  1.0000
  C   C1225     1.0  0.57753  0.97535  0.25405  1.0000
  C   C1226     1.0  0.57803  0.97564  0.22452  1.0000
  H   H2063     1.0  0.51503  0.95967  0.99882  1.0000
  H   H2064     1.0  0.72116  0.81245  0.37109  1.0000
  H   H2065     1.0  0.57590  0.96305  0.26494  1.0000
  H   H2066     1.0  0.57661  0.96366  0.21278  1.0000
  H   H2067     1.0  0.74490  0.86895  0.46008  1.0000
  C   C1227     1.0  0.72819  0.83326  0.34299  1.0000
  H   H2068     1.0  0.70242  0.79103  0.13558  1.0000
  H   H2069     1.0  0.64047  0.69673  0.27213  1.0000
  H   H2070     1.0  0.51852  0.95230  0.18104  1.0000
  C   C1228     1.0  0.63313  0.66998  0.17870  1.0000
  H   H2071     1.0  0.52675  0.90407  0.05684  1.0000
  C   C1229     1.0  0.72273  0.84927  0.13152  1.0000
  C   C1230     1.0  0.72184  0.84841  0.10203  1.0000
  H   H2072     1.0  0.71078  0.85039  0.14372  1.0000
  N   N87       1.0  0.63530  0.80288  0.20097  1.0000
  C   C1231     1.0  0.63559  0.79868  0.23207  1.0000
  C   C1232     1.0  0.63115  0.78608  0.18588  1.0000
  C   C1233     1.0  0.62084  0.81652  0.19589  1.0000
  C   C1234     1.0  0.65297  0.80978  0.19299  1.0000
  C   C1235     1.0  0.63540  0.81451  0.25235  1.0000
  C   C1236     1.0  0.64490  0.77092  0.18943  1.0000
  C   C1237     1.0  0.61760  0.82242  0.16534  1.0000
  C   C1238     1.0  0.65778  0.80996  0.16135  1.0000
  H   H2073     1.0  0.62414  0.79069  0.23801  1.0000
  H   H2074     1.0  0.64745  0.79048  0.23764  1.0000
  H   H2075     1.0  0.62933  0.78795  0.16306  1.0000
  H   H2076     1.0  0.61826  0.78118  0.19309  1.0000
  H   H2077     1.0  0.60815  0.81183  0.20428  1.0000
  H   H2078     1.0  0.62357  0.82892  0.20732  1.0000
  H   H2079     1.0  0.65428  0.82337  0.20098  1.0000
  H   H2080     1.0  0.66369  0.80211  0.20372  1.0000
  H   H2081     1.0  0.62201  0.82061  0.25410  1.0000
  H   H2082     1.0  0.63930  0.80999  0.27371  1.0000
  H   H2083     1.0  0.64465  0.82466  0.24596  1.0000
  H   H2084     1.0  0.64563  0.76607  0.21137  1.0000
  H   H2085     1.0  0.64109  0.75963  0.17621  1.0000
  H   H2086     1.0  0.65815  0.77467  0.18245  1.0000
  H   H2087     1.0  0.62869  0.83004  0.15724  1.0000
  H   H2088     1.0  0.60598  0.83161  0.16496  1.0000
  H   H2089     1.0  0.61454  0.81149  0.15101  1.0000
  H   H2090     1.0  0.66114  0.82350  0.15502  1.0000
  H   H2091     1.0  0.64752  0.80572  0.14673  1.0000
  H   H2092     1.0  0.66974  0.80156  0.15760  1.0000
  C   C1239     1.0  0.74531  0.91071  0.11495  1.0000
  H   H2093     1.0  0.73774  0.90468  0.01506  1.0000
  C   C1240     1.0  0.70059  0.87941  0.46169  1.0000
  H   H2094     1.0  0.70090  0.82820  0.44271  1.0000
  H   H2095     1.0  0.53230  0.91547  0.02545  1.0000
  H   H2096     1.0  0.73104  0.72512  0.44988  1.0000
  H   H2097     1.0  0.68889  0.87580  0.44924  1.0000
  C   C1241     1.0  0.71664  0.85100  0.45078  1.0000
  N   N88       1.0  0.73982  0.79151  0.12507  1.0000
  C   C1242     1.0  0.70865  0.87091  0.39763  1.0000
  C   C1243     1.0  0.51226  0.92891  0.05223  1.0000
  N   N89       1.0  0.63089  0.95114  0.21619  1.0000
  C   C1244     1.0  0.63816  0.95621  0.18785  1.0000
  C   C1245     1.0  0.64520  0.94075  0.23127  1.0000
  C   C1246     1.0  0.73860  0.79846  0.15474  1.0000
  C   C1247     1.0  0.61470  0.94065  0.21102  1.0000
  H   H2098     1.0  0.74141  0.82101  0.40944  1.0000
  C   C1248     1.0  0.65060  0.92300  0.21773  1.0000
  H   H2099     1.0  0.61295  0.95735  0.26948  1.0000
  C   C1249     1.0  0.60667  0.93096  0.23618  1.0000
  H   H2100     1.0  0.69647  0.80528  0.10709  1.0000
  H   H2101     1.0  0.63975  0.94453  0.17387  1.0000
  H   H2102     1.0  0.64167  0.93779  0.25326  1.0000
  H   H2103     1.0  0.65724  0.94865  0.23310  1.0000
  H   H2104     1.0  0.71106  0.85671  0.39342  1.0000
  C   C1250     1.0  0.74317  0.72574  0.46271  1.0000
  H   H2105     1.0  0.60400  0.94920  0.20229  1.0000
  H   H2106     1.0  0.61703  0.93075  0.19412  1.0000
  H   H2107     1.0  0.73178  0.67551  0.32317  1.0000
  C   C1251     1.0  0.72449  0.79857  0.10767  1.0000
  C   C1252     1.0  0.73568  0.89239  0.02687  1.0000
  H   H2108     1.0  0.66092  0.91638  0.23082  1.0000
  H   H2109     1.0  0.63944  0.91403  0.21679  1.0000
  H   H2110     1.0  0.65627  0.92455  0.19647  1.0000
  C   C1253     1.0  0.53578  0.98106  0.19301  1.0000
  H   H2111     1.0  0.72948  0.90547  0.06536  1.0000
  C   C1254     1.0  0.73880  0.84783  0.33994  1.0000
  H   H2112     1.0  0.59523  0.93858  0.24476  1.0000
  H   H2113     1.0  0.61590  0.92783  0.25345  1.0000
  H   H2114     1.0  0.60190  0.91806  0.22895  1.0000
  H   H2115     1.0  0.52858  0.99525  0.25918  1.0000
  H   H2116     1.0  0.73437  0.87400  0.41455  1.0000
  H   H2117     1.0  0.70072  0.89390  0.45886  1.0000
  H   H2118     1.0  0.70764  0.81389  0.13670  1.0000
  H   H2119     1.0  0.54005  0.95032  0.04755  1.0000
  H   H2120     1.0  0.74515  0.73938  0.46986  1.0000
  H   H2121     1.0  0.74052  0.90090  0.45035  1.0000
  C   C1255     1.0  0.58234  0.99680  0.01835  1.0000
  C   C1256     1.0  0.57888  0.99091  0.26964  1.0000
  H   H2122     1.0  0.69191  0.84744  0.42630  1.0000
  S   S368      1.0  0.57815  0.98976  0.30666  1.0000
  C   C1257     1.0  0.52866  0.97617  0.04415  1.0000
  C   C1258     1.0  0.51054  0.96196  0.19358  1.0000
  H   H2123     1.0  0.53743  0.99416  0.44671  1.0000
  C   C1259     1.0  0.50631  0.93504  0.13153  1.0000
  C   C1260     1.0  0.62649  0.96788  0.23206  1.0000
  H   H2124     1.0  0.71191  0.87775  0.37777  1.0000
  C   C1261     1.0  0.52900  0.91730  0.04795  1.0000
  H   H2125     1.0  0.73131  0.90757  0.11176  1.0000
  H   H2126     1.0  0.64331  0.67994  0.18178  1.0000
  C   C1262     1.0  0.73904  0.84906  0.14506  1.0000
  H   H2127     1.0  0.49917  0.94893  0.23110  1.0000
  H   H2128     1.0  0.72625  0.76516  0.16262  1.0000
  H   H2129     1.0  0.73755  0.81307  0.15454  1.0000
  H   H2130     1.0  0.49915  0.92314  0.99999  1.0000
  S   S369      1.0  0.74074  0.84997  0.18204  1.0000
  H   H2131     1.0  0.72638  0.84529  0.43572  1.0000
  H   H2132     1.0  0.61326  0.96621  0.16873  1.0000
  N   N90       1.0  0.71719  0.87083  0.45044  1.0000
  H   H2133     1.0  0.65154  0.96160  0.19004  1.0000
  S   S370      1.0  0.58030  0.99255  0.17324  1.0000
  C   C1263     1.0  0.51576  0.94622  0.00792  1.0000
  H   H2134     1.0  0.62000  0.67658  0.17747  1.0000
  N   N91       1.0  0.52200  0.97320  0.21148  1.0000
  H   H2135     1.0  0.53257  0.97759  0.02184  1.0000
  H   H2136     1.0  0.51654  0.98412  0.04846  1.0000
  H   H2137     1.0  0.71329  0.76479  0.13051  1.0000
  C   C1264     1.0  0.74072  0.82862  0.39028  1.0000
  H   H2138     1.0  0.72648  0.79425  0.16543  1.0000
  H   H2139     1.0  0.52951  0.94175  0.00313  1.0000
  H   H2140     1.0  0.54195  0.97016  0.24377  1.0000
  H   H2141     1.0  0.72899  0.74771  0.13803  1.0000
  H   H2142     1.0  0.63566  0.96299  0.27551  1.0000
  C   C1265     1.0  0.50309  0.93548  0.98999  1.0000
  H   H2143     1.0  0.54742  0.93913  0.24246  1.0000
  H   H2144     1.0  0.52944  0.93520  0.21937  1.0000
  C   C1266     1.0  0.52713  0.95668  0.05259  1.0000
  C   C1267     1.0  0.53956  0.94482  0.22483  1.0000
  C   C1268     1.0  0.72925  0.82375  0.36839  1.0000
  C   C1269     1.0  0.51062  0.98730  0.22509  1.0000
  C   C1270     1.0  0.62711  0.96993  0.17104  1.0000
  N   N92       1.0  0.51235  0.94694  0.03909  1.0000
  H   H2145     1.0  0.60632  0.68062  0.22251  1.0000
  S   S371      1.0  0.73552  0.84580  0.04890  1.0000
  H   H2146     1.0  0.63263  0.97099  0.14953  1.0000
  H   H2147     1.0  0.74093  0.71772  0.48179  1.0000
  H   H2148     1.0  0.52230  0.95993  0.25207  1.0000
  H   H2149     1.0  0.54377  0.97061  0.18221  1.0000
  C   C1271     1.0  0.53122  0.96258  0.23418  1.0000
  H   H2150     1.0  0.54041  0.92245  0.05948  1.0000
  H   H2151     1.0  0.72760  0.81146  0.09815  1.0000
  H   H2152     1.0  0.72096  0.84561  0.47148  1.0000
  H   H2153     1.0  0.54856  0.94625  0.20683  1.0000
  H   H2154     1.0  0.62055  0.68505  0.27516  1.0000
  C   C1272     1.0  0.50321  0.95282  0.12552  1.0000
  H   H2155     1.0  0.74057  0.76688  0.10216  1.0000
  C   C1273     1.0  0.73873  0.89466  0.05875  1.0000
  H   H2156     1.0  0.72190  0.78979  0.08952  1.0000
  H   H2157     1.0  0.61455  0.97455  0.22312  1.0000
  H   H2158     1.0  0.71960  0.89205  0.42043  1.0000
  C   C1274     1.0  0.62338  0.96647  0.26397  1.0000
  H   H2159     1.0  0.51448  0.99248  0.41027  1.0000
  H   H2160     1.0  0.56104  0.96609  0.47804  1.0000
  H   H2161     1.0  0.51010  0.93007  0.07525  1.0000
  H   H2162     1.0  0.74074  0.73995  0.41279  1.0000
  H   H2163     1.0  0.63475  0.68864  0.22563  1.0000
  C   C1275     1.0  0.73723  0.84693  0.08588  1.0000
  H   H2164     1.0  0.50115  0.98136  0.23985  1.0000
  H   H2165     1.0  0.52602  0.95621  0.07588  1.0000
  C   C1276     1.0  0.73664  0.66650  0.33913  1.0000
  H   H2166     1.0  0.50118  0.92108  0.04467  1.0000
  C   C1277     1.0  0.63765  0.67708  0.23935  1.0000
  S   S372      1.0  0.71739  0.67477  0.24212  1.0000
  C   C1278     1.0  0.73653  0.89529  0.47078  1.0000
  H   H2167     1.0  0.73817  0.85536  0.32069  1.0000
  H   H2168     1.0  0.50358  0.97008  0.17745  1.0000
  H   H2169     1.0  0.61888  0.97957  0.27197  1.0000
  C   C1279     1.0  0.74088  0.77172  0.12421  1.0000
  C   C1280     1.0  0.73273  0.87558  0.46836  1.0000
  H   H2170     1.0  0.72179  0.88885  0.02339  1.0000
  H   H2171     1.0  0.57075  0.98625  0.44034  1.0000
  H   H2172     1.0  0.65199  0.67432  0.23690  1.0000
  C   C1281     1.0  0.60800  0.66677  0.22979  1.0000
  C   C1282     1.0  0.58016  0.99150  0.21033  1.0000
  H   H2173     1.0  0.52123  0.98698  0.15369  1.0000
  H   H2174     1.0  0.50230  0.99428  0.20919  1.0000
  H   H2175     1.0  0.51606  0.99442  0.46054  1.0000
  H   H2176     1.0  0.54530  0.98837  0.20581  1.0000
  H   H2177     1.0  0.62754  0.98321  0.18061  1.0000
  H   H2178     1.0  0.53934  0.98200  0.05670  1.0000
  H   H2179     1.0  0.63725  0.97737  0.22956  1.0000
  H   H2180     1.0  0.73402  0.88260  0.06920  1.0000
  H   H2181     1.0  0.74444  0.74345  0.36237  1.0000
  H   H2182     1.0  0.74623  0.71970  0.39571  1.0000
  C   C1283     1.0  0.74559  0.67290  0.36294  1.0000
  H   H2183     1.0  0.74385  0.88157  0.01776  1.0000
  H   H2184     1.0  0.74751  0.68685  0.36498  1.0000
  H   H2185     1.0  0.72533  0.90302  0.47976  1.0000
  H   H2186     1.0  0.74777  0.90952  0.13790  1.0000
  H   H2187     1.0  0.74759  0.92453  0.10916  1.0000
  Fe  Fe184     1.0  0.68466  0.68066  0.71685  1.0000
  S   S373      1.0  0.67502  0.70708  0.69937  1.0000
  H   H2188     1.0  0.71956  0.87311  0.59750  1.0000
  Fe  Fe185     1.0  0.71257  0.83565  0.70863  1.0000
  S   S374      1.0  0.68668  0.82301  0.70076  1.0000
  H   H2189     1.0  0.65419  0.85874  0.55752  1.0000
  Fe  Fe186     1.0  0.70466  0.84304  0.77119  1.0000
  S   S375      1.0  0.67803  0.83121  0.76668  1.0000
  S   S376      1.0  0.71159  0.85375  0.81519  1.0000
  Fe  Fe187     1.0  0.69157  0.80941  0.74214  1.0000
  S   S377      1.0  0.69017  0.78088  0.75688  1.0000
  Fe  Fe188     1.0  0.67521  0.84604  0.72567  1.0000
  S   S378      1.0  0.64793  0.85865  0.71508  1.0000
  S   S379      1.0  0.71819  0.82065  0.74865  1.0000
  S   S380      1.0  0.70107  0.85937  0.73150  1.0000
  Fe  Fe189     1.0  0.56896  0.95974  0.58566  1.0000
  S   S381      1.0  0.56693  0.93143  0.60004  1.0000
  S   S382      1.0  0.56585  0.96508  0.53790  1.0000
  Fe  Fe190     1.0  0.57024  0.97249  0.64729  1.0000
  S   S383      1.0  0.56798  0.94548  0.66498  1.0000
  S   S384      1.0  0.73895  0.85963  0.54991  1.0000
  Fe  Fe191     1.0  0.58793  0.93703  0.63242  1.0000
  S   S385      1.0  0.61460  0.92284  0.64274  1.0000
  Fe  Fe192     1.0  0.54721  0.94220  0.63164  1.0000
  S   S386      1.0  0.52158  0.93020  0.64628  1.0000
  S   S387      1.0  0.59116  0.96464  0.61587  1.0000
  S   S388      1.0  0.54822  0.96992  0.61605  1.0000
  C   C1284     1.0  0.66140  0.84515  0.64282  1.0000
  H   H2190     1.0  0.59500  0.92734  0.70014  1.0000
  H   H2191     1.0  0.74190  0.69008  0.70290  1.0000
  H   H2192     1.0  0.67761  0.86996  0.58950  1.0000
  H   H2193     1.0  0.72244  0.73340  0.69539  1.0000
  C   C1285     1.0  0.62338  0.90518  0.66383  1.0000
  C   C1286     1.0  0.61287  0.89245  0.67589  1.0000
  C   C1287     1.0  0.62061  0.87851  0.69170  1.0000
  C   C1288     1.0  0.63894  0.87706  0.69590  1.0000
  C   C1289     1.0  0.64940  0.89002  0.68440  1.0000
  C   C1290     1.0  0.64169  0.90387  0.66836  1.0000
  H   H2194     1.0  0.59879  0.89320  0.67274  1.0000
  H   H2195     1.0  0.61231  0.86865  0.70056  1.0000
  H   H2196     1.0  0.66346  0.88931  0.68775  1.0000
  H   H2197     1.0  0.64999  0.91366  0.65932  1.0000
  C   C1291     1.0  0.68009  0.72753  0.71490  1.0000
  C   C1292     1.0  0.68834  0.72846  0.74107  1.0000
  C   C1293     1.0  0.69155  0.74492  0.75328  1.0000
  C   C1294     1.0  0.68690  0.76065  0.73928  1.0000
  C   C1295     1.0  0.67906  0.75974  0.71274  1.0000
  C   C1296     1.0  0.67552  0.74325  0.70077  1.0000
  H   H2198     1.0  0.69188  0.71651  0.75224  1.0000
  H   H2199     1.0  0.69754  0.74547  0.77386  1.0000
  H   H2200     1.0  0.67527  0.77171  0.70184  1.0000
  H   H2201     1.0  0.66905  0.74267  0.68056  1.0000
  H   H2202     1.0  0.71518  0.78842  0.89096  1.0000
  C   C1297     1.0  0.71683  0.79241  0.82571  1.0000
  C   C1298     1.0  0.57385  0.97970  0.51169  1.0000
  H   H2203     1.0  0.62729  0.85756  0.58034  1.0000
  C   C1299     1.0  0.69598  0.69691  0.62718  1.0000
  H   H2204     1.0  0.73019  0.79750  0.82244  1.0000
  H   H2205     1.0  0.64881  0.82750  0.67161  1.0000
  H   H2206     1.0  0.71288  0.78649  0.80546  1.0000
  C   C1300     1.0  0.68868  0.79208  0.87278  1.0000
  H   H2207     1.0  0.56774  0.96681  0.76667  1.0000
  C   C1301     1.0  0.73043  0.73042  0.65064  1.0000
  H   H2208     1.0  0.67685  0.79918  0.80392  1.0000
  C   C1302     1.0  0.67744  0.86321  0.61020  1.0000
  C   C1303     1.0  0.72746  0.84751  0.84155  1.0000
  C   C1304     1.0  0.72618  0.85518  0.86848  1.0000
  C   C1305     1.0  0.72455  0.70096  0.67058  1.0000
  H   H2209     1.0  0.71608  0.86516  0.87242  1.0000
  C   C1306     1.0  0.74278  0.69902  0.68460  1.0000
  C   C1307     1.0  0.69686  0.87587  0.49306  1.0000
  C   C1308     1.0  0.72464  0.85518  0.63197  1.0000
  C   C1309     1.0  0.72615  0.86101  0.60397  1.0000
  H   H2210     1.0  0.71720  0.86289  0.64713  1.0000
  H   H2211     1.0  0.68247  0.87538  0.49658  1.0000
  C   C1310     1.0  0.56903  0.97712  0.48339  1.0000
  H   H2212     1.0  0.62284  0.84910  0.61486  1.0000
  H   H2213     1.0  0.68983  0.69084  0.64580  1.0000
  C   C1311     1.0  0.65910  0.78590  0.83113  1.0000
  H   H2214     1.0  0.68565  0.69976  0.61119  1.0000
  H   H2215     1.0  0.67562  0.84786  0.55647  1.0000
  H   H2216     1.0  0.69658  0.71986  0.65256  1.0000
  C   C1312     1.0  0.73368  0.83988  0.64071  1.0000
  H   H2217     1.0  0.61753  0.96408  0.66869  1.0000
  H   H2218     1.0  0.73880  0.69849  0.82384  1.0000
  H   H2219     1.0  0.61722  0.87132  0.60638  1.0000
  C   C1313     1.0  0.74071  0.83469  0.83690  1.0000
  H   H2220     1.0  0.71939  0.70761  0.58375  1.0000
  C   C1314     1.0  0.66153  0.84621  0.56158  1.0000
  C   C1315     1.0  0.57363  0.99508  0.71222  1.0000
  C   C1316     1.0  0.50051  0.93415  0.63113  1.0000
  C   C1317     1.0  0.57503  0.99376  0.77157  1.0000
  H   H2221     1.0  0.67607  0.79241  0.88462  1.0000
  H   H2222     1.0  0.73149  0.87049  0.49016  1.0000
  H   H2223     1.0  0.70744  0.81104  0.89244  1.0000
  H   H2224     1.0  0.67375  0.82641  0.83055  1.0000
  H   H2225     1.0  0.69883  0.79512  0.91532  1.0000
  C   C1318     1.0  0.64528  0.86718  0.61301  1.0000
  C   C1319     1.0  0.68155  0.87759  0.63192  1.0000
  C   C1320     1.0  0.62729  0.86063  0.60309  1.0000
  H   H2226     1.0  0.66297  0.85498  0.65976  1.0000
  H   H2227     1.0  0.64307  0.87335  0.63390  1.0000
  H   H2228     1.0  0.64835  0.87829  0.59880  1.0000
  H   H2229     1.0  0.69312  0.88488  0.62468  1.0000
  H   H2230     1.0  0.67056  0.88735  0.63421  1.0000
  H   H2231     1.0  0.68517  0.87196  0.65270  1.0000
  H   H2232     1.0  0.63406  0.84332  0.65683  1.0000
  H   H2233     1.0  0.73633  0.85587  0.91109  1.0000
  C   C1321     1.0  0.70486  0.71414  0.63542  1.0000
  N   N93       1.0  0.62443  0.94428  0.73501  1.0000
  C   C1322     1.0  0.64185  0.94014  0.74912  1.0000
  C   C1323     1.0  0.61535  0.95869  0.75183  1.0000
  C   C1324     1.0  0.62815  0.95061  0.70554  1.0000
  C   C1325     1.0  0.61418  0.92766  0.73443  1.0000
  C   C1326     1.0  0.65414  0.92671  0.73387  1.0000
  C   C1327     1.0  0.61017  0.95390  0.78213  1.0000
  C   C1328     1.0  0.61397  0.96240  0.69114  1.0000
  C   C1329     1.0  0.59520  0.92905  0.72330  1.0000
  H   H2234     1.0  0.64937  0.95235  0.75205  1.0000
  H   H2235     1.0  0.63994  0.93467  0.77051  1.0000
  H   H2236     1.0  0.60310  0.96356  0.74163  1.0000
  H   H2237     1.0  0.62372  0.97043  0.75290  1.0000
  H   H2238     1.0  0.64029  0.95843  0.70513  1.0000
  H   H2239     1.0  0.63084  0.93929  0.69124  1.0000
  H   H2240     1.0  0.62088  0.91766  0.72086  1.0000
  H   H2241     1.0  0.61402  0.92115  0.75536  1.0000
  H   H2242     1.0  0.64868  0.91337  0.73377  1.0000
  H   H2243     1.0  0.65727  0.93071  0.71211  1.0000
  H   H2244     1.0  0.66680  0.92561  0.74544  1.0000
  H   H2245     1.0  0.62173  0.95101  0.79568  1.0000
  H   H2246     1.0  0.60313  0.96538  0.79175  1.0000
  H   H2247     1.0  0.60101  0.94287  0.78268  1.0000
  H   H2248     1.0  0.70248  0.86305  0.50028  1.0000
  H   H2249     1.0  0.60083  0.95672  0.69146  1.0000
  H   H2250     1.0  0.70507  0.68712  0.61746  1.0000
  C   C1330     1.0  0.73666  0.85159  0.58457  1.0000
  H   H2251     1.0  0.58810  0.94139  0.72907  1.0000
  S   S389      1.0  0.73464  0.83357  0.67644  1.0000
  H   H2252     1.0  0.74554  0.68787  0.87114  1.0000
  H   H2253     1.0  0.74482  0.72990  0.65487  1.0000
  C   C1331     1.0  0.73524  0.70393  0.62231  1.0000
  C   C1332     1.0  0.58433  0.99396  0.51811  1.0000
  S   S390      1.0  0.71158  0.67792  0.73555  1.0000
  H   H2254     1.0  0.56638  0.96806  0.71458  1.0000
  H   H2255     1.0  0.72821  0.75316  0.67825  1.0000
  C   C1333     1.0  0.67779  0.79185  0.82412  1.0000
  H   H2256     1.0  0.73378  0.68949  0.62159  1.0000
  H   H2257     1.0  0.66979  0.82941  0.59574  1.0000
  H   H2258     1.0  0.64930  0.79695  0.82986  1.0000
  H   H2259     1.0  0.65839  0.77935  0.85185  1.0000
  C   C1334     1.0  0.70420  0.80777  0.83400  1.0000
  N   N94       1.0  0.66041  0.85387  0.61439  1.0000
  H   H2260     1.0  0.66211  0.81578  0.85779  1.0000
  C   C1335     1.0  0.57392  0.99121  0.96159  1.0000
  C   C1336     1.0  0.64548  0.83451  0.65175  1.0000
  H   H2261     1.0  0.65654  0.83614  0.54693  1.0000
  H   H2262     1.0  0.61323  0.97574  0.70057  1.0000
  H   H2263     1.0  0.70433  0.66545  0.87343  1.0000
  H   H2264     1.0  0.71150  0.81613  0.84855  1.0000
  H   H2265     1.0  0.68879  0.85360  0.60999  1.0000
  H   H2266     1.0  0.67327  0.83623  0.64412  1.0000
  H   H2267     1.0  0.72883  0.73896  0.63182  1.0000
  C   C1337     1.0  0.74539  0.83612  0.59323  1.0000
  H   H2268     1.0  0.72041  0.68741  0.66556  1.0000
  H   H2269     1.0  0.70235  0.88632  0.50648  1.0000
  H   H2270     1.0  0.64191  0.82436  0.63633  1.0000
  C   C1338     1.0  0.73763  0.84988  0.89056  1.0000
  C   C1339     1.0  0.56992  0.97954  0.72636  1.0000
  H   H2271     1.0  0.67309  0.84410  0.87226  1.0000
  C   C1340     1.0  0.67550  0.81908  0.85070  1.0000
  H   H2272     1.0  0.64685  0.83287  0.59321  1.0000
  C   C1341     1.0  0.68193  0.83224  0.87266  1.0000
  C   C1342     1.0  0.70341  0.79725  0.89347  1.0000
  C   C1343     1.0  0.57063  0.97889  0.75590  1.0000
  C   C1344     1.0  0.65942  0.83983  0.59214  1.0000
  H   H2273     1.0  0.58743  0.91849  0.73286  1.0000
  H   H2274     1.0  0.68556  0.77957  0.81951  1.0000
  H   H2275     1.0  0.50936  0.95050  0.59753  1.0000
  H   H2276     1.0  0.71494  0.70572  0.68671  1.0000
  H   H2277     1.0  0.70217  0.81603  0.81488  1.0000
  H   H2278     1.0  0.65514  0.77619  0.81504  1.0000
  N   N95       1.0  0.68678  0.80271  0.84612  1.0000
  H   H2279     1.0  0.69146  0.77802  0.86746  1.0000
  C   C1345     1.0  0.73246  0.71094  0.59219  1.0000
  H   H2280     1.0  0.51954  0.99458  0.75977  1.0000
  H   H2281     1.0  0.74205  0.82874  0.81635  1.0000
  H   H2282     1.0  0.68130  0.82680  0.89422  1.0000
  H   H2283     1.0  0.50992  0.93123  0.97040  1.0000
  H   H2284     1.0  0.70758  0.74402  0.67046  1.0000
  N   N96       1.0  0.72374  0.71234  0.64472  1.0000
  H   H2285     1.0  0.70310  0.72381  0.61805  1.0000
  H   H2286     1.0  0.71783  0.78208  0.84200  1.0000
  H   H2287     1.0  0.53200  0.98652  0.49976  1.0000
  H   H2288     1.0  0.56696  0.96527  0.97526  1.0000
  H   H2289     1.0  0.74259  0.71341  0.91617  1.0000
  H   H2290     1.0  0.69523  0.83684  0.86805  1.0000
  C   C1346     1.0  0.72151  0.74054  0.67515  1.0000
  C   C1347     1.0  0.74398  0.83036  0.62117  1.0000
  H   H2291     1.0  0.74238  0.70449  0.57814  1.0000
  H   H2292     1.0  0.53583  0.99054  0.80047  1.0000
  H   H2293     1.0  0.58821  0.99618  0.53966  1.0000
  H   H2294     1.0  0.73424  0.72529  0.59082  1.0000
  H   H2295     1.0  0.52106  0.99409  0.71004  1.0000
  S   S391      1.0  0.57587  0.99232  0.80861  1.0000
  S   S392      1.0  0.57284  0.99658  0.67515  1.0000
  H   H2296     1.0  0.74395  0.71109  0.86951  1.0000
  H   H2297     1.0  0.57068  0.98886  0.93982  1.0000
  H   H2298     1.0  0.74781  0.89682  0.48533  1.0000
  H   H2299     1.0  0.74745  0.71169  0.69271  1.0000
  C   C1348     1.0  0.57180  0.97783  0.98184  1.0000
  H   H2300     1.0  0.51399  0.99781  0.81126  1.0000
  Fe  Fe193     1.0  0.89533  0.01967  0.39201  1.0000
  S   S393      1.0  0.89761  0.04667  0.41017  1.0000
  H   H2301     1.0  0.76932  0.27702  0.46723  1.0000
  Fe  Fe194     1.0  0.89274  0.03254  0.33097  1.0000
  S   S394      1.0  0.89527  0.06068  0.34548  1.0000
  S   S395      1.0  0.88773  0.02904  0.28337  1.0000
  Fe  Fe195     1.0  0.91664  0.05024  0.37441  1.0000
  S   S396      1.0  0.94157  0.06527  0.38301  1.0000
  Fe  Fe196     1.0  0.87606  0.05490  0.38013  1.0000
  S   S397      1.0  0.85059  0.07162  0.38791  1.0000
  S   S398      1.0  0.91549  0.02279  0.35773  1.0000
  S   S399      1.0  0.87241  0.02722  0.36413  1.0000
  C   C1349     1.0  0.77037  0.20720  0.03750  1.0000
  H   H2302     1.0  0.88426  0.02416  0.00985  1.0000
  H   H2303     1.0  0.80506  0.07217  0.99036  1.0000
  H   H2304     1.0  0.92075  0.03279  0.46055  1.0000
  C   C1350     1.0  0.74903  0.14701  0.38614  1.0000
  H   H2305     1.0  0.81813  0.21492  0.05449  1.0000
  Fe  Fe197     1.0  0.77151  0.15573  0.02531  1.0000
  S   S400      1.0  0.76814  0.15869  0.07348  1.0000
  C   C1351     1.0  0.83493  0.01627  0.99561  1.0000
  C   C1352     1.0  0.88710  0.01546  0.22937  1.0000
  S   S401      1.0  0.79623  0.16728  0.00761  1.0000
  S   S402      1.0  0.77799  0.16447  0.44713  1.0000
  C   C1353     1.0  0.93966  0.01231  0.42974  1.0000
  H   H2306     1.0  0.92800  0.01908  0.42025  1.0000
  H   H2307     1.0  0.99746  0.09194  0.40189  1.0000
  H   H2308     1.0  0.99147  0.06636  0.32973  1.0000
  C   C1354     1.0  0.80990  0.20315  0.05352  1.0000
  H   H2309     1.0  0.77017  0.19282  0.04176  1.0000
  H   H2310     1.0  0.75169  0.19497  0.08241  1.0000
  H   H2311     1.0  0.84081  0.10877  0.34482  1.0000
  C   C1355     1.0  0.97294  0.05628  0.30111  1.0000
  H   H2312     1.0  0.77277  0.22659  0.10354  1.0000
  Fe  Fe198     1.0  0.79223  0.31299  0.47312  1.0000
  H   H2313     1.0  0.76755  0.16060  0.13395  1.0000
  C   C1356     1.0  0.79529  0.26583  0.47365  1.0000
  H   H2314     1.0  0.94544  0.00382  0.41296  1.0000
  H   H2315     1.0  0.76246  0.14665  0.34624  1.0000
  H   H2316     1.0  0.76092  0.14474  0.39823  1.0000
  S   S403      1.0  0.80621  0.28610  0.47301  1.0000
  C   C1357     1.0  0.77698  0.20583  0.39772  1.0000
  C   C1358     1.0  0.77706  0.26506  0.47053  1.0000
  H   H2317     1.0  0.84880  0.03593  0.28930  1.0000
  H   H2318     1.0  0.78942  0.19168  0.07740  1.0000
  C   C1359     1.0  0.89135  0.01201  0.25774  1.0000
  C   C1360     1.0  0.79373  0.20525  0.07293  1.0000
  H   H2319     1.0  0.84935  0.01708  0.99397  1.0000
  C   C1361     1.0  0.88635  0.01166  0.99939  1.0000
  Fe  Fe199     1.0  0.75424  0.15157  0.46436  1.0000
  C   C1362     1.0  0.84231  0.08826  0.41170  1.0000
  C   C1363     1.0  0.85274  0.09594  0.43234  1.0000
  C   C1364     1.0  0.84558  0.10926  0.45012  1.0000
  C   C1365     1.0  0.82790  0.11519  0.44771  1.0000
  C   C1366     1.0  0.81744  0.10743  0.42721  1.0000
  C   C1367     1.0  0.82459  0.09412  0.40941  1.0000
  H   H2320     1.0  0.86636  0.09171  0.43448  1.0000
  C   C1368     1.0  0.80513  0.25009  0.47767  1.0000
  H   H2321     1.0  0.80384  0.11171  0.42498  1.0000
  H   H2322     1.0  0.81627  0.08829  0.39378  1.0000
  C   C1369     1.0  0.97319  0.07946  0.39285  1.0000
  C   C1370     1.0  0.96493  0.06412  0.38470  1.0000
  C   C1371     1.0  0.97539  0.04893  0.37921  1.0000
  H   H2323     1.0  0.96535  0.09124  0.39720  1.0000
  H   H2324     1.0  0.96919  0.03697  0.37291  1.0000
  C   C1372     1.0  0.99397  0.04930  0.38222  1.0000
  S   S404      1.0  0.76728  0.21304  0.47678  1.0000
  H   H2325     1.0  0.75024  0.21375  0.00625  1.0000
  H   H2326     1.0  0.99262  0.03598  0.25133  1.0000
  H   H2327     1.0  0.87688  0.09373  0.27027  1.0000
  H   H2328     1.0  0.75784  0.19564  0.42504  1.0000
  H   H2329     1.0  0.75535  0.28343  0.17143  1.0000
  H   H2330     1.0  0.80625  0.20064  0.03140  1.0000
  S   S405      1.0  0.75443  0.16958  0.99342  1.0000
  N   N97       1.0  0.94891  0.03694  0.46444  1.0000
  C   C1373     1.0  0.75884  0.19797  0.40210  1.0000
  H   H2331     1.0  0.76235  0.25169  0.05633  1.0000
  H   H2332     1.0  0.91995  0.01046  0.04965  1.0000
  H   H2333     1.0  0.88188  0.02831  0.22359  1.0000
  H   H2334     1.0  0.98697  0.06194  0.45951  1.0000
  C   C1374     1.0  0.79688  0.23375  0.47864  1.0000
  H   H2335     1.0  0.77983  0.20839  0.37531  1.0000
  H   H2336     1.0  0.99181  0.02804  0.29423  1.0000
  C   C1375     1.0  0.89035  0.01122  0.46963  1.0000
  C   C1376     1.0  0.93007  0.04357  0.46292  1.0000
  H   H2337     1.0  0.75913  0.18468  0.39238  1.0000
  C   C1377     1.0  0.93520  0.00085  0.01389  1.0000
  H   H2338     1.0  0.75474  0.24834  0.46881  1.0000
  H   H2339     1.0  0.75635  0.18727  0.34615  1.0000
  H   H2340     1.0  0.75596  0.22044  0.35576  1.0000
  H   H2341     1.0  0.76809  0.19483  0.10988  1.0000
  H   H2342     1.0  0.74928  0.25266  0.41280  1.0000
  C   C1378     1.0  0.83575  0.09832  0.33094  1.0000
  C   C1379     1.0  0.88962  0.00249  0.20829  1.0000
  H   H2343     1.0  0.83137  0.01691  0.01822  1.0000
  H   H2344     1.0  0.79310  0.24003  0.07056  1.0000
  H   H2345     1.0  0.82602  0.10471  0.31659  1.0000
  H   H2346     1.0  0.75767  0.30538  0.15748  1.0000
  C   C1380     1.0  0.74998  0.24208  0.39672  1.0000
  C   C1381     1.0  0.77866  0.23301  0.47543  1.0000
  H   H2347     1.0  0.99204  0.07632  0.29614  1.0000
  C   C1382     1.0  0.75412  0.15901  0.12724  1.0000
  H   H2348     1.0  0.77848  0.21785  0.41049  1.0000
  H   H2349     1.0  0.76710  0.24363  0.02091  1.0000
  C   C1383     1.0  0.99139  0.06335  0.30682  1.0000
  H   H2350     1.0  0.88542  0.02236  0.45762  1.0000
  C   C1384     1.0  0.95330  0.02563  0.43916  1.0000
  C   C1385     1.0  0.78591  0.23391  0.05283  1.0000
  H   H2351     1.0  0.85389  0.11512  0.46576  1.0000
  H   H2352     1.0  0.82382  0.05547  0.01693  1.0000
  H   H2353     1.0  0.92808  0.05178  0.44374  1.0000
  S   S406      1.0  0.77465  0.13109  0.99882  1.0000
  H   H2354     1.0  0.97106  0.05207  0.27914  1.0000
  H   H2355     1.0  0.79571  0.23194  0.03576  1.0000
  H   H2356     1.0  0.75490  0.22862  0.08040  1.0000
  H   H2357     1.0  0.81823  0.19179  0.06072  1.0000
  C   C1386     1.0  0.76884  0.24875  0.47128  1.0000
  H   H2358     1.0  0.78721  0.19625  0.40527  1.0000
  H   H2359     1.0  0.96996  0.04534  0.31558  1.0000
  H   H2360     1.0  0.81194  0.03247  0.98965  1.0000
  S   S407      1.0  0.81970  0.13220  0.47088  1.0000
  H   H2361     1.0  0.95639  0.06140  0.44499  1.0000
  C   C1387     1.0  0.96026  0.05287  0.46317  1.0000
  H   H2362     1.0  0.98570  0.04208  0.47917  1.0000
  H   H2363     1.0  0.96295  0.06687  0.30551  1.0000
  C   C1388     1.0  0.75810  0.20305  0.09859  1.0000
  H   H2364     1.0  0.81925  0.25054  0.48006  1.0000
  N   N98       1.0  0.77859  0.21661  0.06191  1.0000
  C   C1389     1.0  0.98027  0.04919  0.46066  1.0000
  H   H2365     1.0  0.75009  0.28761  0.12037  1.0000
  H   H2366     1.0  0.82897  0.08912  0.34485  1.0000
  N   N99       1.0  0.84729  0.07393  0.29678  1.0000
  C   C1390     1.0  0.85136  0.08973  0.31468  1.0000
  C   C1391     1.0  0.86364  0.06916  0.28023  1.0000
  C   C1392     1.0  0.84353  0.05909  0.31668  1.0000
  C   C1393     1.0  0.83162  0.07840  0.27843  1.0000
  C   C1394     1.0  0.99146  0.07985  0.39559  1.0000
  C   C1395     1.0  0.86990  0.08312  0.25932  1.0000
  C   C1396     1.0  0.83857  0.04144  0.30356  1.0000
  C   C1397     1.0  0.82905  0.06700  0.25183  1.0000
  H   H2367     1.0  0.86192  0.08635  0.33022  1.0000
  H   H2368     1.0  0.85653  0.10053  0.30177  1.0000
  H   H2369     1.0  0.86229  0.05690  0.26809  1.0000
  H   H2370     1.0  0.87482  0.06615  0.29470  1.0000
  H   H2371     1.0  0.85511  0.05637  0.33049  1.0000
  H   H2372     1.0  0.83255  0.06262  0.33109  1.0000
  H   H2373     1.0  0.81931  0.07802  0.29105  1.0000
  H   H2374     1.0  0.83240  0.09219  0.27083  1.0000
  H   H2375     1.0  0.82563  0.04244  0.29290  1.0000
  H   H2376     1.0  0.96617  0.00103  0.03186  1.0000
  H   H2377     1.0  0.95528  0.03404  0.42040  1.0000
  H   H2378     1.0  0.98384  0.04201  0.44113  1.0000
  Fe  Fe200     1.0  0.79303  0.14697  0.47773  1.0000
  H   H2379     1.0  0.85908  0.08888  0.24643  1.0000
  C   C1398     1.0  0.75125  0.21271  0.02947  1.0000
  H   H2380     1.0  0.85621  0.07497  0.99470  1.0000
  H   H2381     1.0  0.87959  0.07684  0.24473  1.0000
  H   H2382     1.0  0.81491  0.06405  0.24971  1.0000
  H   H2383     1.0  0.83632  0.05425  0.25152  1.0000
  H   H2384     1.0  0.83242  0.07446  0.23264  1.0000
  H   H2385     1.0  0.79860  0.21037  0.09337  1.0000
  H   H2386     1.0  0.83723  0.03170  0.32073  1.0000
  C   C1399     1.0  0.76606  0.21970  0.08606  1.0000
  H   H2387     1.0  0.77860  0.20843  0.01839  1.0000
  H   H2388     1.0  0.76400  0.23980  0.39156  1.0000
  C   C1400     1.0  0.77279  0.24785  0.04118  1.0000
  H   H2389     1.0  0.78004  0.25995  0.03641  1.0000
  H   H2390     1.0  0.96590  0.01811  0.44242  1.0000
  H   H2391     1.0  0.93545  0.00353  0.44670  1.0000
  H   H2392     1.0  0.80461  0.22177  0.48180  1.0000
  H   H2393     1.0  0.94032  0.01431  0.01137  1.0000
  H   H2394     1.0  0.83182  0.00309  0.98727  1.0000
  S   S408      1.0  0.76676  0.31248  0.99097  1.0000
  H   H2395     1.0  0.84561  0.07790  0.02787  1.0000
  H   H2396     1.0  0.88632  0.00545  0.18668  1.0000
  C   C1401     1.0  0.75006  0.29708  0.17194  1.0000
  C   C1402     1.0  0.74987  0.14802  0.35666  1.0000
  H   H2397     1.0  0.75235  0.30219  0.19347  1.0000
  H   H2398     1.0  0.76509  0.32941  0.33506  1.0000
  H   H2399     1.0  0.98917  0.05879  0.24158  1.0000
  C   C1403     1.0  0.75044  0.15740  0.09830  1.0000
  S   S409      1.0  0.80476  0.32985  0.00568  1.0000
  H   H2400     1.0  0.76517  0.33018  0.38722  1.0000
  C   C1404     1.0  0.83626  0.05541  0.00466  1.0000
  H   H2401     1.0  0.84561  0.04692  0.01700  1.0000
  H   H2402     1.0  0.82111  0.24620  0.99008  1.0000
  H   H2403     1.0  0.83395  0.08403  0.99679  1.0000
  H   H2404     1.0  0.92308  0.00051  0.00092  1.0000
  H   H2405     1.0  0.93993  0.99948  0.06002  1.0000
  C   C1405     1.0  0.92901  0.99918  0.04464  1.0000
  C   C1406     1.0  0.84342  0.07413  0.00562  1.0000
  H   H2406     1.0  0.95841  0.06123  0.48215  1.0000
  Fe  Fe201     1.0  0.89700  0.01766  0.89211  1.0000
  S   S410      1.0  0.90151  0.04532  0.90615  1.0000
  H   H2407     1.0  0.78209  0.21443  0.86253  1.0000
  Fe  Fe202     1.0  0.89266  0.02724  0.82968  1.0000
  S   S411      1.0  0.89662  0.05581  0.83932  1.0000
  S   S412      1.0  0.88348  0.01864  0.78574  1.0000
  Fe  Fe203     1.0  0.91875  0.04631  0.86758  1.0000
  S   S413      1.0  0.94400  0.06166  0.86800  1.0000
  Fe  Fe204     1.0  0.87916  0.05292  0.87720  1.0000
  S   S414      1.0  0.85530  0.07148  0.88591  1.0000
  S   S415      1.0  0.91591  0.01795  0.85558  1.0000
  S   S416      1.0  0.87353  0.02495  0.86558  1.0000
  H   H2408     1.0  0.89270  0.10991  0.92582  1.0000
  H   H2409     1.0  0.96662  0.02149  0.49077  1.0000
  C   C1407     1.0  0.85193  0.03372  0.93543  1.0000
  Fe  Fe205     1.0  0.75938  0.14619  0.96546  1.0000
  H   H2410     1.0  0.77811  0.16331  0.87922  1.0000
  H   H2411     1.0  0.77269  0.25321  0.58588  1.0000
  Fe  Fe206     1.0  0.76638  0.15418  0.52630  1.0000
  S   S417      1.0  0.76478  0.15058  0.57460  1.0000
  C   C1408     1.0  0.99640  0.03613  0.79683  1.0000
  N   N100      1.0  0.76891  0.27838  0.56537  1.0000
  S   S418      1.0  0.79099  0.16756  0.51233  1.0000
  S   S419      1.0  0.78295  0.15716  0.94438  1.0000
  H   H2412     1.0  0.78725  0.27121  0.53199  1.0000
  H   H2413     1.0  0.84234  0.03811  0.91917  1.0000
  H   H2414     1.0  0.88940  0.09085  0.88869  1.0000
  C   C1409     1.0  0.79857  0.26124  0.97510  1.0000
  C   C1410     1.0  0.89143  0.00518  0.75731  1.0000
  H   H2415     1.0  0.84995  0.01975  0.94081  1.0000
  H   H2416     1.0  0.90658  0.08868  0.86378  1.0000
  C   C1411     1.0  0.75346  0.13325  0.88984  1.0000
  H   H2417     1.0  0.79617  0.26894  0.56632  1.0000
  H   H2418     1.0  0.82917  0.07231  0.95327  1.0000
  H   H2419     1.0  0.91964  0.15350  0.85765  1.0000
  H   H2420     1.0  0.76063  0.28452  0.52300  1.0000
  C   C1412     1.0  0.75266  0.14950  0.62936  1.0000
  N   N101      1.0  0.83366  0.04788  0.97573  1.0000
  H   H2421     1.0  0.76674  0.13047  0.84999  1.0000
  H   H2422     1.0  0.76536  0.13157  0.90210  1.0000
  H   H2423     1.0  0.87946  0.14165  0.89075  1.0000
  H   H2424     1.0  0.76783  0.32373  0.88649  1.0000
  S   S420      1.0  0.82509  0.12862  0.97421  1.0000
  H   H2425     1.0  0.87213  0.13491  0.92447  1.0000
  C   C1413     1.0  0.75577  0.32783  0.84575  1.0000
  H   H2426     1.0  0.91757  0.09542  0.93814  1.0000
  H   H2427     1.0  0.78824  0.16687  0.84618  1.0000
  H   H2428     1.0  0.96030  0.00548  0.97538  1.0000
  H   H2429     1.0  0.77428  0.27219  0.95879  1.0000
  C   C1414     1.0  0.78006  0.17336  0.86273  1.0000
  C   C1415     1.0  0.84761  0.08787  0.91017  1.0000
  C   C1416     1.0  0.83068  0.09550  0.90637  1.0000
  C   C1417     1.0  0.82359  0.10797  0.92559  1.0000
  C   C1418     1.0  0.83341  0.11315  0.94887  1.0000
  C   C1419     1.0  0.85045  0.10568  0.95247  1.0000
  C   C1420     1.0  0.85748  0.09307  0.93340  1.0000
  H   H2430     1.0  0.82287  0.09161  0.88854  1.0000
  S   S421      1.0  0.76434  0.31641  0.48759  1.0000
  C   C1421     1.0  0.75389  0.20952  0.86663  1.0000
  H   H2431     1.0  0.87043  0.08726  0.93684  1.0000
  C   C1422     1.0  0.96698  0.03285  0.87350  1.0000
  C   C1423     1.0  0.96509  0.05105  0.87030  1.0000
  C   C1424     1.0  0.98029  0.06110  0.86912  1.0000
  H   H2432     1.0  0.95544  0.02494  0.87444  1.0000
  H   H2433     1.0  0.97898  0.07519  0.86660  1.0000
  H   H2434     1.0  0.93707  0.08670  0.92187  1.0000
  H   H2435     1.0  0.75583  0.29647  0.63047  1.0000
  H   H2436     1.0  0.77658  0.24430  0.53666  1.0000
  H   H2437     1.0  0.75613  0.16724  0.84268  1.0000
  S   S422      1.0  0.79291  0.32676  0.93979  1.0000
  C   C1425     1.0  0.78725  0.27741  0.55316  1.0000
  C   C1426     1.0  0.77426  0.24376  0.95913  1.0000
  H   H2438     1.0  0.85753  0.00023  0.82377  1.0000
  C   C1427     1.0  0.88092  0.00361  0.73309  1.0000
  H   H2439     1.0  0.78798  0.30461  0.53740  1.0000
  C   C1428     1.0  0.78364  0.22809  0.96567  1.0000
  H   H2440     1.0  0.86870  0.01118  0.73159  1.0000
  C   C1429     1.0  0.98384  0.02484  0.87575  1.0000
  H   H2441     1.0  0.93333  0.14024  0.87979  1.0000
  H   H2442     1.0  0.75888  0.30254  0.54660  1.0000
  H   H2443     1.0  0.78769  0.18420  0.87140  1.0000
  C   C1430     1.0  0.88897  0.01130  0.49912  1.0000
  Fe  Fe207     1.0  0.79827  0.14342  0.97899  1.0000
  C   C1431     1.0  0.80047  0.22906  0.97722  1.0000
  H   H2444     1.0  0.90373  0.12993  0.92330  1.0000
  H   H2445     1.0  0.87658  0.09062  0.84308  1.0000
  H   H2446     1.0  0.89687  0.13292  0.85541  1.0000
  C   C1432     1.0  0.75697  0.28813  0.54497  1.0000
  H   H2447     1.0  0.87429  0.11310  0.85276  1.0000
  C   C1433     1.0  0.91941  0.14366  0.87485  1.0000
  H   H2448     1.0  0.88311  0.02261  0.50967  1.0000
  H   H2449     1.0  0.91296  0.15022  0.89307  1.0000
  C   C1434     1.0  0.79633  0.29506  0.54923  1.0000
  C   C1435     1.0  0.76315  0.24787  0.54421  1.0000
  H   H2450     1.0  0.76680  0.10605  0.57317  1.0000
  C   C1436     1.0  0.76359  0.25973  0.57049  1.0000
  H   H2451     1.0  0.85628  0.05853  0.95479  1.0000
  H   H2452     1.0  0.75688  0.23533  0.54958  1.0000
  H   H2453     1.0  0.98512  0.01076  0.87836  1.0000
  H   H2454     1.0  0.81994  0.05406  0.93683  1.0000
  H   H2455     1.0  0.81051  0.11356  0.92239  1.0000
  C   C1437     1.0  0.94113  0.01199  0.49935  1.0000
  H   H2456     1.0  0.75543  0.25396  0.52686  1.0000
  H   H2457     1.0  0.77712  0.11760  0.54556  1.0000
  C   C1438     1.0  0.88952  0.01115  0.97022  1.0000
  H   H2458     1.0  0.91686  0.12179  0.84652  1.0000
  S   S423      1.0  0.77392  0.20778  0.95785  1.0000
  C   C1439     1.0  0.82233  0.05999  0.95780  1.0000
  H   H2459     1.0  0.91636  0.08003  0.90918  1.0000
  Fe  Fe208     1.0  0.77903  0.17989  0.97435  1.0000
  H   H2460     1.0  0.76126  0.24315  0.95009  1.0000
  H   H2461     1.0  0.98351  0.03756  0.80768  1.0000
  H   H2462     1.0  0.81289  0.11957  0.62721  1.0000
  H   H2463     1.0  0.95334  0.03644  0.50962  1.0000
  H   H2464     1.0  0.89143  0.10589  0.82884  1.0000
  H   H2465     1.0  0.92742  0.01373  0.49218  1.0000
  C   C1440     1.0  0.75289  0.28961  0.61047  1.0000
  C   C1441     1.0  0.75420  0.13258  0.86033  1.0000
  H   H2466     1.0  0.80855  0.29282  0.53681  1.0000
  H   H2467     1.0  0.80032  0.30086  0.56955  1.0000
  N   N102      1.0  0.81200  0.11296  0.56531  1.0000
  C   C1442     1.0  0.79485  0.10893  0.57963  1.0000
  C   C1443     1.0  0.82609  0.11213  0.58761  1.0000
  C   C1444     1.0  0.81559  0.09881  0.54366  1.0000
  C   C1445     1.0  0.81014  0.13079  0.55150  1.0000
  C   C1446     1.0  0.77892  0.10646  0.56021  1.0000
  C   C1447     1.0  0.82305  0.12460  0.61284  1.0000
  C   C1448     1.0  0.83346  0.09895  0.52859  1.0000
  C   C1449     1.0  0.82723  0.14087  0.54645  1.0000
  H   H2468     1.0  0.79630  0.09680  0.59264  1.0000
  H   H2469     1.0  0.79081  0.11965  0.59442  1.0000
  H   H2470     1.0  0.83923  0.11491  0.57911  1.0000
  H   H2471     1.0  0.82753  0.09853  0.59613  1.0000
  H   H2472     1.0  0.81448  0.08557  0.55336  1.0000
  H   H2473     1.0  0.80563  0.09957  0.52651  1.0000
  H   H2474     1.0  0.80324  0.12977  0.53096  1.0000
  H   H2475     1.0  0.80164  0.13973  0.56454  1.0000
  H   H2476     1.0  0.92430  0.04697  0.50814  1.0000
  H   H2477     1.0  0.77993  0.09392  0.54838  1.0000
  H   H2478     1.0  0.86851  0.12095  0.89536  1.0000
  H   H2479     1.0  0.83539  0.12534  0.62520  1.0000
  H   H2480     1.0  0.81918  0.13812  0.60622  1.0000
  H   H2481     1.0  0.94658  0.99927  0.49132  1.0000
  H   H2482     1.0  0.83435  0.08757  0.51398  1.0000
  H   H2483     1.0  0.77384  0.30182  0.58971  1.0000
  C   C1450     1.0  0.78160  0.26025  0.96406  1.0000
  H   H2484     1.0  0.82583  0.14845  0.52661  1.0000
  H   H2485     1.0  0.83934  0.13270  0.54412  1.0000
  H   H2486     1.0  0.82903  0.15091  0.56304  1.0000
  N   N103      1.0  0.74990  0.19028  0.86800  1.0000
  H   H2487     1.0  0.76628  0.15114  0.63499  1.0000
  C   C1451     1.0  0.77164  0.21517  0.87878  1.0000
  H   H2488     1.0  0.88995  0.02320  0.95834  1.0000
  S   S424      1.0  0.80877  0.28166  0.98021  1.0000
  C   C1452     1.0  0.85135  0.04563  0.96164  1.0000
  Fe  Fe209     1.0  0.79480  0.30855  0.97740  1.0000
  S   S425      1.0  0.76927  0.13292  0.49310  1.0000
  N   N104      1.0  0.90603  0.11357  0.88616  1.0000
  C   C1453     1.0  0.92371  0.10682  0.89669  1.0000
  C   C1454     1.0  0.90933  0.12759  0.86456  1.0000
  C   C1455     1.0  0.89681  0.09833  0.87273  1.0000
  C   C1456     1.0  0.89575  0.12065  0.91098  1.0000
  C   C1457     1.0  0.92334  0.09139  0.91767  1.0000
  H   H2489     1.0  0.83463  0.11072  0.51523  1.0000
  C   C1458     1.0  0.88408  0.10251  0.84812  1.0000
  C   C1459     1.0  0.87804  0.13005  0.90447  1.0000
  H   H2490     1.0  0.93221  0.10246  0.87872  1.0000
  H   H2491     1.0  0.93092  0.11731  0.90764  1.0000
  H   H2492     1.0  0.94015  0.01109  0.52260  1.0000
  H   H2493     1.0  0.84477  0.09751  0.54314  1.0000
  H   H2494     1.0  0.86156  0.04053  0.97649  1.0000
  C   C1460     1.0  0.99721  0.05307  0.87128  1.0000
  C   C1461     1.0  0.95304  0.02726  0.49139  1.0000
  H   H2495     1.0  0.76537  0.18673  0.82997  1.0000
  H   H2496     1.0  0.86516  0.03430  0.92584  1.0000
  H   H2497     1.0  0.77605  0.20759  0.89733  1.0000
  H   H2498     1.0  0.76347  0.18396  0.90734  1.0000
  H   H2499     1.0  0.78019  0.28181  0.60670  1.0000
  H   H2500     1.0  0.85818  0.10957  0.97039  1.0000
  H   H2501     1.0  0.75050  0.25906  0.58037  1.0000
  C   C1462     1.0  0.76988  0.28804  0.59301  1.0000
  C   C1463     1.0  0.75607  0.32795  0.87533  1.0000
  H   H2502     1.0  0.77031  0.22892  0.88650  1.0000
  S   S426      1.0  0.74934  0.17138  0.49866  1.0000
  H   H2503     1.0  0.75391  0.21408  0.84447  1.0000
  C   C1464     1.0  0.76238  0.17954  0.84967  1.0000
  H   H2504     1.0  0.74936  0.28414  0.86538  1.0000
  H   H2505     1.0  0.76738  0.32355  0.83424  1.0000
  H   H2506     1.0  0.93003  0.00424  0.95617  1.0000
  H   H2507     1.0  0.99260  0.00831  0.79264  1.0000
  C   C1465     1.0  0.75026  0.18342  0.89772  1.0000
  H   H2508     1.0  0.82100  0.02514  0.95786  1.0000
  H   H2509     1.0  0.99414  0.04001  0.77470  1.0000
  C   C1466     1.0  0.92341  0.05450  0.48824  1.0000
  H   H2510     1.0  0.90927  0.05797  0.48492  1.0000
  Fe  Fe210     1.0  0.77392  0.18372  0.48285  1.0000
  H   H2511     1.0  0.93027  0.06705  0.49032  1.0000
  C   C1467     1.0  0.80415  0.06539  0.96984  1.0000
  H   H2512     1.0  0.79767  0.07493  0.95518  1.0000
  H   H2513     1.0  0.79538  0.05409  0.97149  1.0000
  C   C1468     1.0  0.80792  0.24556  0.98173  1.0000
  H   H2514     1.0  0.80793  0.21712  0.98195  1.0000
  C   C1469     1.0  0.82474  0.03061  0.97866  1.0000
  H   H2515     1.0  0.77211  0.33623  0.12617  1.0000
  H   H2516     1.0  0.96156  0.51646  0.18174  1.0000
  S   S427      1.0  0.81240  0.61725  0.01225  1.0000
  H   H2517     1.0  0.78838  0.61945  0.21731  1.0000
  H   H2518     1.0  0.96043  0.37160  0.44382  1.0000
  H   H2519     1.0  0.92377  0.63156  0.04199  1.0000
  C   C1470     1.0  0.99076  0.55229  0.06929  1.0000
  H   H2520     1.0  0.75636  0.61541  0.15723  1.0000
  H   H2521     1.0  0.92839  0.56419  0.20606  1.0000
  Fe  Fe211     1.0  0.89133  0.52927  0.14337  1.0000
  S   S428      1.0  0.90350  0.55538  0.13560  1.0000
  S   S429      1.0  0.88252  0.52517  0.18927  1.0000
  Fe  Fe212     1.0  0.89779  0.51887  0.08169  1.0000
  S   S430      1.0  0.91100  0.54399  0.07071  1.0000
  S   S431      1.0  0.89737  0.49522  0.05251  1.0000
  Fe  Fe213     1.0  0.92484  0.54056  0.11228  1.0000
  S   S432      1.0  0.95269  0.54499  0.12831  1.0000
  Fe  Fe214     1.0  0.88847  0.55702  0.09475  1.0000
  S   S433      1.0  0.87784  0.58483  0.08312  1.0000
  S   S434      1.0  0.91328  0.51448  0.12172  1.0000
  S   S435      1.0  0.87455  0.53187  0.10400  1.0000
  Fe  Fe215     1.0  0.89781  0.46383  0.33189  1.0000
  S   S436      1.0  0.90940  0.43814  0.34862  1.0000
  S   S437      1.0  0.90079  0.46712  0.28387  1.0000
  Fe  Fe216     1.0  0.88896  0.47604  0.39179  1.0000
  S   S438      1.0  0.89996  0.45154  0.41186  1.0000
  S   S439      1.0  0.87979  0.49918  0.41868  1.0000
  Fe  Fe217     1.0  0.92243  0.45431  0.38164  1.0000
  S   S440      1.0  0.94950  0.45188  0.40219  1.0000
  Fe  Fe218     1.0  0.88587  0.43725  0.37761  1.0000
  S   S441      1.0  0.87386  0.41003  0.38410  1.0000
  S   S442      1.0  0.91232  0.47988  0.36371  1.0000
  S   S443      1.0  0.87335  0.46184  0.35870  1.0000
  H   H2522     1.0  0.90609  0.63845  0.06466  1.0000
  C   C1471     1.0  0.75206  0.66145  0.38408  1.0000
  H   H2523     1.0  0.75014  0.61857  0.27046  1.0000
  H   H2524     1.0  0.90572  0.60775  0.08527  1.0000
  H   H2525     1.0  0.80552  0.39394  0.01011  1.0000
  H   H2526     1.0  0.82549  0.51788  0.46273  1.0000
  C   C1472     1.0  0.76838  0.61861  0.14528  1.0000
  Fe  Fe219     1.0  0.75972  0.65806  0.01302  1.0000
  H   H2527     1.0  0.92578  0.59981  0.12992  1.0000
  H   H2528     1.0  0.81832  0.35753  0.36551  1.0000
  H   H2529     1.0  0.83269  0.53853  0.44786  1.0000
  C   C1473     1.0  0.85691  0.40168  0.40603  1.0000
  C   C1474     1.0  0.85336  0.38362  0.40498  1.0000
  C   C1475     1.0  0.84020  0.37633  0.42200  1.0000
  C   C1476     1.0  0.83024  0.38702  0.44030  1.0000
  C   C1477     1.0  0.83372  0.40510  0.44120  1.0000
  C   C1478     1.0  0.84694  0.41237  0.42431  1.0000
  H   H2530     1.0  0.86089  0.37516  0.39091  1.0000
  H   H2531     1.0  0.83785  0.36241  0.42100  1.0000
  H   H2532     1.0  0.75435  0.63443  0.39690  1.0000
  H   H2533     1.0  0.84938  0.42627  0.42537  1.0000
  C   C1479     1.0  0.97148  0.44404  0.35696  1.0000
  C   C1480     1.0  0.97010  0.44940  0.38499  1.0000
  C   C1481     1.0  0.98556  0.45188  0.40052  1.0000
  H   H2534     1.0  0.95971  0.44203  0.34478  1.0000
  H   H2535     1.0  0.98465  0.45600  0.42223  1.0000
  C   C1482     1.0  0.89419  0.49569  0.01556  1.0000
  C   C1483     1.0  0.77992  0.66218  0.24154  1.0000
  H   H2536     1.0  0.76870  0.37812  0.05510  1.0000
  C   C1484     1.0  0.88089  0.49735  0.45563  1.0000
  C   C1485     1.0  0.75327  0.33341  0.34625  1.0000
  C   C1486     1.0  0.88837  0.51087  0.00134  1.0000
  H   H2537     1.0  0.90164  0.46834  0.01098  1.0000
  H   H2538     1.0  0.81784  0.41137  0.37381  1.0000
  C   C1487     1.0  0.90742  0.37316  0.37960  1.0000
  H   H2539     1.0  0.88588  0.52289  0.01295  1.0000
  C   C1488     1.0  0.88700  0.50843  0.21491  1.0000
  C   C1489     1.0  0.89518  0.49226  0.20815  1.0000
  C   C1490     1.0  0.89898  0.47975  0.22945  1.0000
  C   C1491     1.0  0.89482  0.48319  0.25784  1.0000
  C   C1492     1.0  0.88655  0.49931  0.26454  1.0000
  C   C1493     1.0  0.88255  0.51173  0.24321  1.0000
  H   H2540     1.0  0.89856  0.48938  0.18654  1.0000
  H   H2541     1.0  0.90529  0.46731  0.22389  1.0000
  H   H2542     1.0  0.88316  0.50218  0.28615  1.0000
  H   H2543     1.0  0.87610  0.52409  0.24875  1.0000
  C   C1494     1.0  0.98861  0.54637  0.12691  1.0000
  C   C1495     1.0  0.97311  0.54682  0.11079  1.0000
  C   C1496     1.0  0.97429  0.54943  0.08179  1.0000
  H   H2544     1.0  0.98786  0.54437  0.14936  1.0000
  H   H2545     1.0  0.96252  0.54955  0.06910  1.0000
  H   H2546     1.0  0.76506  0.63700  0.29659  1.0000
  H   H2547     1.0  0.78768  0.62180  0.27161  1.0000
  H   H2548     1.0  0.96517  0.49147  0.47697  1.0000
  H   H2549     1.0  0.84190  0.63346  0.04223  1.0000
  H   H2550     1.0  0.96811  0.38523  0.41636  1.0000
  H   H2551     1.0  0.80588  0.40960  0.03778  1.0000
  C   C1497     1.0  0.75459  0.38141  0.34407  1.0000
  C   C1498     1.0  0.83089  0.60863  0.03177  1.0000
  C   C1499     1.0  0.83304  0.59029  0.03491  1.0000
  C   C1500     1.0  0.84722  0.58275  0.05045  1.0000
  C   C1501     1.0  0.85956  0.59347  0.06315  1.0000
  C   C1502     1.0  0.85743  0.61183  0.06002  1.0000
  C   C1503     1.0  0.84325  0.61936  0.04445  1.0000
  H   H2552     1.0  0.82367  0.58179  0.02516  1.0000
  H   H2553     1.0  0.84861  0.56863  0.05250  1.0000
  H   H2554     1.0  0.86683  0.62031  0.06968  1.0000
  H   H2555     1.0  0.82767  0.41654  0.00385  1.0000
  N   N105      1.0  0.78235  0.38288  0.37539  1.0000
  H   H2556     1.0  0.76320  0.59561  0.05188  1.0000
  C   C1504     1.0  0.79551  0.39586  0.38563  1.0000
  C   C1505     1.0  0.77255  0.37598  0.40036  1.0000
  Fe  Fe220     1.0  0.77633  0.33462  0.01774  1.0000
  H   H2557     1.0  0.75873  0.60284  0.11145  1.0000
  C   C1506     1.0  0.80984  0.40087  0.36447  1.0000
  C   C1507     1.0  0.76090  0.38952  0.41632  1.0000
  H   H2558     1.0  0.91274  0.36191  0.39202  1.0000
  H   H2559     1.0  0.76439  0.40451  0.36438  1.0000
  H   H2560     1.0  0.80425  0.40604  0.34454  1.0000
  H   H2561     1.0  0.80231  0.39107  0.40488  1.0000
  H   H2562     1.0  0.78877  0.40835  0.39224  1.0000
  H   H2563     1.0  0.76415  0.36500  0.39423  1.0000
  H   H2564     1.0  0.78179  0.37016  0.41615  1.0000
  C   C1508     1.0  0.75841  0.60941  0.05408  1.0000
  H   H2565     1.0  0.93070  0.37972  0.35791  1.0000
  H   H2566     1.0  0.98687  0.46611  0.28494  1.0000
  C   C1509     1.0  0.78021  0.65962  0.30469  1.0000
  S   S444      1.0  0.77265  0.33686  0.06580  1.0000
  H   H2567     1.0  0.81909  0.38969  0.36005  1.0000
  C   C1510     1.0  0.91802  0.40403  0.41516  1.0000
  H   H2568     1.0  0.92374  0.62081  0.09422  1.0000
  C   C1511     1.0  0.79118  0.36757  0.36044  1.0000
  H   H2569     1.0  0.92797  0.47624  0.47809  1.0000
  H   H2570     1.0  0.99731  0.51185  0.09809  1.0000
  H   H2571     1.0  0.79315  0.58602  0.13160  1.0000
  H   H2572     1.0  0.82082  0.55927  0.47256  1.0000
  Fe  Fe221     1.0  0.79808  0.35313  0.46876  1.0000
  H   H2573     1.0  0.93026  0.54319  0.47942  1.0000
  C   C1512     1.0  0.89720  0.48014  0.00017  1.0000
  C   C1513     1.0  0.93325  0.57478  0.02831  1.0000
  H   H2574     1.0  0.82467  0.36443  0.01976  1.0000
  S   S445      1.0  0.79000  0.33262  0.43744  1.0000
  C   C1514     1.0  0.80120  0.59416  0.11754  1.0000
  C   C1515     1.0  0.78046  0.38644  0.05459  1.0000
  N   N106      1.0  0.78020  0.61733  0.09375  1.0000
  C   C1516     1.0  0.77287  0.62153  0.06491  1.0000
  C   C1517     1.0  0.79149  0.63238  0.10231  1.0000
  C   C1518     1.0  0.76485  0.61586  0.11368  1.0000
  C   C1519     1.0  0.79054  0.60018  0.09154  1.0000
  H   H2575     1.0  0.99153  0.55475  0.04696  1.0000
  H   H2576     1.0  0.97518  0.55079  0.20812  1.0000
  S   S446      1.0  0.76854  0.63458  0.98750  1.0000
  C   C1520     1.0  0.83625  0.52731  0.46169  1.0000
  H   H2577     1.0  0.76729  0.63517  0.06415  1.0000
  H   H2578     1.0  0.78336  0.62108  0.04876  1.0000
  H   H2579     1.0  0.79606  0.63124  0.12432  1.0000
  H   H2580     1.0  0.78370  0.64496  0.10167  1.0000
  C   C1521     1.0  0.75336  0.33386  0.37581  1.0000
  H   H2581     1.0  0.75429  0.62577  0.10832  1.0000
  H   H2582     1.0  0.78167  0.58926  0.08672  1.0000
  H   H2583     1.0  0.79962  0.60009  0.07314  1.0000
  C   C1522     1.0  0.80569  0.35745  0.37715  1.0000
  C   C1523     1.0  0.95680  0.38311  0.43048  1.0000
  H   H2584     1.0  0.77376  0.66143  0.32545  1.0000
  H   H2585     1.0  0.78352  0.65942  0.21928  1.0000
  H   H2586     1.0  0.91540  0.49592  0.47474  1.0000
  C   C1524     1.0  0.80816  0.63482  0.08467  1.0000
  H   H2587     1.0  0.80353  0.63731  0.21734  1.0000
  H   H2588     1.0  0.79274  0.65230  0.30877  1.0000
  H   H2589     1.0  0.93648  0.50572  0.43618  1.0000
  H   H2590     1.0  0.91981  0.59932  0.02482  1.0000
  H   H2591     1.0  0.99516  0.49081  0.08246  1.0000
  C   C1525     1.0  0.77003  0.39218  0.35507  1.0000
  N   N107      1.0  0.93136  0.39402  0.39744  1.0000
  C   C1526     1.0  0.92155  0.38665  0.37267  1.0000
  H   H2592     1.0  0.75502  0.65674  0.28458  1.0000
  H   H2593     1.0  0.99472  0.48815  0.28427  1.0000
  Fe  Fe222     1.0  0.76272  0.33747  0.45427  1.0000
  H   H2594     1.0  0.95047  0.61823  0.07283  1.0000
  C   C1527     1.0  0.93206  0.58554  0.09089  1.0000
  H   H2595     1.0  0.96390  0.58206  0.05090  1.0000
  H   H2596     1.0  0.91504  0.39745  0.36027  1.0000
  H   H2597     1.0  0.78135  0.35773  0.35442  1.0000
  H   H2598     1.0  0.90819  0.56580  0.22497  1.0000
  C   C1528     1.0  0.76786  0.64939  0.28531  1.0000
  H   H2599     1.0  0.91112  0.41430  0.40227  1.0000
  H   H2600     1.0  0.91933  0.52509  0.46428  1.0000
  H   H2601     1.0  0.90241  0.62155  0.03977  1.0000
  C   C1529     1.0  0.93554  0.49196  0.44335  1.0000
  H   H2602     1.0  0.94433  0.57994  0.01601  1.0000
  C   C1530     1.0  0.74945  0.64345  0.38099  1.0000
  H   H2603     1.0  0.80805  0.36261  0.39846  1.0000
  H   H2604     1.0  0.75469  0.38283  0.43434  1.0000
  N   N108      1.0  0.77460  0.64559  0.25609  1.0000
  H   H2605     1.0  0.83581  0.41211  0.08088  1.0000
  H   H2606     1.0  0.88276  0.52525  0.46162  1.0000
  H   H2607     1.0  0.98909  0.43576  0.32364  1.0000
  C   C1531     1.0  0.83060  0.40475  0.01696  1.0000
  N   N109      1.0  0.81441  0.38325  0.05004  1.0000
  C   C1532     1.0  0.79693  0.37438  0.05043  1.0000
  C   C1533     1.0  0.82803  0.36960  0.04096  1.0000
  C   C1534     1.0  0.92242  0.58982  0.04212  1.0000
  C   C1535     1.0  0.81772  0.39018  0.07920  1.0000
  C   C1536     1.0  0.75192  0.66370  0.09219  1.0000
  C   C1537     1.0  0.91799  0.61321  0.07666  1.0000
  H   H2608     1.0  0.91929  0.57909  0.09402  1.0000
  H   H2609     1.0  0.80508  0.63789  0.06247  1.0000
  H   H2610     1.0  0.79490  0.36697  0.03056  1.0000
  H   H2611     1.0  0.92588  0.48566  0.42932  1.0000
  H   H2612     1.0  0.79652  0.36451  0.06758  1.0000
  H   H2613     1.0  0.80914  0.61710  0.23443  1.0000
  H   H2614     1.0  0.98153  0.48470  0.04001  1.0000
  H   H2615     1.0  0.96177  0.38543  0.36849  1.0000
  H   H2616     1.0  0.80804  0.40092  0.08437  1.0000
  H   H2617     1.0  0.81517  0.38010  0.09553  1.0000
  C   C1538     1.0  0.93727  0.59317  0.11968  1.0000
  H   H2618     1.0  0.84117  0.37518  0.03815  1.0000
  H   H2619     1.0  0.81880  0.34562  0.06188  1.0000
  H   H2620     1.0  0.90982  0.55146  0.19568  1.0000
  C   C1539     1.0  0.75503  0.33996  0.09036  1.0000
  H   H2621     1.0  0.96926  0.40724  0.36320  1.0000
  H   H2622     1.0  0.84682  0.39124  0.07361  1.0000
  H   H2623     1.0  0.94372  0.36795  0.39960  1.0000
  C   C1540     1.0  0.83064  0.35372  0.06078  1.0000
  H   H2624     1.0  0.83460  0.35775  0.08218  1.0000
  H   H2625     1.0  0.95719  0.56422  0.22152  1.0000
  H   H2626     1.0  0.83921  0.39573  0.10771  1.0000
  N   N110      1.0  0.93055  0.59863  0.06720  1.0000
  H   H2627     1.0  0.95252  0.41233  0.40321  1.0000
  H   H2628     1.0  0.94828  0.48482  0.44010  1.0000
  H   H2629     1.0  0.76868  0.40032  0.42505  1.0000
  H   H2630     1.0  0.94164  0.58229  0.13381  1.0000
  H   H2631     1.0  0.84137  0.34502  0.05236  1.0000
  H   H2632     1.0  0.92870  0.40337  0.45805  1.0000
  H   H2633     1.0  0.95526  0.39456  0.44460  1.0000
  C   C1541     1.0  0.94448  0.40669  0.38619  1.0000
  H   H2634     1.0  0.90936  0.58461  0.04784  1.0000
  H   H2635     1.0  0.77844  0.39578  0.03695  1.0000
  H   H2636     1.0  0.77924  0.61013  0.15341  1.0000
  H   H2637     1.0  0.81280  0.58610  0.11047  1.0000
  C   C1542     1.0  0.91244  0.62687  0.05417  1.0000
  C   C1543     1.0  0.79808  0.62655  0.23001  1.0000
  H   H2638     1.0  0.75001  0.39488  0.40312  1.0000
  H   H2639     1.0  0.93042  0.37353  0.42890  1.0000
  H   H2640     1.0  0.90228  0.36778  0.35961  1.0000
  Fe  Fe223     1.0  0.79602  0.64214  0.99938  1.0000
  H   H2641     1.0  0.83994  0.40873  0.03331  1.0000
  H   H2642     1.0  0.96767  0.59138  0.08495  1.0000
  C   C1544     1.0  0.81320  0.39801  0.02886  1.0000
  H   H2643     1.0  0.94155  0.57464  0.08605  1.0000
  Fe  Fe224     1.0  0.77408  0.66136  0.45668  1.0000
  H   H2644     1.0  0.93572  0.42210  0.43736  1.0000
  C   C1545     1.0  0.98817  0.44052  0.34501  1.0000
  H   H2645     1.0  0.99314  0.47713  0.31685  1.0000
  H   H2646     1.0  0.78069  0.39360  0.07484  1.0000
  H   H2647     1.0  0.80681  0.60501  0.12964  1.0000
  H   H2648     1.0  0.97609  0.60148  0.05433  1.0000
  C   C1546     1.0  0.88220  0.51262  0.47191  1.0000
  H   H2649     1.0  0.95202  0.51933  0.47088  1.0000
  H   H2650     1.0  0.76597  0.60901  0.24621  1.0000
  C   C1547     1.0  0.83590  0.39778  0.08518  1.0000
  H   H2651     1.0  0.76346  0.63687  0.21661  1.0000
  H   H2652     1.0  0.80217  0.34347  0.37945  1.0000
  H   H2653     1.0  0.81718  0.62316  0.08591  1.0000
  C   C1548     1.0  0.75874  0.33887  0.11935  1.0000
  H   H2654     1.0  0.77728  0.39649  0.33613  1.0000
  H   H2655     1.0  0.95529  0.55159  0.18961  1.0000
  H   H2656     1.0  0.82607  0.41364  0.45493  1.0000
  N   N111      1.0  0.93714  0.52875  0.22401  1.0000
  C   C1549     1.0  0.93570  0.51208  0.24097  1.0000
  C   C1550     1.0  0.93428  0.52393  0.19362  1.0000
  C   C1551     1.0  0.92285  0.54152  0.23383  1.0000
  C   C1552     1.0  0.95510  0.53590  0.22928  1.0000
  C   C1553     1.0  0.93497  0.51421  0.27322  1.0000
  C   C1554     1.0  0.94818  0.51115  0.18077  1.0000
  C   C1555     1.0  0.91731  0.55655  0.21375  1.0000
  C   C1556     1.0  0.96070  0.55154  0.21112  1.0000
  H   H2657     1.0  0.92371  0.50506  0.23495  1.0000
  H   H2658     1.0  0.94686  0.50273  0.23656  1.0000
  H   H2659     1.0  0.93363  0.53557  0.17972  1.0000
  H   H2660     1.0  0.92121  0.51797  0.19090  1.0000
  H   H2661     1.0  0.91052  0.53447  0.23807  1.0000
  H   H2662     1.0  0.92654  0.54768  0.25413  1.0000
  H   H2663     1.0  0.95624  0.54038  0.25143  1.0000
  H   H2664     1.0  0.96556  0.52542  0.22754  1.0000
  H   H2665     1.0  0.92291  0.52152  0.28014  1.0000
  H   H2666     1.0  0.93436  0.50095  0.28290  1.0000
  H   H2667     1.0  0.94678  0.52047  0.28176  1.0000
  H   H2668     1.0  0.94794  0.49795  0.19049  1.0000
  H   H2669     1.0  0.94515  0.50933  0.15815  1.0000
  C   C1557     1.0  0.95738  0.39913  0.36394  1.0000
  C   C1558     1.0  0.94794  0.60647  0.05966  1.0000
  H   H2670     1.0  0.77089  0.63260  0.14996  1.0000
  C   C1559     1.0  0.93995  0.37908  0.41379  1.0000
  H   H2671     1.0  0.91403  0.42131  0.45085  1.0000
  C   C1560     1.0  0.76012  0.63744  0.23936  1.0000
  H   H2672     1.0  0.94812  0.60247  0.11808  1.0000
  H   H2673     1.0  0.81540  0.64614  0.09304  1.0000
  C   C1561     1.0  0.79048  0.63335  0.25820  1.0000
  H   H2674     1.0  0.95130  0.39969  0.34272  1.0000
  H   H2675     1.0  0.87890  0.46925  0.45683  1.0000
  C   C1562     1.0  0.96461  0.59449  0.06269  1.0000
  C   C1563     1.0  0.92907  0.49053  0.47395  1.0000
  H   H2676     1.0  0.93760  0.41829  0.37654  1.0000
  H   H2677     1.0  0.83704  0.39489  0.00285  1.0000
  H   H2678     1.0  0.79688  0.37182  0.34009  1.0000
  H   H2679     1.0  0.93808  0.56474  0.04341  1.0000
  S   S447      1.0  0.81301  0.37881  0.46189  1.0000
  H   H2680     1.0  0.89593  0.37921  0.39052  1.0000
  H   H2681     1.0  0.94764  0.61141  0.03765  1.0000
  C   C1564     1.0  0.99306  0.47712  0.03158  1.0000
  H   H2682     1.0  0.90758  0.39535  0.42276  1.0000
  H   H2683     1.0  0.75920  0.37035  0.33053  1.0000
  H   H2684     1.0  0.80148  0.63992  0.26894  1.0000
  C   C1565     1.0  0.75504  0.61881  0.24855  1.0000
  C   C1566     1.0  0.92490  0.41310  0.44170  1.0000
  H   H2685     1.0  0.92473  0.56792  0.01311  1.0000
  H   H2686     1.0  0.75423  0.61386  0.03285  1.0000
  C   C1567     1.0  0.99647  0.47514  0.29431  1.0000
  H   H2687     1.0  0.80229  0.53870  0.47222  1.0000
  C   C1568     1.0  0.88019  0.48107  0.46910  1.0000
  H   H2688     1.0  0.98840  0.46817  0.01487  1.0000
  H   H2689     1.0  0.84732  0.52017  0.45106  1.0000
  C   C1569     1.0  0.75262  0.66443  0.12172  1.0000
  S   S448      1.0  0.80274  0.66445  0.46688  1.0000
  S   S449      1.0  0.77276  0.35472  0.98326  1.0000
  H   H2690     1.0  0.74847  0.34040  0.16184  1.0000
  Fe  Fe225     1.0  0.80064  0.64251  0.49861  1.0000
  C   C1570     1.0  0.94311  0.51807  0.48925  1.0000
  S   S450      1.0  0.82364  0.62187  0.49964  1.0000
  Fe  Fe226     1.0  0.76971  0.65285  0.95048  1.0000
  S   S451      1.0  0.76435  0.64650  0.90388  1.0000
  H   H2691     1.0  0.94988  0.52463  0.50696  1.0000
  H   H2692     1.0  0.99066  0.50430  0.67040  1.0000
  H   H2693     1.0  0.94333  0.41799  0.87514  1.0000
  H   H2694     1.0  0.83168  0.65109  0.54058  1.0000
  Fe  Fe227     1.0  0.90305  0.52683  0.63916  1.0000
  S   S452      1.0  0.91203  0.55306  0.62289  1.0000
  S   S453      1.0  0.91059  0.52045  0.68538  1.0000
  Fe  Fe228     1.0  0.89232  0.51603  0.57866  1.0000
  S   S454      1.0  0.90101  0.54101  0.55916  1.0000
  S   S455      1.0  0.88250  0.49367  0.55194  1.0000
  Fe  Fe229     1.0  0.92481  0.53776  0.58738  1.0000
  S   S456      1.0  0.95249  0.53448  0.56905  1.0000
  Fe  Fe230     1.0  0.88728  0.55407  0.59588  1.0000
  S   S457      1.0  0.86637  0.57676  0.59320  1.0000
  S   S458      1.0  0.91671  0.51179  0.60444  1.0000
  S   S459      1.0  0.87760  0.52883  0.61469  1.0000
  Fe  Fe231     1.0  0.89724  0.46066  0.83095  1.0000
  S   S460      1.0  0.91137  0.43506  0.84274  1.0000
  S   S461      1.0  0.88849  0.46891  0.78609  1.0000
  Fe  Fe232     1.0  0.89358  0.47131  0.89320  1.0000
  S   S462      1.0  0.90739  0.44683  0.90880  1.0000
  S   S463      1.0  0.88402  0.49441  0.92003  1.0000
  Fe  Fe233     1.0  0.92660  0.45132  0.87355  1.0000
  S   S464      1.0  0.95541  0.45273  0.88710  1.0000
  Fe  Fe234     1.0  0.89094  0.43242  0.87731  1.0000
  S   S465      1.0  0.87914  0.40517  0.88605  1.0000
  S   S466      1.0  0.91355  0.47681  0.85985  1.0000
  S   S467      1.0  0.87596  0.45686  0.86352  1.0000
  H   H2695     1.0  0.96937  0.37386  0.88307  1.0000
  H   H2696     1.0  0.96437  0.49129  0.68333  1.0000
  C   C1571     1.0  0.99561  0.42897  0.84261  1.0000
  H   H2697     1.0  0.96883  0.42902  0.94452  1.0000
  H   H2698     1.0  0.85811  0.55681  0.81153  1.0000
  S   S468      1.0  0.79365  0.66107  0.53409  1.0000
  H   H2699     1.0  0.98773  0.52109  0.56155  1.0000
  H   H2700     1.0  0.95925  0.48932  0.63774  1.0000
  C   C1572     1.0  0.91461  0.39449  0.93785  1.0000
  H   H2701     1.0  0.94885  0.39555  0.83594  1.0000
  C   C1573     1.0  0.94774  0.41311  0.92912  1.0000
  C   C1574     1.0  0.86149  0.39677  0.90678  1.0000
  C   C1575     1.0  0.85855  0.37856  0.90658  1.0000
  C   C1576     1.0  0.84495  0.37121  0.92271  1.0000
  C   C1577     1.0  0.83396  0.38196  0.93942  1.0000
  C   C1578     1.0  0.83679  0.40019  0.93940  1.0000
  C   C1579     1.0  0.85041  0.40753  0.92334  1.0000
  H   H2702     1.0  0.86693  0.37002  0.89391  1.0000
  H   H2703     1.0  0.84311  0.35719  0.92233  1.0000
  C   C1580     1.0  0.75818  0.33770  0.61840  1.0000
  H   H2704     1.0  0.85234  0.42154  0.92380  1.0000
  C   C1581     1.0  0.97859  0.43485  0.85076  1.0000
  C   C1582     1.0  0.97643  0.44637  0.87350  1.0000
  H   H2705     1.0  0.76249  0.64118  0.84429  1.0000
  H   H2706     1.0  0.96718  0.43024  0.83977  1.0000
  H   H2707     1.0  0.84607  0.52034  0.50192  1.0000
  C   C1583     1.0  0.88205  0.49539  0.51490  1.0000
  C   C1584     1.0  0.88064  0.48013  0.49863  1.0000
  H   H2708     1.0  0.83756  0.56858  0.49212  1.0000
  C   C1585     1.0  0.88839  0.49475  0.95671  1.0000
  C   C1586     1.0  0.94818  0.40432  0.87951  1.0000
  C   C1587     1.0  0.88293  0.51164  0.50139  1.0000
  H   H2709     1.0  0.87988  0.46751  0.50889  1.0000
  Fe  Fe235     1.0  0.77443  0.33726  0.51636  1.0000
  C   C1588     1.0  0.84298  0.65229  0.55515  1.0000
  H   H2710     1.0  0.88389  0.52351  0.51361  1.0000
  C   C1589     1.0  0.90445  0.50557  0.71269  1.0000
  C   C1590     1.0  0.88989  0.49485  0.71058  1.0000
  C   C1591     1.0  0.88540  0.48369  0.73308  1.0000
  C   C1592     1.0  0.89543  0.48285  0.75801  1.0000
  C   C1593     1.0  0.91011  0.49344  0.76002  1.0000
  C   C1594     1.0  0.91446  0.50478  0.73766  1.0000
  H   H2711     1.0  0.88198  0.49524  0.69169  1.0000
  H   H2712     1.0  0.87401  0.47562  0.73113  1.0000
  H   H2713     1.0  0.91805  0.49299  0.77887  1.0000
  H   H2714     1.0  0.92563  0.51308  0.73982  1.0000
  H   H2715     1.0  0.81722  0.51967  0.52138  1.0000
  C   C1595     1.0  0.97295  0.54266  0.58030  1.0000
  C   C1596     1.0  0.97418  0.55842  0.59515  1.0000
  C   C1597     1.0  0.76782  0.39186  0.56832  1.0000
  H   H2716     1.0  0.96236  0.56585  0.60071  1.0000
  H   H2717     1.0  0.82833  0.40878  0.95182  1.0000
  H   H2718     1.0  0.76642  0.39920  0.86567  1.0000
  H   H2719     1.0  0.80867  0.35270  0.56347  1.0000
  H   H2720     1.0  0.81792  0.61617  0.56031  1.0000
  H   H2721     1.0  0.80672  0.53900  0.53446  1.0000
  H   H2722     1.0  0.79872  0.56656  0.51156  1.0000
  H   H2723     1.0  0.76964  0.65312  0.58914  1.0000
  C   C1598     1.0  0.83539  0.60962  0.52616  1.0000
  C   C1599     1.0  0.85075  0.59994  0.51866  1.0000
  C   C1600     1.0  0.86036  0.58981  0.53868  1.0000
  C   C1601     1.0  0.85476  0.58917  0.56667  1.0000
  C   C1602     1.0  0.83945  0.59894  0.57418  1.0000
  C   C1603     1.0  0.82978  0.60899  0.55412  1.0000
  H   H2724     1.0  0.85529  0.60029  0.49714  1.0000
  H   H2725     1.0  0.87219  0.58259  0.53249  1.0000
  H   H2726     1.0  0.83494  0.59863  0.59571  1.0000
  H   H2727     1.0  0.94287  0.37857  0.86000  1.0000
  H   H2728     1.0  0.75612  0.37688  0.93493  1.0000
  H   H2729     1.0  0.94254  0.37034  0.91059  1.0000
  H   H2730     1.0  0.97384  0.50895  0.51887  1.0000
  N   N112      1.0  0.87186  0.51796  0.82472  1.0000
  C   C1604     1.0  0.86762  0.50208  0.84219  1.0000
  C   C1605     1.0  0.89163  0.51878  0.82373  1.0000
  C   C1606     1.0  0.86451  0.51510  0.79561  1.0000
  C   C1607     1.0  0.86335  0.53387  0.83854  1.0000
  C   C1608     1.0  0.84813  0.49702  0.84297  1.0000
  C   C1609     1.0  0.90070  0.52298  0.85187  1.0000
  C   C1610     1.0  0.87177  0.52620  0.77141  1.0000
  C   C1611     1.0  0.86810  0.55204  0.82699  1.0000
  H   H2731     1.0  0.87521  0.49030  0.83457  1.0000
  H   H2732     1.0  0.87157  0.50385  0.86445  1.0000
  H   H2733     1.0  0.89617  0.52870  0.80864  1.0000
  H   H2734     1.0  0.89743  0.50611  0.81579  1.0000
  H   H2735     1.0  0.86678  0.50117  0.78901  1.0000
  H   H2736     1.0  0.84999  0.51734  0.79551  1.0000
  H   H2737     1.0  0.84880  0.53336  0.83709  1.0000
  H   H2738     1.0  0.86587  0.53388  0.86164  1.0000
  H   H2739     1.0  0.84342  0.49265  0.82212  1.0000
  H   H2740     1.0  0.84683  0.48569  0.85743  1.0000
  H   H2741     1.0  0.83945  0.50771  0.85131  1.0000
  H   H2742     1.0  0.89832  0.51306  0.86828  1.0000
  H   H2743     1.0  0.91515  0.52295  0.84855  1.0000
  H   H2744     1.0  0.89672  0.53618  0.85987  1.0000
  H   H2745     1.0  0.88566  0.52259  0.76668  1.0000
  H   H2746     1.0  0.87031  0.54047  0.77503  1.0000
  H   H2747     1.0  0.86432  0.52329  0.75195  1.0000
  H   H2748     1.0  0.88125  0.55248  0.81735  1.0000
  H   H2749     1.0  0.86834  0.56162  0.84461  1.0000
  H   H2750     1.0  0.94371  0.51820  0.64699  1.0000
  C   C1612     1.0  0.81148  0.57294  0.50899  1.0000
  C   C1613     1.0  0.75769  0.37584  0.84489  1.0000
  C   C1614     1.0  0.83873  0.54790  0.53600  1.0000
  N   N113      1.0  0.78484  0.37809  0.87737  1.0000
  C   C1615     1.0  0.77260  0.38705  0.85656  1.0000
  C   C1616     1.0  0.79731  0.39154  0.88830  1.0000
  H   H2751     1.0  0.76695  0.35948  0.89518  1.0000
  C   C1617     1.0  0.79446  0.36313  0.86272  1.0000
  H   H2752     1.0  0.98998  0.46114  0.90502  1.0000
  C   C1618     1.0  0.81201  0.39689  0.86805  1.0000
  C   C1619     1.0  0.81339  0.53340  0.51547  1.0000
  C   C1620     1.0  0.80887  0.35334  0.88014  1.0000
  C   C1621     1.0  0.76254  0.38387  0.91740  1.0000
  H   H2753     1.0  0.78003  0.39162  0.83798  1.0000
  H   H2754     1.0  0.80373  0.38709  0.90804  1.0000
  H   H2755     1.0  0.79003  0.40386  0.89438  1.0000
  H   H2756     1.0  0.81123  0.35907  0.90107  1.0000
  H   H2757     1.0  0.91683  0.40986  0.90011  1.0000
  H   H2758     1.0  0.78510  0.35300  0.85602  1.0000
  H   H2759     1.0  0.80047  0.36765  0.84276  1.0000
  C   C1622     1.0  0.82539  0.56092  0.49440  1.0000
  H   H2760     1.0  0.78710  0.37180  0.57711  1.0000
  C   C1623     1.0  0.80882  0.41382  0.51356  1.0000
  H   H2761     1.0  0.82181  0.38602  0.86473  1.0000
  H   H2762     1.0  0.80680  0.40155  0.84755  1.0000
  H   H2763     1.0  0.81928  0.40784  0.87760  1.0000
  H   H2764     1.0  0.78889  0.39457  0.50861  1.0000
  H   H2765     1.0  0.81601  0.57775  0.52962  1.0000
  C   C1624     1.0  0.81904  0.36248  0.56057  1.0000
  C   C1625     1.0  0.80660  0.40065  0.57481  1.0000
  H   H2766     1.0  0.97427  0.41857  0.91229  1.0000
  H   H2767     1.0  0.80902  0.58479  0.49577  1.0000
  C   C1626     1.0  0.96422  0.50161  0.62869  1.0000
  C   C1627     1.0  0.95786  0.48946  0.49688  1.0000
  H   H2768     1.0  0.82035  0.40605  0.50585  1.0000
  C   C1628     1.0  0.77486  0.37074  0.90180  1.0000
  H   H2769     1.0  0.95747  0.49243  0.73328  1.0000
  H   H2770     1.0  0.91942  0.47182  0.52224  1.0000
  C   C1629     1.0  0.75714  0.65355  0.59991  1.0000
  H   H2771     1.0  0.97869  0.50068  0.62615  1.0000
  H   H2772     1.0  0.99089  0.52025  0.69676  1.0000
  H   H2773     1.0  0.95844  0.51572  0.73446  1.0000
  H   H2774     1.0  0.91401  0.40670  0.95060  1.0000
  N   N114      1.0  0.96597  0.51928  0.67498  1.0000
  C   C1630     1.0  0.95921  0.50405  0.69174  1.0000
  H   H2775     1.0  0.85637  0.52492  0.54469  1.0000
  C   C1631     1.0  0.95943  0.53608  0.68892  1.0000
  S   S469      1.0  0.79787  0.65885  0.96038  1.0000
  C   C1632     1.0  0.96372  0.50389  0.72339  1.0000
  H   H2776     1.0  0.84974  0.53737  0.57457  1.0000
  C   C1633     1.0  0.95839  0.55282  0.67067  1.0000
  H   H2777     1.0  0.94099  0.42577  0.92327  1.0000
  H   H2778     1.0  0.90078  0.39066  0.93465  1.0000
  H   H2779     1.0  0.80779  0.36990  0.52073  1.0000
  H   H2780     1.0  0.93779  0.50574  0.54019  1.0000
  H   H2781     1.0  0.79855  0.41299  0.57757  1.0000
  H   H2782     1.0  0.94583  0.53457  0.69714  1.0000
  H   H2783     1.0  0.96765  0.53916  0.70753  1.0000
  S   S470      1.0  0.77241  0.63784  0.48565  1.0000
  C   C1634     1.0  0.79918  0.53222  0.49225  1.0000
  S   S471      1.0  0.81635  0.37360  0.96033  1.0000
  H   H2784     1.0  0.97805  0.50232  0.72717  1.0000
  H   H2785     1.0  0.96264  0.40480  0.87724  1.0000
  H   H2786     1.0  0.98279  0.48707  0.51911  1.0000
  C   C1635     1.0  0.99148  0.45229  0.88735  1.0000
  H   H2787     1.0  0.94463  0.50351  0.69003  1.0000
  H   H2788     1.0  0.88061  0.52205  0.96133  1.0000
  H   H2789     1.0  0.95161  0.38028  0.94062  1.0000
  C   C1636     1.0  0.96953  0.37654  0.90596  1.0000
  C   C1637     1.0  0.94138  0.39278  0.85540  1.0000
  H   H2790     1.0  0.85052  0.55581  0.53191  1.0000
  H   H2791     1.0  0.78396  0.41184  0.53285  1.0000
  N   N115      1.0  0.82952  0.54361  0.50878  1.0000
  C   C1638     1.0  0.84235  0.53288  0.49119  1.0000
  C   C1639     1.0  0.81321  0.37680  0.53931  1.0000
  C   C1640     1.0  0.99083  0.56498  0.60179  1.0000
  H   H2792     1.0  0.92139  0.38376  0.94970  1.0000
  N   N116      1.0  0.94024  0.49903  0.49597  1.0000
  C   C1641     1.0  0.92313  0.39769  0.90896  1.0000
  H   H2793     1.0  0.82102  0.65487  0.58496  1.0000
  C   C1642     1.0  0.88537  0.51035  0.97207  1.0000
  H   H2794     1.0  0.80485  0.39301  0.59453  1.0000
  H   H2795     1.0  0.97418  0.40610  0.94485  1.0000
  C   C1643     1.0  0.82617  0.40565  0.57441  1.0000
  H   H2796     1.0  0.86777  0.65495  0.51651  1.0000
  H   H2797     1.0  0.97445  0.36427  0.91628  1.0000
  C   C1644     1.0  0.83520  0.65097  0.58508  1.0000
  H   H2798     1.0  0.83660  0.63722  0.59270  1.0000
  H   H2799     1.0  0.97076  0.55543  0.65958  1.0000
  H   H2800     1.0  0.94317  0.41011  0.95070  1.0000
  H   H2801     1.0  0.94748  0.55224  0.65522  1.0000
  C   C1645     1.0  0.98849  0.53330  0.57298  1.0000
  H   H2802     1.0  0.89670  0.46758  0.95951  1.0000
  H   H2803     1.0  0.77949  0.37189  0.54177  1.0000
  H   H2804     1.0  0.91874  0.38685  0.89517  1.0000
  N   N117      1.0  0.94291  0.39887  0.90869  1.0000
  H   H2805     1.0  0.75181  0.38909  0.90376  1.0000
  H   H2806     1.0  0.82266  0.36798  0.58124  1.0000
  H   H2807     1.0  0.81292  0.42404  0.52859  1.0000
  H   H2808     1.0  0.83736  0.65688  0.49651  1.0000
  Fe  Fe236     1.0  0.76571  0.65752  0.51994  1.0000
  C   C1646     1.0  0.96744  0.41663  0.93248  1.0000
  H   H2809     1.0  0.95855  0.50276  0.60723  1.0000
  C   C1647     1.0  0.79451  0.40236  0.52616  1.0000
  H   H2810     1.0  0.83233  0.40618  0.55347  1.0000
  H   H2811     1.0  0.85476  0.54009  0.48843  1.0000
  C   C1648     1.0  0.78396  0.38059  0.55900  1.0000
  C   C1649     1.0  0.75653  0.65264  0.62946  1.0000
  N   N118      1.0  0.79999  0.39036  0.55002  1.0000
  H   H2812     1.0  0.77114  0.40186  0.58421  1.0000
  H   H2813     1.0  0.95630  0.47501  0.49827  1.0000
  H   H2814     1.0  0.95537  0.56434  0.68435  1.0000
  H   H2815     1.0  0.83443  0.52306  0.55916  1.0000
  Fe  Fe237     1.0  0.80066  0.34850  0.96928  1.0000
  H   H2816     1.0  0.96485  0.49257  0.54186  1.0000
  H   H2817     1.0  0.82737  0.41893  0.58377  1.0000
  C   C1650     1.0  0.93096  0.49805  0.52387  1.0000
  H   H2818     1.0  0.78403  0.36514  0.91790  1.0000
  H   H2819     1.0  0.92733  0.39603  0.85084  1.0000
  H   H2820     1.0  0.83012  0.55610  0.54994  1.0000
  C   C1651     1.0  0.84503  0.53218  0.55421  1.0000
  H   H2821     1.0  0.83413  0.39670  0.58816  1.0000
  C   C1652     1.0  0.95096  0.38130  0.91730  1.0000
  C   C1653     1.0  0.95833  0.51793  0.64584  1.0000
  H   H2822     1.0  0.96135  0.52939  0.63263  1.0000
  H   H2823     1.0  0.82529  0.38270  0.53122  1.0000
  H   H2824     1.0  0.89129  0.65729  0.58651  1.0000
  C   C1654     1.0  0.98579  0.51790  0.67523  1.0000
  H   H2825     1.0  0.83073  0.35515  0.55215  1.0000
  H   H2826     1.0  0.92193  0.48065  0.55652  1.0000
  H   H2827     1.0  0.91729  0.52983  0.50138  1.0000
  S   S472      1.0  0.77046  0.35878  0.48427  1.0000
  H   H2828     1.0  0.82156  0.35316  0.86862  1.0000
  H   H2829     1.0  0.97926  0.38667  0.91021  1.0000
  C   C1655     1.0  0.89444  0.47969  0.97093  1.0000
  H   H2830     1.0  0.76864  0.65153  0.64132  1.0000
  H   H2831     1.0  0.76102  0.39814  0.55012  1.0000
  H   H2832     1.0  0.85113  0.64022  0.55071  1.0000
  H   H2833     1.0  0.80529  0.33946  0.88338  1.0000
  C   C1656     1.0  0.74981  0.64655  0.85075  1.0000
  H   H2834     1.0  0.91763  0.50427  0.52259  1.0000
  S   S473      1.0  0.77163  0.33822  0.56458  1.0000
  H   H2835     1.0  0.87251  0.64388  0.58577  1.0000
  C   C1657     1.0  0.92836  0.47944  0.53563  1.0000
  H   H2836     1.0  0.79681  0.51822  0.48736  1.0000
  Fe  Fe238     1.0  0.76541  0.33212  0.95541  1.0000
  C   C1658     1.0  0.75419  0.33668  0.58953  1.0000
  H   H2837     1.0  0.76986  0.39478  0.92678  1.0000
  S   S474      1.0  0.80268  0.33310  0.50306  1.0000
  C   C1659     1.0  0.99569  0.53060  0.65617  1.0000
  H   H2838     1.0  0.98895  0.53342  0.63615  1.0000
  C   C1660     1.0  0.92640  0.52945  0.48328  1.0000
  H   H2839     1.0  0.88459  0.64805  0.55382  1.0000
  C   C1661     1.0  0.87965  0.65390  0.57374  1.0000
  C   C1662     1.0  0.97033  0.49498  0.52069  1.0000
  H   H2840     1.0  0.80325  0.42085  0.49499  1.0000
  H   H2841     1.0  0.94094  0.47203  0.53884  1.0000
  H   H2842     1.0  0.76282  0.36485  0.83168  1.0000
  H   H2843     1.0  0.84182  0.65909  0.60088  1.0000
  H   H2844     1.0  0.99169  0.57742  0.61262  1.0000
  H   H2845     1.0  0.78648  0.53798  0.49990  1.0000
  H   H2846     1.0  0.99716  0.41979  0.82538  1.0000
  H   H2847     1.0  0.77161  0.33955  0.62489  1.0000
  H   H2848     1.0  0.74911  0.37073  0.86160  1.0000
  H   H2849     1.0  0.74914  0.38414  0.83102  1.0000
  H   H2850     1.0  0.75814  0.38309  0.57812  1.0000
  H   H2851     1.0  0.99828  0.54312  0.66718  1.0000
  Fe  Fe239     1.0  0.92248  0.95110  0.09368  1.0000
  S   S475      1.0  0.91366  0.97782  0.10900  1.0000
  S   S476      1.0  0.95026  0.94874  0.07538  1.0000
  Fe  Fe240     1.0  0.88460  0.93653  0.09792  1.0000
  S   S477      1.0  0.87380  0.96265  0.11409  1.0000
  S   S478      1.0  0.86696  0.91214  0.09703  1.0000
  Fe  Fe241     1.0  0.89055  0.97442  0.08010  1.0000
  H   H2852     1.0  0.83928  0.95074  0.15313  1.0000
  Fe  Fe242     1.0  0.89795  0.96390  0.14172  1.0000
  S   S479      1.0  0.89954  0.96853  0.18981  1.0000
  S   S480      1.0  0.90010  0.94846  0.06280  1.0000
  S   S481      1.0  0.90796  0.93695  0.12762  1.0000
  C   C1663     1.0  0.85240  0.91545  0.21155  1.0000
  H   H2853     1.0  0.98526  0.95428  0.05637  1.0000
  N   N119      1.0  0.86094  0.92842  0.19243  1.0000
  Fe  Fe243     1.0  0.75930  0.83978  0.02140  1.0000
  S   S482      1.0  0.78591  0.83360  0.03945  1.0000
  C   C1664     1.0  0.85461  0.92649  0.16253  1.0000
  Fe  Fe244     1.0  0.77141  0.84224  0.46047  1.0000
  C   C1665     1.0  0.79201  0.76166  0.98297  1.0000
  S   S483      1.0  0.76472  0.85123  0.41526  1.0000
  Fe  Fe245     1.0  0.78662  0.81116  0.00843  1.0000
  S   S484      1.0  0.79542  0.78486  0.02773  1.0000
  Fe  Fe246     1.0  0.79618  0.85049  0.00482  1.0000
  S   S485      1.0  0.81707  0.87186  0.00956  1.0000
  H   H2854     1.0  0.75795  0.86434  0.35946  1.0000
  H   H2855     1.0  0.85729  0.94313  0.24813  1.0000
  C   C1666     1.0  0.78006  0.92278  0.06472  1.0000
  H   H2856     1.0  0.75442  0.67335  0.22753  1.0000
  H   H2857     1.0  0.84975  0.79541  0.05772  1.0000
  C   C1667     1.0  0.85944  0.97260  0.45460  1.0000
  C   C1668     1.0  0.75655  0.79810  0.11234  1.0000
  C   C1669     1.0  0.89640  0.98575  0.21524  1.0000
  H   H2858     1.0  0.81590  0.97422  0.47162  1.0000
  H   H2859     1.0  0.79439  0.72034  0.03097  1.0000
  C   C1670     1.0  0.85910  0.77317  0.03442  1.0000
  H   H2860     1.0  0.77116  0.90004  0.10770  1.0000
  Fe  Fe247     1.0  0.78659  0.68144  0.98616  1.0000
  H   H2861     1.0  0.82939  0.91250  0.23795  1.0000
  C   C1671     1.0  0.79316  0.76382  0.01209  1.0000
  H   H2862     1.0  0.75606  0.77889  0.17606  1.0000
  H   H2863     1.0  0.89528  0.81063  0.01193  1.0000
  H   H2864     1.0  0.83341  0.78587  0.03767  1.0000
  H   H2865     1.0  0.76834  0.79214  0.12287  1.0000
  C   C1672     1.0  0.96408  0.98745  0.02403  1.0000
  H   H2866     1.0  0.92718  0.96995  0.99355  1.0000
  H   H2867     1.0  0.76696  0.73669  0.36376  1.0000
  H   H2868     1.0  0.75907  0.75670  0.38147  1.0000
  N   N120      1.0  0.75732  0.89825  0.06774  1.0000
  N   N121      1.0  0.84967  0.80383  0.01430  1.0000
  C   C1673     1.0  0.98935  0.93469  0.13097  1.0000
  C   C1674     1.0  0.79610  0.71184  0.42885  1.0000
  H   H2869     1.0  0.90584  0.96944  0.24941  1.0000
  H   H2870     1.0  0.86094  0.96516  0.23717  1.0000
  H   H2871     1.0  0.87145  0.77464  0.04651  1.0000
  C   C1675     1.0  0.75003  0.85291  0.36205  1.0000
  H   H2872     1.0  0.86841  0.97217  0.43620  1.0000
  C   C1676     1.0  0.88903  0.98002  0.00155  1.0000
  H   H2873     1.0  0.79438  0.89009  0.07772  1.0000
  C   C1677     1.0  0.83254  0.91811  0.21707  1.0000
  H   H2874     1.0  0.88866  0.96793  0.01333  1.0000
  C   C1678     1.0  0.85298  0.90139  0.07231  1.0000
  C   C1679     1.0  0.85107  0.90680  0.04432  1.0000
  C   C1680     1.0  0.84005  0.89764  0.02567  1.0000
  C   C1681     1.0  0.83062  0.88298  0.03455  1.0000
  C   C1682     1.0  0.83246  0.87765  0.06263  1.0000
  C   C1683     1.0  0.84352  0.88676  0.08123  1.0000
  H   H2875     1.0  0.85821  0.91795  0.03692  1.0000
  H   H2876     1.0  0.83889  0.90195  0.00408  1.0000
  H   H2877     1.0  0.82553  0.86641  0.07006  1.0000
  H   H2878     1.0  0.84486  0.88234  0.10273  1.0000
  C   C1684     1.0  0.97254  0.93833  0.11940  1.0000
  C   C1685     1.0  0.97093  0.94540  0.09235  1.0000
  C   C1686     1.0  0.98631  0.94919  0.07746  1.0000
  H   H2879     1.0  0.96085  0.93512  0.13097  1.0000
  C   C1687     1.0  0.88344  0.80372  0.00474  1.0000
  C   C1688     1.0  0.75619  0.74289  0.37625  1.0000
  C   C1689     1.0  0.83741  0.93635  0.15413  1.0000
  H   H2880     1.0  0.78285  0.87187  0.09216  1.0000
  H   H2881     1.0  0.77365  0.88746  0.03395  1.0000
  H   H2882     1.0  0.87857  0.94950  0.23496  1.0000
  H   H2883     1.0  0.76944  0.71531  0.46319  1.0000
  H   H2884     1.0  0.75079  0.79818  0.19595  1.0000
  C   C1690     1.0  0.88662  0.90664  0.17970  1.0000
  H   H2885     1.0  0.79082  0.91465  0.05523  1.0000
  H   H2886     1.0  0.86503  0.95621  0.18775  1.0000
  N   N122      1.0  0.76649  0.72895  0.42344  1.0000
  H   H2887     1.0  0.86464  0.93138  0.14770  1.0000
  H   H2888     1.0  0.84421  0.95162  0.20089  1.0000
  H   H2889     1.0  0.82808  0.93200  0.21844  1.0000
  C   C1691     1.0  0.75443  0.84802  0.12887  1.0000
  S   S486      1.0  0.75920  0.81629  0.99277  1.0000
  H   H2890     1.0  0.82474  0.91128  0.20088  1.0000
  H   H2891     1.0  0.77175  0.80031  0.07395  1.0000
  H   H2892     1.0  0.75366  0.76672  0.13290  1.0000
  H   H2893     1.0  0.79207  0.70082  0.44239  1.0000
  H   H2894     1.0  0.88523  0.78982  0.01093  1.0000
  H   H2895     1.0  0.86631  0.82618  0.00842  1.0000
  S   S487      1.0  0.78697  0.66526  0.02630  1.0000
  H   H2896     1.0  0.84776  0.83628  0.04725  1.0000
  C   C1692     1.0  0.86415  0.95114  0.23239  1.0000
  C   C1693     1.0  0.86700  0.81276  0.01787  1.0000
  C   C1694     1.0  0.84733  0.78995  0.03645  1.0000
  H   H2897     1.0  0.78448  0.77012  0.42187  1.0000
  C   C1695     1.0  0.90353  0.98198  0.47165  1.0000
  C   C1696     1.0  0.78693  0.75576  0.41907  1.0000
  H   H2898     1.0  0.85192  0.76199  0.04338  1.0000
  C   C1697     1.0  0.84799  0.79669  0.98484  1.0000
  H   H2899     1.0  0.82965  0.94767  0.47506  1.0000
  H   H2900     1.0  0.90119  0.90556  0.18086  1.0000
  H   H2901     1.0  0.88318  0.90563  0.15711  1.0000
  C   C1698     1.0  0.88608  0.99609  0.01519  1.0000
  H   H2902     1.0  0.75457  0.88428  0.10690  1.0000
  H   H2903     1.0  0.76709  0.84785  0.13921  1.0000
  H   H2904     1.0  0.76545  0.84545  0.08730  1.0000
  H   H2905     1.0  0.77539  0.70612  0.39972  1.0000
  C   C1699     1.0  0.88051  0.92441  0.19267  1.0000
  H   H2906     1.0  0.83375  0.93219  0.13255  1.0000
  C   C1700     1.0  0.79385  0.74878  0.02927  1.0000
  C   C1701     1.0  0.86266  0.95577  0.47197  1.0000
  C   C1702     1.0  0.83520  0.81764  0.01810  1.0000
  C   C1703     1.0  0.76941  0.88402  0.05562  1.0000
  H   H2907     1.0  0.88588  0.92451  0.21439  1.0000
  H   H2908     1.0  0.76630  0.79965  0.16826  1.0000
  H   H2909     1.0  0.88756  0.93472  0.18107  1.0000
  H   H2910     1.0  0.83519  0.82728  0.00046  1.0000
  H   H2911     1.0  0.76136  0.68155  0.26138  1.0000
  H   H2912     1.0  0.78137  0.93625  0.05620  1.0000
  C   C1704     1.0  0.94008  0.96960  0.00456  1.0000
  H   H2913     1.0  0.88154  0.89529  0.19134  1.0000
  H   H2914     1.0  0.78717  0.75330  0.39624  1.0000
  H   H2915     1.0  0.86238  0.98472  0.46629  1.0000
  H   H2916     1.0  0.94200  0.94337  0.98679  1.0000
  C   C1705     1.0  0.90057  0.98228  0.24363  1.0000
  H   H2917     1.0  0.78182  0.92370  0.08777  1.0000
  C   C1706     1.0  0.75353  0.84671  0.09942  1.0000
  H   H2918     1.0  0.79484  0.75028  0.05180  1.0000
  C   C1707     1.0  0.85816  0.94716  0.20214  1.0000
  H   H2919     1.0  0.77895  0.74322  0.45666  1.0000
  H   H2920     1.0  0.82627  0.93351  0.16803  1.0000
  H   H2921     1.0  0.78695  0.72506  0.39174  1.0000
  C   C1708     1.0  0.78091  0.71809  0.40945  1.0000
  H   H2922     1.0  0.75557  0.70477  0.43884  1.0000
  H   H2923     1.0  0.80723  0.70670  0.41588  1.0000
  C   C1709     1.0  0.75176  0.73238  0.40277  1.0000
  H   H2924     1.0  0.85302  0.91240  0.15708  1.0000
  H   H2925     1.0  0.99183  0.98091  0.03009  1.0000
  C   C1710     1.0  0.78612  0.87887  0.07251  1.0000
  C   C1711     1.0  0.79354  0.73177  0.01752  1.0000
  C   C1712     1.0  0.75927  0.71791  0.44685  1.0000
  H   H2926     1.0  0.79428  0.86960  0.05976  1.0000
  H   H2927     1.0  0.85925  0.91447  0.23220  1.0000
  H   H2928     1.0  0.85394  0.90194  0.20284  1.0000
  H   H2929     1.0  0.82453  0.83811  0.04536  1.0000
  H   H2930     1.0  0.92140  0.98718  0.04787  1.0000
  H   H2931     1.0  0.83418  0.82022  0.06445  1.0000
  C   C1713     1.0  0.98217  0.98118  0.01256  1.0000
  H   H2932     1.0  0.95955  0.94813  0.01082  1.0000
  C   C1714     1.0  0.83575  0.82847  0.04552  1.0000
  S   S488      1.0  0.79530  0.82567  0.47302  1.0000
  H   H2933     1.0  0.79193  0.66752  0.25129  1.0000
  H   H2934     1.0  0.86995  0.81476  0.04056  1.0000
  H   H2935     1.0  0.93642  0.96609  0.02638  1.0000
  S   S489      1.0  0.76916  0.85803  0.98793  1.0000
  H   H2936     1.0  0.82209  0.81162  0.01777  1.0000
  H   H2937     1.0  0.84593  0.97340  0.44594  1.0000
  H   H2938     1.0  0.76241  0.87149  0.05330  1.0000
  N   N123      1.0  0.94861  0.98720  0.00404  1.0000
  C   C1715     1.0  0.77289  0.74588  0.43581  1.0000
  C   C1716     1.0  0.89744  0.99645  0.45578  1.0000
  H   H2939     1.0  0.80105  0.72252  0.44224  1.0000
  H   H2940     1.0  0.76173  0.91600  0.03311  1.0000
  C   C1717     1.0  0.89811  0.99527  0.26468  1.0000
  H   H2941     1.0  0.90144  0.99230  0.28629  1.0000
  C   C1718     1.0  0.75916  0.79461  0.08058  1.0000
  H   H2942     1.0  0.96147  0.97949  0.04313  1.0000
  C   C1719     1.0  0.76193  0.91602  0.05647  1.0000
  H   H2943     1.0  0.85942  0.94498  0.45734  1.0000
  H   H2944     1.0  0.76167  0.75526  0.43985  1.0000
  H   H2945     1.0  0.80021  0.75307  0.42808  1.0000
  H   H2946     1.0  0.90906  0.97051  0.46108  1.0000
  H   H2947     1.0  0.98721  0.99045  0.99673  1.0000
  H   H2948     1.0  0.75740  0.81249  0.11559  1.0000
  C   C1720     1.0  0.95105  0.95368  0.99381  1.0000
  H   H2949     1.0  0.78281  0.67291  0.29658  1.0000
  H   H2950     1.0  0.75190  0.92615  0.06289  1.0000
  C   C1721     1.0  0.79305  0.72959  0.98835  1.0000
  H   H2951     1.0  0.86225  0.76908  0.01271  1.0000
  H   H2952     1.0  0.87707  0.95439  0.47606  1.0000
  C   C1722     1.0  0.75781  0.89767  0.09945  1.0000
  H   H2953     1.0  0.85321  0.66693  0.47505  1.0000
  C   C1723     1.0  0.75397  0.79331  0.17447  1.0000
  S   S490      1.0  0.88189  0.99721  0.05175  1.0000
  H   H2954     1.0  0.83037  0.77462  0.99267  1.0000
  S   S491      1.0  0.89794  0.99511  0.41875  1.0000
  H   H2955     1.0  0.74877  0.80100  0.06745  1.0000
  H   H2956     1.0  0.76421  0.66924  0.13196  1.0000
  C   C1724     1.0  0.76584  0.67713  0.24033  1.0000
  H   H2957     1.0  0.77146  0.68868  0.22978  1.0000
  C   C1725     1.0  0.75106  0.84342  0.38745  1.0000
  S   S492      1.0  0.76396  0.67037  0.41299  1.0000
  H   H2958     1.0  0.76286  0.66804  0.07981  1.0000
  H   H2959     1.0  0.86301  0.91887  0.47613  1.0000
  H   H2960     1.0  0.98205  0.96778  0.00367  1.0000
  H   H2961     1.0  0.99042  0.92858  0.15140  1.0000
  H   H2962     1.0  0.76021  0.78039  0.07564  1.0000
  Fe  Fe248     1.0  0.92210  0.94194  0.59169  1.0000
  S   S493      1.0  0.92067  0.96971  0.60719  1.0000
  S   S494      1.0  0.94699  0.92788  0.57539  1.0000
  Fe  Fe249     1.0  0.88173  0.93724  0.59554  1.0000
  S   S495      1.0  0.87802  0.96500  0.61244  1.0000
  S   S496      1.0  0.85564  0.92295  0.58703  1.0000
  Fe  Fe250     1.0  0.89714  0.97262  0.57873  1.0000
  C   C1726     1.0  0.77778  0.71817  0.87108  1.0000
  Fe  Fe251     1.0  0.90182  0.95990  0.63990  1.0000
  S   S497      1.0  0.90771  0.96597  0.68659  1.0000
  S   S498      1.0  0.89969  0.94551  0.56073  1.0000
  S   S499      1.0  0.90437  0.93150  0.62546  1.0000
  H   H2963     1.0  0.87315  0.96605  0.52354  1.0000
  H   H2964     1.0  0.97086  0.95233  0.60542  1.0000
  S   S500      1.0  0.79547  0.70858  0.97219  1.0000
  Fe  Fe252     1.0  0.75987  0.84651  0.52230  1.0000
  S   S501      1.0  0.78250  0.83008  0.53872  1.0000
  H   H2965     1.0  0.76781  0.72902  0.87407  1.0000
  Fe  Fe253     1.0  0.77112  0.83392  0.96025  1.0000
  H   H2966     1.0  0.83726  0.95242  0.85715  1.0000
  S   S502      1.0  0.76572  0.82953  0.91296  1.0000
  C   C1727     1.0  0.79767  0.72902  0.50682  1.0000
  H   H2967     1.0  0.85140  0.93521  0.84258  1.0000
  Fe  Fe254     1.0  0.79897  0.84543  0.50845  1.0000
  S   S503      1.0  0.82601  0.85555  0.52235  1.0000
  H   H2968     1.0  0.91553  0.99633  0.77705  1.0000
  H   H2969     1.0  0.77576  0.84239  0.65048  1.0000
  C   C1728     1.0  0.89294  0.95217  0.78116  1.0000
  C   C1729     1.0  0.84793  0.70221  0.54464  1.0000
  C   C1730     1.0  0.85364  0.92036  0.49383  1.0000
  C   C1731     1.0  0.76735  0.69811  0.90895  1.0000
  H   H2970     1.0  0.78096  0.71898  0.84834  1.0000
  H   H2971     1.0  0.85164  0.70299  0.52218  1.0000
  H   H2972     1.0  0.79470  0.73777  0.88918  1.0000
  H   H2973     1.0  0.85391  0.95715  0.56134  1.0000
  Fe  Fe255     1.0  0.79382  0.68259  0.50153  1.0000
  C   C1732     1.0  0.91202  0.98360  0.73677  1.0000
  C   C1733     1.0  0.85006  0.99056  0.81163  1.0000
  H   H2974     1.0  0.88794  0.94090  0.82201  1.0000
  C   C1734     1.0  0.89202  0.97949  0.97240  1.0000
  H   H2975     1.0  0.79154  0.77307  0.96945  1.0000
  H   H2976     1.0  0.79569  0.71815  0.90837  1.0000
  C   C1735     1.0  0.90262  0.96934  0.84807  1.0000
  C   C1736     1.0  0.78195  0.68579  0.86641  1.0000
  C   C1737     1.0  0.79225  0.74465  0.97119  1.0000
  C   C1738     1.0  0.86347  0.96099  0.84612  1.0000
  C   C1739     1.0  0.90144  0.98192  0.71263  1.0000
  H   H2977     1.0  0.82093  0.74295  0.49587  1.0000
  H   H2978     1.0  0.76242  0.72582  0.92137  1.0000
  H   H2979     1.0  0.75781  0.74883  0.52002  1.0000
  C   C1740     1.0  0.77987  0.73081  0.51376  1.0000
  H   H2980     1.0  0.85923  0.97276  0.85860  1.0000
  H   H2981     1.0  0.75267  0.69292  0.67025  1.0000
  H   H2982     1.0  0.87020  0.98198  0.78304  1.0000
  C   C1741     1.0  0.77160  0.74758  0.51468  1.0000
  H   H2983     1.0  0.81696  0.89143  0.64999  1.0000
  N   N124      1.0  0.85284  0.66867  0.54893  1.0000
  C   C1742     1.0  0.90228  0.98211  0.50113  1.0000
  H   H2984     1.0  0.77980  0.69680  0.92085  1.0000
  H   H2985     1.0  0.93261  0.98071  0.95052  1.0000
  H   H2986     1.0  0.90696  0.97086  0.51312  1.0000
  C   C1743     1.0  0.84806  0.90451  0.56740  1.0000
  C   C1744     1.0  0.85900  0.89012  0.56015  1.0000
  C   C1745     1.0  0.85207  0.87546  0.54609  1.0000
  C   C1746     1.0  0.83415  0.87494  0.53871  1.0000
  C   C1747     1.0  0.82330  0.88955  0.54523  1.0000
  C   C1748     1.0  0.83016  0.90409  0.55970  1.0000
  H   H2987     1.0  0.87276  0.89011  0.56587  1.0000
  H   H2988     1.0  0.86068  0.86433  0.54112  1.0000
  H   H2989     1.0  0.80960  0.88957  0.53930  1.0000
  H   H2990     1.0  0.82151  0.91511  0.56507  1.0000
  C   C1749     1.0  0.97996  0.91341  0.57302  1.0000
  C   C1750     1.0  0.96989  0.92771  0.58316  1.0000
  C   C1751     1.0  0.97848  0.94118  0.59750  1.0000
  H   H2991     1.0  0.97357  0.90296  0.56190  1.0000
  C   C1752     1.0  0.84037  0.68426  0.55224  1.0000
  H   H2992     1.0  0.96459  0.98334  0.96638  1.0000
  C   C1753     1.0  0.88076  0.94943  0.80659  1.0000
  H   H2993     1.0  0.85567  0.90842  0.50695  1.0000
  H   H2994     1.0  0.85927  0.70545  0.55808  1.0000
  H   H2995     1.0  0.77248  0.71928  0.51849  1.0000
  H   H2996     1.0  0.79202  0.74315  0.94861  1.0000
  H   H2997     1.0  0.87208  0.95345  0.86097  1.0000
  N   N125      1.0  0.77033  0.70056  0.87789  1.0000
  H   H2998     1.0  0.85365  0.96681  0.78737  1.0000
  H   H2999     1.0  0.85780  0.98155  0.51079  1.0000
  H   H3000     1.0  0.79036  0.89298  0.57940  1.0000
  C   C1754     1.0  0.95420  0.99235  0.97485  1.0000
  H   H3001     1.0  0.83849  0.68056  0.49500  1.0000
  H   H3002     1.0  0.83186  0.78129  0.95689  1.0000
  S   S504      1.0  0.80849  0.70811  0.50495  1.0000
  H   H3003     1.0  0.79355  0.67235  0.90305  1.0000
  H   H3004     1.0  0.89749  0.96567  0.86897  1.0000
  C   C1755     1.0  0.86814  0.67064  0.56878  1.0000
  H   H3005     1.0  0.77422  0.67378  0.86321  1.0000
  H   H3006     1.0  0.91282  0.97915  0.85203  1.0000
  H   H3007     1.0  0.92406  0.97577  0.73843  1.0000
  C   C1756     1.0  0.93959  0.99322  0.95237  1.0000
  H   H3008     1.0  0.86934  0.67806  0.51520  1.0000
  C   C1757     1.0  0.84748  0.94935  0.84109  1.0000
  C   C1758     1.0  0.89223  0.99502  0.95658  1.0000
  S   S505      1.0  0.76937  0.78330  0.50855  1.0000
  H   H3009     1.0  0.76237  0.81952  0.85497  1.0000
  N   N126      1.0  0.80202  0.86131  0.61846  1.0000
  C   C1759     1.0  0.80637  0.84180  0.61841  1.0000
  C   C1760     1.0  0.79252  0.86542  0.64560  1.0000
  C   C1761     1.0  0.81915  0.87081  0.61751  1.0000
  C   C1762     1.0  0.79093  0.86534  0.59281  1.0000
  C   C1763     1.0  0.81879  0.83509  0.59482  1.0000
  C   C1764     1.0  0.77457  0.85690  0.64911  1.0000
  C   C1765     1.0  0.81883  0.89019  0.62695  1.0000
  C   C1766     1.0  0.78195  0.88373  0.59077  1.0000
  H   H3010     1.0  0.81258  0.83768  0.63868  1.0000
  H   H3011     1.0  0.79424  0.83407  0.61647  1.0000
  H   H3012     1.0  0.79008  0.87969  0.64861  1.0000
  H   H3013     1.0  0.80086  0.86137  0.66389  1.0000
  H   H3014     1.0  0.82917  0.86407  0.63116  1.0000
  H   H3015     1.0  0.82478  0.87039  0.59597  1.0000
  H   H3016     1.0  0.79894  0.86379  0.57337  1.0000
  H   H3017     1.0  0.78050  0.85553  0.58998  1.0000
  H   H3018     1.0  0.82021  0.82056  0.59619  1.0000
  H   H3019     1.0  0.81355  0.83814  0.57365  1.0000
  H   H3020     1.0  0.83218  0.84030  0.59679  1.0000
  Fe  Fe256     1.0  0.77700  0.81188  0.50253  1.0000
  H   H3021     1.0  0.90507  0.95901  0.78700  1.0000
  C   C1767     1.0  0.79465  0.72327  0.88671  1.0000
  H   H3022     1.0  0.83183  0.89580  0.62232  1.0000
  C   C1768     1.0  0.75222  0.82946  0.85894  1.0000
  C   C1769     1.0  0.79787  0.67969  0.88431  1.0000
  H   H3023     1.0  0.80890  0.89840  0.61578  1.0000
  H   H3024     1.0  0.77800  0.88952  0.61112  1.0000
  S   S506      1.0  0.89619  0.99359  0.92001  1.0000
  C   C1770     1.0  0.75078  0.83694  0.88599  1.0000
  S   S507      1.0  0.76548  0.68051  0.49040  1.0000
  H   H3025     1.0  0.87147  0.93582  0.51793  1.0000
  S   S508      1.0  0.75860  0.67573  0.97507  1.0000
  H   H3026     1.0  0.80628  0.69048  0.89097  1.0000
  H   H3027     1.0  0.82821  0.68255  0.53967  1.0000
  S   S509      1.0  0.75310  0.82764  0.48810  1.0000
  H   H3028     1.0  0.78708  0.68922  0.84528  1.0000
  H   H3029     1.0  0.83761  0.71261  0.54819  1.0000
  H   H3030     1.0  0.90942  0.95791  0.83806  1.0000
  H   H3031     1.0  0.76945  0.88266  0.57885  1.0000
  H   H3032     1.0  0.75114  0.81860  0.62781  1.0000
  H   H3033     1.0  0.86376  0.67562  0.58968  1.0000
  H   H3034     1.0  0.76535  0.86081  0.63204  1.0000
  H   H3035     1.0  0.84989  0.93487  0.53170  1.0000
  H   H3036     1.0  0.95909  0.95651  0.97517  1.0000
  H   H3037     1.0  0.87712  0.68083  0.56102  1.0000
  C   C1771     1.0  0.78096  0.76276  0.50857  1.0000
  C   C1772     1.0  0.99703  0.94018  0.60136  1.0000
  H   H3038     1.0  0.84102  0.95162  0.82055  1.0000
  H   H3039     1.0  0.81543  0.97695  0.50865  1.0000
  H   H3040     1.0  0.89481  0.98338  0.81060  1.0000
  C   C1773     1.0  0.99246  0.94609  0.50056  1.0000
  C   C1774     1.0  0.90717  0.99524  0.75880  1.0000
  C   C1775     1.0  0.86208  0.97580  0.79945  1.0000
  H   H3041     1.0  0.94558  0.99575  0.93155  1.0000
  C   C1776     1.0  0.85884  0.96809  0.51941  1.0000
  H   H3042     1.0  0.76079  0.68545  0.91286  1.0000
  H   H3043     1.0  0.81920  0.79450  0.98051  1.0000
  N   N127      1.0  0.87361  0.96597  0.82033  1.0000
  C   C1777     1.0  0.85731  0.93669  0.51193  1.0000
  H   H3044     1.0  0.76846  0.86145  0.66912  1.0000
  C   C1778     1.0  0.84973  0.96856  0.54831  1.0000
  H   H3045     1.0  0.83523  0.96923  0.54680  1.0000
  H   H3046     1.0  0.88614  0.95942  0.76389  1.0000
  C   C1779     1.0  0.99814  0.91224  0.57731  1.0000
  C   C1780     1.0  0.80713  0.74419  0.50113  1.0000
  S   S510      1.0  0.77644  0.86280  0.49384  1.0000
  H   H3047     1.0  0.85386  0.98043  0.55989  1.0000
  H   H3048     1.0  0.89716  0.93917  0.77250  1.0000
  H   H3049     1.0  0.86984  0.94131  0.79889  1.0000
  H   H3050     1.0  0.75865  0.71033  0.82175  1.0000
  C   C1781     1.0  0.79881  0.76100  0.50186  1.0000
  N   N128      1.0  0.85260  0.95437  0.49911  1.0000
  H   H3051     1.0  0.82601  0.94901  0.51172  1.0000
  H   H3052     1.0  0.83565  0.68541  0.57430  1.0000
  H   H3053     1.0  0.80654  0.71903  0.87471  1.0000
  H   H3054     1.0  0.80616  0.77256  0.49712  1.0000
  C   C1782     1.0  0.88820  0.97777  0.82916  1.0000
  H   H3055     1.0  0.89411  0.96695  0.96206  1.0000
  H   H3056     1.0  0.75331  0.82858  0.57847  1.0000
  H   H3057     1.0  0.75917  0.68648  0.82346  1.0000
  S   S511      1.0  0.79897  0.82752  0.97471  1.0000
  H   H3058     1.0  0.88320  0.80480  0.98147  1.0000
  H   H3059     1.0  0.75599  0.71011  0.94648  1.0000
  C   C1783     1.0  0.75640  0.71283  0.92359  1.0000
  H   H3060     1.0  0.80617  0.67032  0.87186  1.0000
  H   H3061     1.0  0.84841  0.80759  0.96925  1.0000
  C   C1784     1.0  0.75263  0.69873  0.83136  1.0000
  C   C1785     1.0  0.75258  0.69960  0.86379  1.0000
  C   C1786     1.0  0.84628  0.66804  0.49552  1.0000
  C   C1787     1.0  0.85999  0.66743  0.51941  1.0000
  H   H3062     1.0  0.85917  0.78778  0.97908  1.0000
  C   C1788     1.0  0.83135  0.78625  0.97883  1.0000
  C   C1789     1.0  0.83302  0.95540  0.49408  1.0000
  H   H3063     1.0  0.98222  0.93664  0.50638  1.0000
  H   H3064     1.0  0.74940  0.70553  0.62727  1.0000
  H   H3065     1.0  0.83946  0.98529  0.82485  1.0000
  C   C1790     1.0  0.88591  0.99218  0.71085  1.0000
  H   H3066     1.0  0.99059  0.95931  0.54013  1.0000
  H   H3067     1.0  0.87757  0.99104  0.69257  1.0000
  H   H3068     1.0  0.88284  0.98937  0.84081  1.0000
  C   C1791     1.0  0.82433  0.97396  0.49069  1.0000
  H   H3069     1.0  0.83347  0.98484  0.48851  1.0000
  H   H3070     1.0  0.98565  0.95695  0.48904  1.0000
  H   H3071     1.0  0.83991  0.92023  0.48612  1.0000
  C   C1792     1.0  0.89473  0.99667  0.51497  1.0000
  S   S512      1.0  0.89165  0.99688  0.55177  1.0000
  H   H3072     1.0  0.84365  0.99787  0.79400  1.0000
