data_image0
_chemical_formula_structural       FeSHFeSHFeSFeS3FeS2FeSHFeSFeS3C2H2NC6H4C2H4C2HSC2NCHSH6CHCH3CH2CH2CH3CHCH7CH5C2H2C3HCH4CH2N2C8HCH6CH6CH4CHCH5C2HCH2C3H6CHCH3FeS2CFeCFeCS2C2HCH2CHCHCNCHC2HNC2H4C2H7CHCH2CH5CH2CHFeHCSCH3CH2SH2C2H4CH2CHCH2CH2C3H2S2HFeSHFeS2FeSFeS3H2C3HC3H2C2H3SC2HCH3NC2HNC4HC3H22CH3CHCH4CH2CH5CHCHC2NCHCH2CH5C3H4CSCHCH5SFe2HSFeHSFeS2FeSHFeSFeS3HC2H2NHCH2C6H6SC2H6CH3NC8H19C3HCH2C2HCHCH2C7NH5CHSH3CHCH2CH3CH3SH3SH2SH2C5S2FeS3NHCSHCFe2S2FeHSH2FeSHFeCFeS4C5HCHC6H4CH4CNC8H20CH3C2H4C3H2SCHNCHCH4FeCH4C4HC2H5FeSC4H4CSH5SH2C4H2CH3SH2NH2C2HCH3CNHCH3CH3CH3CH2C3H3C2HCH4CH2SHCHCHFeS2FeS2FeCFeS3C4H5CHCHCH8C2H2CH2NC8H13CH2CH4CH2C2HCH2CHFeS2FeSHFeSFeSHCH4NH2C2SHCH6C3H3CHNCHCH3C2H6C4H3C2H3CH6C3H2CSHC2H5CH2CFeS2FeS2FeSFeHS2FeS2FeS2FeCFeHS2HC2H3C2HC2H5CH3C6H4C3HNHC3H4CNHC2H3C2H4CH7C2H2CH3CNCHC2H5CH3CHCHCH4C3H2CHSH2CSH2SC2NFeS2CH6CH4CH2C2NHCHC2HCH3CHC2H13C2SH2CH2CHCH3C3HNC4HCHCH6CH4CH5SC2HSHSFeS2FeS2Fe2NS2FeS2FeHSC2H2CHCH2C6H4C2H2CFeS2FeS2CHNCHC2H2CH4CHCHCHCH5CH3C3H4CH2C2NC4HC3H10CH8C2H5C2H5CH5CH4CHSHC2H2CH2FeS2FeS2FeHFeHS2CH2FeCSHCHCH2SH7C8H5CH2CH2FeCHCHCH4CNFeH3NH3C4H3C2H5SC2HC2NCHC2H2CH2CH2CHCSCHCH6CH3CHSH3
_chemical_formula_sum              "Fe64 S128 H768 C448 N32"
_cell_length_a       37.3632
_cell_length_b       37.4481
_cell_length_c       47.0921
_cell_angle_alpha    90.2097
_cell_angle_beta     89.7369
_cell_angle_gamma    89.9963

_space_group_name_H-M_alt    "P 1"
_space_group_IT_number       1

loop_
  _space_group_symop_operation_xyz
  'x, y, z'

loop_
  _atom_site_type_symbol
  _atom_site_label
  _atom_site_symmetry_multiplicity
  _atom_site_fract_x
  _atom_site_fract_y
  _atom_site_fract_z
  _atom_site_occupancy
  Fe  Fe1       1.0  0.17541  0.45821  0.20981  1.0000
  S   S1        1.0  0.16813  0.40184  0.19499  1.0000
  H   H1        1.0  0.25425  0.25776  0.10206  1.0000
  Fe  Fe2       1.0  0.19271  0.43601  0.27108  1.0000
  S   S2        1.0  0.18707  0.37756  0.25981  1.0000
  H   H2        1.0  0.32223  0.21138  0.22253  1.0000
  Fe  Fe3       1.0  0.21818  0.38957  0.21974  1.0000
  S   S3        1.0  0.26927  0.36375  0.20101  1.0000
  Fe  Fe4       1.0  0.13773  0.39509  0.23609  1.0000
  S   S4        1.0  0.08413  0.36603  0.23723  1.0000
  S   S5        1.0  0.22700  0.44723  0.23249  1.0000
  S   S6        1.0  0.14183  0.45231  0.24943  1.0000
  Fe  Fe5       1.0  0.43207  0.19178  0.08228  1.0000
  S   S7        1.0  0.38491  0.15740  0.09481  1.0000
  S   S8        1.0  0.43815  0.20436  0.03473  1.0000
  Fe  Fe6       1.0  0.45579  0.19876  0.14472  1.0000
  S   S9        1.0  0.41121  0.16412  0.16059  1.0000
  H   H3        1.0  0.21618  0.36051  0.14590  1.0000
  Fe  Fe7       1.0  0.42381  0.12877  0.12304  1.0000
  S   S10       1.0  0.43953  0.07004  0.12660  1.0000
  Fe  Fe8       1.0  0.37657  0.19642  0.13119  1.0000
  S   S11       1.0  0.32109  0.21531  0.14637  1.0000
  S   S12       1.0  0.47117  0.16164  0.10905  1.0000
  S   S13       1.0  0.42075  0.23275  0.11673  1.0000
  C   C1        1.0  0.41884  0.03014  0.11488  1.0000
  C   C2        1.0  0.40369  0.11350  0.02485  1.0000
  H   H4        1.0  0.27406  0.31042  0.12713  1.0000
  H   H5        1.0  0.36713  0.05286  0.10630  1.0000
  N   N1        1.0  0.04088  0.44136  0.16483  1.0000
  C   C3        1.0  0.28318  0.32168  0.18697  1.0000
  C   C4        1.0  0.26066  0.29186  0.18603  1.0000
  C   C5        1.0  0.27285  0.25949  0.17383  1.0000
  C   C6        1.0  0.30760  0.25646  0.16231  1.0000
  C   C7        1.0  0.33006  0.28634  0.16317  1.0000
  C   C8        1.0  0.31801  0.31859  0.17558  1.0000
  H   H6        1.0  0.23382  0.29373  0.19464  1.0000
  H   H7        1.0  0.25513  0.23664  0.17319  1.0000
  H   H8        1.0  0.35656  0.28473  0.15391  1.0000
  H   H9        1.0  0.33565  0.34150  0.17605  1.0000
  C   C9        1.0  0.04295  0.38770  0.24498  1.0000
  C   C10       1.0  0.04188  0.42306  0.25459  1.0000
  H   H10       1.0  0.24781  0.47013  0.10423  1.0000
  H   H11       1.0  0.06641  0.43777  0.25729  1.0000
  H   H12       1.0  0.20537  0.39658  0.12178  1.0000
  H   H13       1.0  0.30247  0.37988  0.07344  1.0000
  C   C11       1.0  0.48691  0.06319  0.05230  1.0000
  C   C12       1.0  0.06806  0.49042  0.19725  1.0000
  H   H14       1.0  0.20484  0.35397  0.08573  1.0000
  S   S14       1.0  0.49518  0.22438  0.17535  1.0000
  C   C13       1.0  0.25760  0.28253  0.08934  1.0000
  C   C14       1.0  0.47214  0.19273  0.00955  1.0000
  N   N2        1.0  0.45723  0.07039  0.03145  1.0000
  C   C15       1.0  0.43714  0.10284  0.04207  1.0000
  H   H15       1.0  0.44846  0.08080  0.98681  1.0000
  S   S15       1.0  0.49492  0.17624  0.30469  1.0000
  H   H16       1.0  0.36531  0.01706  0.17716  1.0000
  H   H17       1.0  0.36279  0.31598  0.27077  1.0000
  H   H18       1.0  0.45459  0.12684  0.04227  1.0000
  H   H19       1.0  0.23601  0.28262  0.07329  1.0000
  H   H20       1.0  0.33402  0.35696  0.11682  1.0000
  H   H21       1.0  0.22810  0.31348  0.11959  1.0000
  C   C16       1.0  0.32961  0.34020  0.09770  1.0000
  H   H22       1.0  0.47558  0.05918  0.07395  1.0000
  C   C17       1.0  0.08329  0.38734  0.15420  1.0000
  H   H23       1.0  0.46373  0.16303  0.20438  1.0000
  H   H24       1.0  0.38621  0.26235  0.29489  1.0000
  H   H25       1.0  0.20817  0.39790  0.04748  1.0000
  C   C18       1.0  0.47856  0.16852  0.24837  1.0000
  H   H26       1.0  0.12484  0.37210  0.30015  1.0000
  H   H27       1.0  0.27109  0.40511  0.11139  1.0000
  C   C19       1.0  0.38305  0.02872  0.10642  1.0000
  H   H28       1.0  0.42773  0.27762  0.17377  1.0000
  H   H29       1.0  0.43369  0.26140  0.30045  1.0000
  C   C20       1.0  0.07069  0.45247  0.18454  1.0000
  H   H30       1.0  0.25569  0.40081  0.04913  1.0000
  H   H31       1.0  0.22421  0.46907  0.15372  1.0000
  H   H32       1.0  0.07624  0.48171  0.29684  1.0000
  C   C21       1.0  0.00889  0.43976  0.26026  1.0000
  H   H33       1.0  0.41249  0.04106  0.04955  1.0000
  C   C22       1.0  0.00592  0.44553  0.18075  1.0000
  H   H34       1.0  0.12866  0.44759  0.31670  1.0000
  H   H35       1.0  0.07949  0.44060  0.11045  1.0000
  H   H36       1.0  0.22811  0.41734  0.07798  1.0000
  H   H37       1.0  0.03091  0.39660  0.13637  1.0000
  H   H38       1.0  0.08236  0.36069  0.14380  1.0000
  H   H39       1.0  0.42839  0.09899  0.06454  1.0000
  H   H40       1.0  0.38309  0.09221  0.02452  1.0000
  C   C23       1.0  0.25505  0.31498  0.10955  1.0000
  H   H41       1.0  0.29549  0.33591  0.06089  1.0000
  H   H42       1.0  0.39108  0.13720  0.03497  1.0000
  H   H43       1.0  0.09480  0.38316  0.17562  1.0000
  H   H44       1.0  0.41377  0.04080  0.01185  1.0000
  H   H45       1.0  0.32818  0.31172  0.10394  1.0000
  C   C24       1.0  0.29651  0.35224  0.08068  1.0000
  C   C25       1.0  0.03925  0.46474  0.13886  1.0000
  H   H46       1.0  0.46350  0.14532  0.25504  1.0000
  H   H47       1.0  0.23263  0.33902  0.05760  1.0000
  C   C26       1.0  0.04489  0.40238  0.15672  1.0000
  C   C27       1.0  0.43112  0.03950  0.03098  1.0000
  C   C28       1.0  0.47837  0.17874  0.21965  1.0000
  H   H48       1.0  0.23110  0.40466  0.15291  1.0000
  C   C29       1.0  0.23150  0.35829  0.07562  1.0000
  H   H49       1.0  0.09545  0.42192  0.30053  1.0000
  H   H50       1.0  0.03180  0.38487  0.17288  1.0000
  H   H51       1.0  0.05931  0.37750  0.30613  1.0000
  H   H52       1.0  0.28176  0.37152  0.13623  1.0000
  C   C30       1.0  0.20935  0.48239  0.13718  1.0000
  H   H53       1.0  0.36546  0.20559  0.26465  1.0000
  H   H54       1.0  0.41066  0.12182  0.00294  1.0000
  N   N3        1.0  0.26123  0.35108  0.09635  1.0000
  N   N4        1.0  0.38802  0.24586  0.23668  1.0000
  C   C31       1.0  0.37588  0.20808  0.24258  1.0000
  C   C32       1.0  0.41902  0.25363  0.25618  1.0000
  C   C33       1.0  0.40093  0.24680  0.20628  1.0000
  C   C34       1.0  0.35668  0.27078  0.24124  1.0000
  C   C35       1.0  0.34582  0.19345  0.22332  1.0000
  C   C36       1.0  0.41144  0.24918  0.28819  1.0000
  C   C37       1.0  0.41807  0.28178  0.19589  1.0000
  C   C38       1.0  0.36523  0.31045  0.24765  1.0000
  H   H55       1.0  0.39888  0.18914  0.24099  1.0000
  C   C39       1.0  0.23137  0.39578  0.06206  1.0000
  H   H56       1.0  0.42980  0.28088  0.25334  1.0000
  H   H57       1.0  0.44194  0.23589  0.25089  1.0000
  H   H58       1.0  0.42098  0.22530  0.20251  1.0000
  H   H59       1.0  0.37869  0.24122  0.19136  1.0000
  H   H60       1.0  0.33853  0.27008  0.22257  1.0000
  H   H61       1.0  0.34017  0.26140  0.25952  1.0000
  C   C40       1.0  0.26195  0.37882  0.11966  1.0000
  H   H62       1.0  0.35553  0.18808  0.20146  1.0000
  H   H63       1.0  0.33647  0.16743  0.23183  1.0000
  H   H64       1.0  0.35382  0.34299  0.08411  1.0000
  H   H65       1.0  0.28401  0.28032  0.07869  1.0000
  H   H66       1.0  0.07239  0.43361  0.20263  1.0000
  H   H67       1.0  0.39830  0.30376  0.19497  1.0000
  C   C41       1.0  0.47105  0.07851  0.00200  1.0000
  H   H68       1.0  0.44195  0.28950  0.20834  1.0000
  H   H69       1.0  0.34456  0.32746  0.23746  1.0000
  H   H70       1.0  0.39136  0.32014  0.23989  1.0000
  H   H71       1.0  0.10175  0.40430  0.14179  1.0000
  C   C42       1.0  0.22632  0.38506  0.13558  1.0000
  H   H72       1.0  0.01767  0.45567  0.12434  1.0000
  C   C43       1.0  0.22267  0.48306  0.10917  1.0000
  H   H73       1.0  0.48367  0.10546  0.00100  1.0000
  H   H74       1.0  0.04526  0.49313  0.21226  1.0000
  H   H75       1.0  0.09731  0.45071  0.17412  1.0000
  H   H76       1.0  0.41088  0.22052  0.29419  1.0000
  H   H77       1.0  0.01101  0.34188  0.23369  1.0000
  C   C44       1.0  0.49708  0.05140  0.98834  1.0000
  C   C45       1.0  0.49814  0.18807  0.26849  1.0000
  H   H78       1.0  0.00844  0.46719  0.26756  1.0000
  C   C46       1.0  0.01053  0.36928  0.24106  1.0000
  H   H79       1.0  0.00735  0.43151  0.20143  1.0000
  H   H80       1.0  0.50120  0.03795  0.04761  1.0000
  C   C47       1.0  0.49697  0.20922  0.21089  1.0000
  C   C48       1.0  0.07337  0.46664  0.12053  1.0000
  C   C49       1.0  0.44683  0.00143  0.03194  1.0000
  H   H81       1.0  0.06905  0.48595  0.10301  1.0000
  H   H82       1.0  0.03209  0.49259  0.14493  1.0000
  H   H83       1.0  0.09251  0.49580  0.20988  1.0000
  H   H84       1.0  0.09673  0.47646  0.13263  1.0000
  H   H85       1.0  0.08568  0.49238  0.33285  1.0000
  H   H86       1.0  0.49729  0.21171  0.53913  1.0000
  C   C50       1.0  0.19351  0.47932  0.34289  1.0000
  H   H87       1.0  0.17531  0.33954  0.62748  1.0000
  C   C51       1.0  0.40556  0.25278  0.47555  1.0000
  H   H88       1.0  0.13511  0.40772  0.40258  1.0000
  H   H89       1.0  0.32087  0.31875  0.54611  1.0000
  H   H90       1.0  0.31388  0.22574  0.56568  1.0000
  Fe  Fe9       1.0  0.42429  0.17240  0.58345  1.0000
  S   S16       1.0  0.36753  0.16188  0.59814  1.0000
  S   S17       1.0  0.43423  0.16454  0.53559  1.0000
  C   C52       1.0  0.04203  0.38548  0.32413  1.0000
  Fe  Fe10      1.0  0.39221  0.12883  0.63270  1.0000
  C   C53       1.0  0.15388  0.32742  0.64076  1.0000
  Fe  Fe11      1.0  0.37412  0.20934  0.62753  1.0000
  C   C54       1.0  0.06175  0.39935  0.35087  1.0000
  S   S18       1.0  0.44808  0.13627  0.61639  1.0000
  S   S19       1.0  0.42958  0.22174  0.61064  1.0000
  C   C55       1.0  0.37992  0.03448  0.63020  1.0000
  C   C56       1.0  0.38831  0.03485  0.60123  1.0000
  H   H91       1.0  0.04337  0.41939  0.36070  1.0000
  C   C57       1.0  0.35033  0.32232  0.54460  1.0000
  H   H92       1.0  0.14734  0.24607  0.62157  1.0000
  H   H93       1.0  0.22411  0.45555  0.37664  1.0000
  C   C58       1.0  0.39024  0.00257  0.58581  1.0000
  H   H94       1.0  0.20235  0.49737  0.41411  1.0000
  C   C59       1.0  0.49487  0.20210  0.51753  1.0000
  H   H95       1.0  0.19623  0.44279  0.59127  1.0000
  C   C60       1.0  0.32635  0.23449  0.54537  1.0000
  N   N5        1.0  0.09831  0.41572  0.34649  1.0000
  C   C61       1.0  0.46711  0.17869  0.51044  1.0000
  H   H96       1.0  0.39244  0.06006  0.59055  1.0000
  C   C62       1.0  0.42981  0.29626  0.56038  1.0000
  C   C63       1.0  0.10955  0.42262  0.40064  1.0000
  H   H97       1.0  0.41565  0.28837  0.58006  1.0000
  N   N6        1.0  0.38402  0.26506  0.52725  1.0000
  C   C64       1.0  0.38326  0.24077  0.50151  1.0000
  C   C65       1.0  0.36547  0.24541  0.55105  1.0000
  H   H98       1.0  0.13677  0.34978  0.64833  1.0000
  H   H99       1.0  0.38478  0.31728  0.50764  1.0000
  H   H100      1.0  0.12273  0.48810  0.61216  1.0000
  H   H101      1.0  0.11033  0.44392  0.41716  1.0000
  C   C66       1.0  0.36600  0.29987  0.51974  1.0000
  C   C67       1.0  0.10079  0.43783  0.31983  1.0000
  H   H102      1.0  0.39250  0.21345  0.50702  1.0000
  H   H103      1.0  0.36558  0.26064  0.57119  1.0000
  H   H104      1.0  0.44328  0.14835  0.47641  1.0000
  H   H105      1.0  0.38034  0.22046  0.55613  1.0000
  H   H106      1.0  0.39797  0.23629  0.45686  1.0000
  H   H107      1.0  0.39568  0.00331  0.56331  1.0000
  H   H108      1.0  0.36226  0.31758  0.56565  1.0000
  C   C68       1.0  0.46467  0.16642  0.48219  1.0000
  H   H109      1.0  0.02624  0.36140  0.32988  1.0000
  C   C69       1.0  0.42266  0.27088  0.53524  1.0000
  H   H110      1.0  0.06330  0.37686  0.36623  1.0000
  H   H111      1.0  0.28366  0.31422  0.62616  1.0000
  C   C70       1.0  0.19418  0.46998  0.63177  1.0000
  H   H112      1.0  0.31009  0.25679  0.53704  1.0000
  H   H113      1.0  0.35540  0.23724  0.49372  1.0000
  H   H114      1.0  0.08509  0.46108  0.37363  1.0000
  H   H115      1.0  0.43564  0.24484  0.54014  1.0000
  H   H116      1.0  0.40087  0.28112  0.47001  1.0000
  C   C71       1.0  0.19418  0.46838  0.60189  1.0000
  H   H117      1.0  0.35439  0.35112  0.53995  1.0000
  H   H118      1.0  0.08657  0.40499  0.40564  1.0000
  C   C72       1.0  0.19303  0.50007  0.39251  1.0000
  H   H119      1.0  0.32500  0.21136  0.53061  1.0000
  Fe  Fe12      1.0  0.44878  0.18459  0.64496  1.0000
  H   H120      1.0  0.15409  0.40028  0.34468  1.0000
  C   C73       1.0  0.09912  0.46035  0.64732  1.0000
  S   S20       1.0  0.33201  0.25443  0.62730  1.0000
  C   C74       1.0  0.10620  0.44031  0.37123  1.0000
  H   H121      1.0  0.43816  0.28249  0.51734  1.0000
  H   H122      1.0  0.43458  0.24796  0.47891  1.0000
  H   H123      1.0  0.34308  0.29477  0.50520  1.0000
  C   C75       1.0  0.48970  0.17714  0.46131  1.0000
  H   H124      1.0  0.12034  0.43975  0.64507  1.0000
  H   H125      1.0  0.12688  0.37140  0.36550  1.0000
  S   S21       1.0  0.19002  0.49627  0.54822  1.0000
  H   H126      1.0  0.13150  0.45516  0.36754  1.0000
  H   H127      1.0  0.45887  0.29563  0.56530  1.0000
  C   C76       1.0  0.12713  0.38750  0.34573  1.0000
  C   C77       1.0  0.20537  0.47641  0.37115  1.0000
  H   H128      1.0  0.08706  0.45901  0.60314  1.0000
  H   H129      1.0  0.48757  0.16721  0.43978  1.0000
  H   H130      1.0  0.04787  0.46396  0.32411  1.0000
  H   H131      1.0  0.19660  0.44575  0.64393  1.0000
  C   C78       1.0  0.09534  0.47992  0.61870  1.0000
  H   H132      1.0  0.42325  0.32427  0.55486  1.0000
  H   H133      1.0  0.02302  0.47858  0.62286  1.0000
  C   C79       1.0  0.19140  0.49966  0.58568  1.0000
  H   H134      1.0  0.13797  0.30953  0.62695  1.0000
  C   C80       1.0  0.28534  0.30572  0.64804  1.0000
  H   H135      1.0  0.10952  0.49760  0.56447  1.0000
  H   H136      1.0  0.10223  0.34153  0.32427  1.0000
  C   C81       1.0  0.12529  0.35985  0.32150  1.0000
  H   H137      1.0  0.04442  0.49588  0.57813  1.0000
  H   H138      1.0  0.14976  0.34301  0.32216  1.0000
  C   C82       1.0  0.07595  0.47070  0.31871  1.0000
  C   C83       1.0  0.15331  0.23586  0.64315  1.0000
  C   C84       1.0  0.37432  0.00144  0.64365  1.0000
  H   H139      1.0  0.18243  0.23734  0.64685  1.0000
  H   H140      1.0  0.14643  0.20700  0.64252  1.0000
  S   S22       1.0  0.20806  0.44697  0.31743  1.0000
  S   S23       1.0  0.37524  0.07462  0.65010  1.0000
  H   H141      1.0  0.02199  0.40528  0.31679  1.0000
  Fe  Fe13      1.0  0.17970  0.45716  0.70983  1.0000
  S   S24       1.0  0.16773  0.40380  0.69044  1.0000
  H   H142      1.0  0.48225  0.03080  0.97610  1.0000
  Fe  Fe14      1.0  0.16704  0.43156  0.77085  1.0000
  S   S25       1.0  0.15377  0.37606  0.75502  1.0000
  S   S26       1.0  0.16344  0.43638  0.81947  1.0000
  Fe  Fe15      1.0  0.20131  0.38121  0.72556  1.0000
  S   S27       1.0  0.24099  0.33416  0.72499  1.0000
  Fe  Fe16      1.0  0.12153  0.40340  0.72136  1.0000
  S   S28       1.0  0.06782  0.38700  0.70310  1.0000
  S   S29       1.0  0.21650  0.43513  0.74340  1.0000
  S   S30       1.0  0.13147  0.45823  0.73873  1.0000
  H   H143      1.0  0.08749  0.49751  0.83870  1.0000
  H   H144      1.0  0.48647  0.19401  0.93743  1.0000
  C   C85       1.0  0.26708  0.31344  0.69753  1.0000
  C   C86       1.0  0.26533  0.32407  0.66910  1.0000
  C   C87       1.0  0.30771  0.27673  0.65502  1.0000
  H   H145      1.0  0.47005  0.11754  0.67496  1.0000
  C   C88       1.0  0.30961  0.26627  0.68349  1.0000
  C   C89       1.0  0.28940  0.28444  0.70452  1.0000
  C   C90       1.0  0.09064  0.29094  0.71577  1.0000
  H   H146      1.0  0.44123  0.03150  0.74669  1.0000
  H   H147      1.0  0.29100  0.27582  0.72637  1.0000
  C   C91       1.0  0.02736  0.39365  0.72231  1.0000
  C   C92       1.0  0.02740  0.40175  0.75133  1.0000
  H   H148      1.0  0.32189  0.43140  0.79345  1.0000
  H   H149      1.0  0.05255  0.40477  0.76238  1.0000
  H   H150      1.0  0.37269  0.05636  0.71548  1.0000
  S   S31       1.0  0.39414  0.17531  0.66348  1.0000
  C   C93       1.0  0.17074  0.46300  0.87373  1.0000
  C   C94       1.0  0.17439  0.47038  0.84454  1.0000
  H   H151      1.0  0.41004  0.06243  0.76092  1.0000
  C   C95       1.0  0.25726  0.41070  0.87567  1.0000
  H   H152      1.0  0.16165  0.43688  0.88035  1.0000
  H   H153      1.0  0.32654  0.24405  0.68930  1.0000
  H   H154      1.0  0.43929  0.21112  0.76400  1.0000
  N   N7        1.0  0.14634  0.28410  0.68295  1.0000
  C   C96       1.0  0.46456  0.20268  0.72321  1.0000
  C   C97       1.0  0.46337  0.20255  0.75309  1.0000
  H   H155      1.0  0.44158  0.21155  0.71125  1.0000
  N   N8        1.0  0.26547  0.39026  0.82322  1.0000
  C   C98       1.0  0.24344  0.38863  0.85022  1.0000
  C   C99       1.0  0.24419  0.37161  0.80038  1.0000
  C   C100      1.0  0.26978  0.42905  0.81528  1.0000
  C   C101      1.0  0.30131  0.37292  0.82864  1.0000
  H   H156      1.0  0.46830  0.06574  0.78562  1.0000
  C   C102      1.0  0.23434  0.33236  0.80648  1.0000
  C   C103      1.0  0.29328  0.43706  0.78913  1.0000
  C   C104      1.0  0.32186  0.35794  0.80250  1.0000
  H   H157      1.0  0.21547  0.39738  0.84633  1.0000
  H   H158      1.0  0.24114  0.36066  0.85792  1.0000
  H   H159      1.0  0.25780  0.37212  0.77948  1.0000
  H   H160      1.0  0.21855  0.38602  0.79663  1.0000
  H   H161      1.0  0.24307  0.44157  0.81178  1.0000
  H   H162      1.0  0.28239  0.44457  0.83271  1.0000
  H   H163      1.0  0.31940  0.39191  0.83983  1.0000
  H   H164      1.0  0.29794  0.34981  0.84327  1.0000
  H   H165      1.0  0.40045  0.10610  0.70166  1.0000
  H   H166      1.0  0.07953  0.26533  0.70794  1.0000
  H   H167      1.0  0.47477  0.04371  0.70397  1.0000
  H   H168      1.0  0.22408  0.31985  0.78669  1.0000
  H   H169      1.0  0.25759  0.31645  0.81356  1.0000
  H   H170      1.0  0.21245  0.33058  0.82242  1.0000
  H   H171      1.0  0.29137  0.46602  0.78425  1.0000
  H   H172      1.0  0.28464  0.42265  0.76981  1.0000
  H   H173      1.0  0.21243  0.23869  0.72168  1.0000
  H   H174      1.0  0.35102  0.36203  0.80575  1.0000
  H   H175      1.0  0.31544  0.37032  0.78191  1.0000
  H   H176      1.0  0.31830  0.32856  0.80078  1.0000
  H   H177      1.0  0.44269  0.10658  0.78546  1.0000
  H   H178      1.0  0.40316  0.02103  0.70474  1.0000
  C   C105      1.0  0.39239  0.03644  0.72302  1.0000
  H   H179      1.0  0.43516  0.13632  0.70971  1.0000
  H   H180      1.0  0.36711  0.00079  0.66587  1.0000
  H   H181      1.0  0.18928  0.21849  0.69282  1.0000
  C   C106      1.0  0.17849  0.48918  0.89450  1.0000
  H   H182      1.0  0.28619  0.40656  0.87955  1.0000
  C   C107      1.0  0.19831  0.24453  0.70150  1.0000
  H   H183      1.0  0.24860  0.34642  0.66326  1.0000
  H   H184      1.0  0.37793  0.11124  0.75246  1.0000
  H   H185      1.0  0.14839  0.25306  0.72176  1.0000
  H   H186      1.0  0.03988  0.49486  0.65509  1.0000
  C   C108      1.0  0.42260  0.05346  0.74073  1.0000
  H   H187      1.0  0.19411  0.29229  0.65676  1.0000
  H   H188      1.0  0.10015  0.31866  0.67699  1.0000
  C   C109      1.0  0.41923  0.11406  0.71878  1.0000
  H   H189      1.0  0.41363  0.14331  0.75915  1.0000
  H   H190      1.0  0.43837  0.06101  0.68410  1.0000
  H   H191      1.0  0.24260  0.40244  0.89516  1.0000
  H   H192      1.0  0.12865  0.33198  0.70511  1.0000
  H   H193      1.0  0.11838  0.23359  0.67990  1.0000
  C   C110      1.0  0.46770  0.09380  0.77810  1.0000
  H   H194      1.0  0.17634  0.29145  0.72170  1.0000
  C   C111      1.0  0.39666  0.13068  0.74278  1.0000
  H   H195      1.0  0.44034  0.20918  0.97381  1.0000
  C   C112      1.0  0.17124  0.30736  0.66574  1.0000
  C   C113      1.0  0.11704  0.30805  0.69446  1.0000
  N   N9        1.0  0.44317  0.08327  0.72668  1.0000
  C   C114      1.0  0.16636  0.26924  0.70803  1.0000
  H   H196      1.0  0.38001  0.15237  0.73368  1.0000
  C   C115      1.0  0.47343  0.09568  0.74561  1.0000
  H   H197      1.0  0.06764  0.30937  0.71912  1.0000
  H   H198      1.0  0.10309  0.28731  0.73691  1.0000
  C   C116      1.0  0.45944  0.06861  0.69960  1.0000
  H   H199      1.0  0.17546  0.48311  0.91683  1.0000
  H   H200      1.0  0.49010  0.10797  0.78881  1.0000
  H   H201      1.0  0.18401  0.32773  0.67968  1.0000
  H   H202      1.0  0.21847  0.25676  0.68729  1.0000
  H   H203      1.0  0.25151  0.43959  0.87292  1.0000
  C   C117      1.0  0.49566  0.19191  0.70893  1.0000
  C   C118      1.0  0.12938  0.25463  0.66566  1.0000
  C   C119      1.0  0.49189  0.18961  0.95969  1.0000
  H   H204      1.0  0.10597  0.26532  0.65378  1.0000
  H   H205      1.0  0.49595  0.07990  0.66460  1.0000
  H   H206      1.0  0.37748  0.01711  0.73644  1.0000
  H   H207      1.0  0.08026  0.48101  0.93126  1.0000
  C   C120      1.0  0.46574  0.19817  0.98042  1.0000
  S   S32       1.0  0.49031  0.19098  0.80634  1.0000
  C   C121      1.0  0.49311  0.19148  0.76889  1.0000
  H   H208      1.0  0.10751  0.47805  0.66487  1.0000
  C   C122      1.0  0.48468  0.09416  0.68334  1.0000
  H   H209      1.0  0.06191  0.49585  0.88519  1.0000
  H   H210      1.0  0.49814  0.07966  0.74172  1.0000
  H   H211      1.0  0.07432  0.44579  0.65325  1.0000
  H   H212      1.0  0.48099  0.12355  0.74044  1.0000
  H   H213      1.0  0.00237  0.47368  0.86587  1.0000
  S   S33       1.0  0.49871  0.19276  0.67153  1.0000
  Fe  Fe17      1.0  0.12723  0.57355  0.00120  1.0000
  Fe  Fe18      1.0  0.19559  0.62029  0.00717  1.0000
  H   H214      1.0  0.44366  0.89597  0.20610  1.0000
  S   S34       1.0  0.21386  0.67630  0.02107  1.0000
  Fe  Fe19      1.0  0.19732  0.54131  0.02167  1.0000
  H   H215      1.0  0.36350  0.76822  0.03074  1.0000
  S   S35       1.0  0.16371  0.58668  0.03764  1.0000
  Fe  Fe20      1.0  0.42787  0.82161  0.14392  1.0000
  S   S36       1.0  0.37061  0.82791  0.12938  1.0000
  S   S37       1.0  0.43381  0.81834  0.19260  1.0000
  Fe  Fe21      1.0  0.45430  0.82067  0.08159  1.0000
  S   S38       1.0  0.39936  0.82754  0.06355  1.0000
  H   H216      1.0  0.13488  0.53302  0.12785  1.0000
  Fe  Fe22      1.0  0.39305  0.86844  0.09866  1.0000
  S   S39       1.0  0.36662  0.92264  0.09160  1.0000
  Fe  Fe23      1.0  0.38183  0.78633  0.09566  1.0000
  S   S40       1.0  0.35357  0.73264  0.08613  1.0000
  S   S41       1.0  0.44929  0.86413  0.11471  1.0000
  S   S42       1.0  0.43786  0.77750  0.11215  1.0000
  H   H217      1.0  0.46690  0.99943  0.12133  1.0000
  C   C123      1.0  0.38761  0.96393  0.09964  1.0000
  C   C124      1.0  0.42368  0.96566  0.10726  1.0000
  H   H218      1.0  0.26234  0.56358  0.07918  1.0000
  H   H219      1.0  0.43963  0.94163  0.10743  1.0000
  N   N10       1.0  0.41802  0.72323  0.00455  1.0000
  H   H220      1.0  0.38044  0.69111  0.02896  1.0000
  C   C125      1.0  0.03036  0.57628  0.98994  1.0000
  H   H221      1.0  0.41001  0.73930  0.04852  1.0000
  H   H222      1.0  0.44770  0.83059  0.01257  1.0000
  C   C126      1.0  0.31537  0.71827  0.06651  1.0000
  C   C127      1.0  0.28762  0.74141  0.05902  1.0000
  C   C128      1.0  0.25710  0.72816  0.04479  1.0000
  C   C129      1.0  0.25398  0.69174  0.03757  1.0000
  C   C130      1.0  0.28224  0.66879  0.04436  1.0000
  C   C131      1.0  0.31251  0.68193  0.05893  1.0000
  H   H223      1.0  0.28928  0.76939  0.06467  1.0000
  H   H224      1.0  0.23555  0.74625  0.03958  1.0000
  H   H225      1.0  0.28048  0.64080  0.03875  1.0000
  H   H226      1.0  0.33380  0.66375  0.06455  1.0000
  H   H227      1.0  0.40029  0.88330  0.17381  1.0000
  H   H228      1.0  0.41576  0.97800  0.16861  1.0000
  S   S43       1.0  0.06825  0.56140  0.00885  1.0000
  C   C132      1.0  0.47042  0.81940  0.00139  1.0000
  C   C133      1.0  0.46023  0.81907  0.24728  1.0000
  H   H229      1.0  0.43466  0.80748  0.25295  1.0000
  H   H230      1.0  0.48707  0.71629  0.03345  1.0000
  H   H231      1.0  0.15707  0.53202  0.07825  1.0000
  H   H232      1.0  0.39223  0.94677  0.24036  1.0000
  H   H233      1.0  0.24110  0.59022  0.18533  1.0000
  H   H234      1.0  0.36410  0.88713  0.25342  1.0000
  C   C134      1.0  0.46231  0.71641  0.04654  1.0000
  H   H235      1.0  0.24195  0.54542  0.17096  1.0000
  H   H236      1.0  0.41075  0.88481  0.24553  1.0000
  H   H237      1.0  0.47257  0.96180  0.17522  1.0000
  N   N11       1.0  0.24389  0.61481  0.12230  1.0000
  C   C135      1.0  0.21979  0.62203  0.09734  1.0000
  C   C136      1.0  0.27998  0.60338  0.11098  1.0000
  C   C137      1.0  0.24869  0.64759  0.14050  1.0000
  C   C138      1.0  0.22697  0.58603  0.14013  1.0000
  C   C139      1.0  0.18355  0.63996  0.10414  1.0000
  C   C140      1.0  0.28142  0.56607  0.09703  1.0000
  C   C141      1.0  0.26388  0.68065  0.12511  1.0000
  C   C142      1.0  0.24829  0.57385  0.16641  1.0000
  H   H238      1.0  0.23338  0.63893  0.08124  1.0000
  H   H239      1.0  0.21346  0.59673  0.08596  1.0000
  H   H240      1.0  0.30084  0.60437  0.12774  1.0000
  H   H241      1.0  0.28968  0.62248  0.09463  1.0000
  H   H242      1.0  0.22309  0.65533  0.15103  1.0000
  H   H243      1.0  0.26732  0.64199  0.15834  1.0000
  H   H244      1.0  0.20054  0.59490  0.14850  1.0000
  H   H245      1.0  0.22018  0.56216  0.12720  1.0000
  H   H246      1.0  0.18677  0.66677  0.11383  1.0000
  H   H247      1.0  0.16896  0.64415  0.08391  1.0000
  H   H248      1.0  0.16628  0.62297  0.11770  1.0000
  H   H249      1.0  0.27653  0.54448  0.11264  1.0000
  H   H250      1.0  0.34019  0.87724  0.17992  1.0000
  H   H251      1.0  0.30861  0.56160  0.08807  1.0000
  H   H252      1.0  0.26424  0.70363  0.14009  1.0000
  H   H253      1.0  0.24752  0.68879  0.10665  1.0000
  H   H254      1.0  0.29197  0.67629  0.11821  1.0000
  H   H255      1.0  0.47951  0.81955  0.29067  1.0000
  H   H256      1.0  0.27762  0.57485  0.16338  1.0000
  C   C143      1.0  0.38189  0.92819  0.22376  1.0000
  C   C144      1.0  0.20407  0.50117  0.08773  1.0000
  C   C145      1.0  0.43913  0.99854  0.11495  1.0000
  H   H257      1.0  0.33962  0.99464  0.09285  1.0000
  C   C146      1.0  0.46698  0.93279  0.17707  1.0000
  H   H258      1.0  0.33016  0.92451  0.18119  1.0000
  H   H259      1.0  0.39658  0.92090  0.15144  1.0000
  C   C147      1.0  0.35837  0.75785  0.00912  1.0000
  C   C148      1.0  0.44050  0.92487  0.20148  1.0000
  H   H260      1.0  0.37841  0.86915  0.22000  1.0000
  C   C149      1.0  0.39918  0.68846  0.01059  1.0000
  H   H261      1.0  0.46948  0.72971  0.06685  1.0000
  C   C150      1.0  0.38799  0.91029  0.17240  1.0000
  H   H262      1.0  0.45750  0.92220  0.15649  1.0000
  H   H263      1.0  0.45054  0.93916  0.22067  1.0000
  C   C151      1.0  0.02356  0.64803  0.06048  1.0000
  C   C152      1.0  0.34704  0.90387  0.17110  1.0000
  C   C153      1.0  0.46764  0.82672  0.21857  1.0000
  C   C154      1.0  0.17206  0.51863  0.09457  1.0000
  C   C155      1.0  0.38410  0.89006  0.23606  1.0000
  C   C156      1.0  0.48565  0.82592  0.26880  1.0000
  C   C157      1.0  0.43172  0.73766  0.03249  1.0000
  N   N12       1.0  0.40165  0.93382  0.19612  1.0000
  H   H264      1.0  0.33875  0.90272  0.14849  1.0000
  H   H265      1.0  0.40736  0.77703  0.99030  1.0000
  H   H266      1.0  0.44146  0.76547  0.03014  1.0000
  H   H267      1.0  0.35316  0.93493  0.22217  1.0000
  H   H268      1.0  0.41862  0.66803  0.01792  1.0000
  C   C158      1.0  0.15923  0.51872  0.12267  1.0000
  H   H269      1.0  0.42484  0.98186  0.02863  1.0000
  S   S44       1.0  0.22181  0.50215  0.05287  1.0000
  H   H270      1.0  0.45424  0.68876  0.05185  1.0000
  H   H271      1.0  0.49293  0.91953  0.18164  1.0000
  H   H272      1.0  0.41180  0.98968  0.20508  1.0000
  C   C159      1.0  0.39981  0.97275  0.18808  1.0000
  H   H273      1.0  0.46993  0.73933  0.98823  1.0000
  C   C160      1.0  0.36753  0.99569  0.09885  1.0000
  H   H274      1.0  0.04983  0.65993  0.05464  1.0000
  H   H275      1.0  0.47900  0.92268  0.01903  1.0000
  C   C161      1.0  0.39322  0.75102  0.99235  1.0000
  H   H276      1.0  0.06693  0.51123  0.18062  1.0000
  H   H277      1.0  0.35552  0.65569  0.99470  1.0000
  H   H278      1.0  0.01949  0.65306  0.08346  1.0000
  C   C162      1.0  0.36256  0.98799  0.18141  1.0000
  H   H279      1.0  0.34246  0.77857  0.99803  1.0000
  H   H280      1.0  0.16012  0.50940  0.31457  1.0000
  H   H281      1.0  0.34346  0.98525  0.19931  1.0000
  S   S45       1.0  0.15901  0.52554  0.98713  1.0000
  H   H282      1.0  0.34142  0.73359  0.01022  1.0000
  H   H283      1.0  0.45816  0.99548  0.05316  1.0000
  H   H284      1.0  0.35157  0.97610  0.16167  1.0000
  S   S46       1.0  0.16166  0.50272  0.17924  1.0000
  H   H285      1.0  0.46419  0.69243  0.99065  1.0000
  H   H286      1.0  0.00172  0.66009  0.01954  1.0000
  S   S47       1.0  0.23118  0.57540  0.99256  1.0000
  H   H287      1.0  0.46714  0.99656  0.01529  1.0000
  H   H288      1.0  0.02609  0.61890  0.05645  1.0000
  C   C163      1.0  0.44994  0.71758  0.98517  1.0000
  C   C164      1.0  0.37860  0.67087  0.98591  1.0000
  C   C165      1.0  0.50116  0.80981  0.01642  1.0000
  C   C166      1.0  0.50082  0.84187  0.21170  1.0000
  C   C167      1.0  0.17768  0.50042  0.14402  1.0000
  S   S48       1.0  0.12835  0.54071  0.49320  1.0000
  S   S49       1.0  0.06165  0.60752  0.52971  1.0000
  Fe  Fe24      1.0  0.16163  0.56748  0.45942  1.0000
  S   S50       1.0  0.15082  0.55697  0.41196  1.0000
  S   S51       1.0  0.14644  0.62293  0.47456  1.0000
  S   S52       1.0  0.36493  0.84234  0.63045  1.0000
  N   N13       1.0  0.45504  0.91206  0.49756  1.0000
  H   H289      1.0  0.13812  0.55095  0.35213  1.0000
  C   C168      1.0  0.34088  0.67748  0.64833  1.0000
  S   S53       1.0  0.49601  0.80392  0.55876  1.0000
  H   H290      1.0  0.40450  0.92768  0.51692  1.0000
  C   C169      1.0  0.46453  0.78551  0.47717  1.0000
  Fe  Fe25      1.0  0.11610  0.59556  0.50963  1.0000
  Fe  Fe26      1.0  0.19503  0.62046  0.50312  1.0000
  S   S54       1.0  0.21211  0.56665  0.48571  1.0000
  S   S55       1.0  0.23347  0.66875  0.50461  1.0000
  Fe  Fe27      1.0  0.17720  0.54437  0.52083  1.0000
  H   H291      1.0  0.48204  0.87154  0.52257  1.0000
  S   S56       1.0  0.16312  0.59776  0.53945  1.0000
  H   H292      1.0  0.40182  0.84248  0.47023  1.0000
  H   H293      1.0  0.37250  0.94388  0.63891  1.0000
  Fe  Fe28      1.0  0.44568  0.81398  0.58461  1.0000
  S   S57       1.0  0.39275  0.82805  0.56543  1.0000
  H   H294      1.0  0.07294  0.56923  0.62265  1.0000
  Fe  Fe29      1.0  0.39368  0.87397  0.59674  1.0000
  C   C170      1.0  0.46487  0.89543  0.52559  1.0000
  Fe  Fe30      1.0  0.36858  0.79494  0.60052  1.0000
  S   S58       1.0  0.32299  0.75317  0.60024  1.0000
  S   S59       1.0  0.44800  0.86144  0.61401  1.0000
  S   S60       1.0  0.42219  0.77774  0.61798  1.0000
  S   S61       1.0  0.49448  0.79183  0.42392  1.0000
  C   C171      1.0  0.38475  0.96951  0.59924  1.0000
  C   C172      1.0  0.37722  0.96908  0.62837  1.0000
  C   C173      1.0  0.40807  0.86291  0.48666  1.0000
  C   C174      1.0  0.16858  0.52706  0.38587  1.0000
  C   C175      1.0  0.08780  0.54475  0.62900  1.0000
  H   H295      1.0  0.49327  0.93843  0.33096  1.0000
  C   C176      1.0  0.18918  0.53264  0.59964  1.0000
  H   H296      1.0  0.18765  0.55693  0.58747  1.0000
  C   C177      1.0  0.29927  0.72933  0.57311  1.0000
  C   C178      1.0  0.30314  0.73707  0.54419  1.0000
  C   C179      1.0  0.28311  0.71801  0.52368  1.0000
  C   C180      1.0  0.25924  0.69059  0.53159  1.0000
  C   C181      1.0  0.25551  0.68268  0.56050  1.0000
  C   C182      1.0  0.27516  0.70208  0.58104  1.0000
  H   H297      1.0  0.32139  0.75791  0.53760  1.0000
  H   H298      1.0  0.28624  0.72453  0.50145  1.0000
  H   H299      1.0  0.23737  0.66174  0.56705  1.0000
  H   H300      1.0  0.27167  0.69581  0.60326  1.0000
  C   C183      1.0  0.02108  0.60795  0.51017  1.0000
  H   H301      1.0  0.40837  0.99131  0.51417  1.0000
  H   H302      1.0  0.04595  0.61291  0.46908  1.0000
  H   H303      1.0  0.04495  0.54277  0.58428  1.0000
  H   H304      1.0  0.46348  0.86152  0.47585  1.0000
  C   C184      1.0  0.42436  0.93802  0.50123  1.0000
  N   N14       1.0  0.13487  0.71847  0.53027  1.0000
  C   C185      1.0  0.10488  0.69190  0.52600  1.0000
  C   C186      1.0  0.16139  0.70142  0.55013  1.0000
  C   C187      1.0  0.15260  0.72438  0.50180  1.0000
  C   C188      1.0  0.11920  0.75277  0.54184  1.0000
  C   C189      1.0  0.07673  0.70145  0.50334  1.0000
  C   C190      1.0  0.14647  0.69039  0.57940  1.0000
  C   C191      1.0  0.18423  0.75072  0.50095  1.0000
  C   C192      1.0  0.14479  0.77778  0.55841  1.0000
  H   H305      1.0  0.11578  0.66516  0.52027  1.0000
  H   H306      1.0  0.08958  0.68770  0.54605  1.0000
  H   H307      1.0  0.18502  0.71850  0.55405  1.0000
  H   H308      1.0  0.17281  0.67688  0.54025  1.0000
  H   H309      1.0  0.16231  0.69851  0.49288  1.0000
  H   H310      1.0  0.13326  0.73501  0.48610  1.0000
  H   H311      1.0  0.10709  0.76862  0.52437  1.0000
  H   H312      1.0  0.09680  0.74667  0.55677  1.0000
  H   H313      1.0  0.05337  0.68329  0.50568  1.0000
  H   H314      1.0  0.06662  0.72912  0.50563  1.0000
  H   H315      1.0  0.08732  0.69697  0.48155  1.0000
  H   H316      1.0  0.13093  0.71202  0.58976  1.0000
  H   H317      1.0  0.12968  0.66600  0.57770  1.0000
  H   H318      1.0  0.16919  0.68357  0.59354  1.0000
  H   H319      1.0  0.17518  0.77859  0.50447  1.0000
  H   H320      1.0  0.19648  0.74976  0.47940  1.0000
  H   H321      1.0  0.20588  0.74373  0.51588  1.0000
  H   H322      1.0  0.13772  0.80596  0.55368  1.0000
  H   H323      1.0  0.17353  0.77491  0.55334  1.0000
  H   H324      1.0  0.14077  0.77478  0.58167  1.0000
  C   C193      1.0  0.18957  0.53427  0.62951  1.0000
  H   H325      1.0  0.49677  0.70436  0.38264  1.0000
  H   H326      1.0  0.43851  0.89296  0.45601  1.0000
  H   H327      1.0  0.38462  0.88096  0.48812  1.0000
  C   C194      1.0  0.44271  0.88257  0.47791  1.0000
  C   C195      1.0  0.09327  0.52231  0.56628  1.0000
  H   H328      1.0  0.11068  0.54511  0.57208  1.0000
  H   H329      1.0  0.41139  0.84831  0.50686  1.0000
  H   H330      1.0  0.44070  0.78050  0.51898  1.0000
  H   H331      1.0  0.40942  0.94101  0.48093  1.0000
  C   C196      1.0  0.15688  0.53009  0.35756  1.0000
  C   C197      1.0  0.46418  0.78841  0.50703  1.0000
  C   C198      1.0  0.02088  0.61144  0.48062  1.0000
  H   H332      1.0  0.18810  0.55991  0.64010  1.0000
  H   H333      1.0  0.44117  0.77542  0.46626  1.0000
  S   S62       1.0  0.38562  0.92977  0.57852  1.0000
  C   C199      1.0  0.48641  0.93007  0.48323  1.0000
  H   H334      1.0  0.44066  0.88447  0.53629  1.0000
  N   N15       1.0  0.07016  0.51145  0.61759  1.0000
  C   C200      1.0  0.00726  0.53258  0.63326  1.0000
  H   H335      1.0  0.31869  0.69442  0.64075  1.0000
  C   C201      1.0  0.43370  0.97640  0.51054  1.0000
  H   H336      1.0  0.01766  0.55741  0.64310  1.0000
  H   H337      1.0  0.35069  0.66248  0.62943  1.0000
  H   H338      1.0  0.44876  0.97738  0.53065  1.0000
  H   H339      1.0  0.11449  0.54854  0.61892  1.0000
  Fe  Fe31      1.0  0.41998  0.82672  0.64598  1.0000
  C   C202      1.0  0.03559  0.50262  0.63269  1.0000
  H   H340      1.0  0.47795  0.94152  0.46248  1.0000
  H   H341      1.0  0.08284  0.52798  0.54472  1.0000
  H   H342      1.0  0.38470  0.71411  0.64282  1.0000
  H   H343      1.0  0.44844  0.99100  0.49368  1.0000
  C   C203      1.0  0.16934  0.50655  0.33618  1.0000
  C   C204      1.0  0.19171  0.50295  0.64571  1.0000
  C   C205      1.0  0.49480  0.79586  0.46140  1.0000
  C   C206      1.0  0.06116  0.51803  0.58676  1.0000
  H   H344      1.0  0.46246  0.93239  0.56191  1.0000
  C   C207      1.0  0.49459  0.80059  0.52135  1.0000
  C   C208      1.0  0.48283  0.91948  0.54802  1.0000
  H   H345      1.0  0.49629  0.95328  0.49552  1.0000
  H   H346      1.0  0.50085  0.93997  0.53919  1.0000
  H   H347      1.0  0.50020  0.90263  0.56162  1.0000
  H   H348      1.0  0.46837  0.70913  0.94184  1.0000
  H   H349      1.0  0.31984  0.77236  0.71599  1.0000
  Fe  Fe32      1.0  0.18905  0.56379  0.95924  1.0000
  S   S63       1.0  0.19912  0.55780  0.91130  1.0000
  C   C209      1.0  0.08591  0.52360  0.85001  1.0000
  C   C210      1.0  0.08276  0.51674  0.88221  1.0000
  C   C211      1.0  0.18986  0.52323  0.88628  1.0000
  C   C212      1.0  0.19395  0.53041  0.85711  1.0000
  H   H350      1.0  0.20294  0.55658  0.85048  1.0000
  H   H351      1.0  0.02167  0.53063  0.91028  1.0000
  H   H352      1.0  0.18933  0.51035  0.81403  1.0000
  H   H353      1.0  0.08806  0.50113  0.96498  1.0000
  C   C213      1.0  0.46894  0.81426  0.97181  1.0000
  S   S64       1.0  0.42666  0.82911  0.69461  1.0000
  H   H354      1.0  0.44485  0.82109  0.96037  1.0000
  H   H355      1.0  0.11114  0.53794  0.84485  1.0000
  H   H356      1.0  0.40959  0.75805  0.67690  1.0000
  H   H357      1.0  0.02995  0.57398  0.92199  1.0000
  H   H358      1.0  0.44069  0.70200  0.68627  1.0000
  S   S65       1.0  0.19095  0.50617  0.68322  1.0000
  H   H359      1.0  0.30131  0.66986  0.71683  1.0000
  H   H360      1.0  0.10837  0.50361  0.88798  1.0000
  C   C214      1.0  0.30646  0.69729  0.70886  1.0000
  C   C215      1.0  0.42794  0.71629  0.70435  1.0000
  C   C216      1.0  0.32973  0.78334  0.69564  1.0000
  C   C217      1.0  0.46274  0.82018  0.71826  1.0000
  H   H361      1.0  0.07510  0.53202  0.67445  1.0000
  H   H362      1.0  0.48878  0.90336  0.95578  1.0000
  C   C218      1.0  0.07478  0.50520  0.94419  1.0000
  H   H363      1.0  0.29191  0.71543  0.72364  1.0000
  H   H364      1.0  0.39198  0.67883  0.66733  1.0000
  H   H365      1.0  0.35195  0.72010  0.72976  1.0000
  S   S66       1.0  0.15543  0.61147  0.97184  1.0000
  H   H366      1.0  0.36105  0.67868  0.71274  1.0000
  H   H367      1.0  0.43072  0.83144  0.75545  1.0000
  N   N16       1.0  0.36339  0.72442  0.68488  1.0000
  H   H368      1.0  0.39610  0.65205  0.97397  1.0000
  H   H369      1.0  0.11959  0.53678  0.92984  1.0000
  C   C219      1.0  0.37214  0.69922  0.66074  1.0000
  C   C220      1.0  0.18630  0.50421  0.83635  1.0000
  H   H370      1.0  0.35321  0.76775  0.65580  1.0000
  C   C221      1.0  0.49837  0.80015  0.95694  1.0000
  H   H371      1.0  0.39323  0.76037  0.71230  1.0000
  H   H372      1.0  0.47989  0.82090  0.78991  1.0000
  H   H373      1.0  0.41854  0.69706  0.72057  1.0000
  C   C222      1.0  0.34725  0.70477  0.70978  1.0000
  N   N17       1.0  0.07565  0.54852  0.90136  1.0000
  H   H374      1.0  0.42267  0.69667  0.94669  1.0000
  C   C223      1.0  0.09602  0.58089  0.89114  1.0000
  H   H375      1.0  0.06281  0.53828  0.84131  1.0000
  H   H376      1.0  0.04577  0.50746  0.94892  1.0000
  H   H377      1.0  0.38474  0.74442  0.97046  1.0000
  C   C224      1.0  0.08903  0.61587  0.90769  1.0000
  H   H378      1.0  0.03264  0.58773  0.86455  1.0000
  H   H379      1.0  0.49023  0.90439  0.71502  1.0000
  H   H380      1.0  0.33088  0.65736  0.66366  1.0000
  C   C225      1.0  0.48477  0.81770  0.76738  1.0000
  H   H381      1.0  0.09030  0.58718  0.86865  1.0000
  H   H382      1.0  0.12539  0.57558  0.89156  1.0000
  H   H383      1.0  0.08427  0.56133  0.94592  1.0000
  C   C226      1.0  0.08984  0.53954  0.93048  1.0000
  H   H384      1.0  0.12189  0.53776  0.66644  1.0000
  H   H385      1.0  0.30813  0.80016  0.68658  1.0000
  C   C227      1.0  0.03603  0.55543  0.90409  1.0000
  C   C228      1.0  0.09443  0.54694  0.66129  1.0000
  C   C229      1.0  0.39799  0.74161  0.69429  1.0000
  H   H386      1.0  0.10524  0.63755  0.89798  1.0000
  H   H387      1.0  0.06060  0.62425  0.90660  1.0000
  H   H388      1.0  0.09741  0.61420  0.93013  1.0000
  C   C230      1.0  0.02971  0.60909  0.97585  1.0000
  C   C231      1.0  0.45694  0.82374  0.74774  1.0000
  H   H389      1.0  0.43566  0.74326  0.94474  1.0000
  C   C232      1.0  0.33983  0.75403  0.67392  1.0000
  H   H390      1.0  0.44943  0.73260  0.71429  1.0000
  H   H391      1.0  0.36652  0.69003  0.97099  1.0000
  H   H392      1.0  0.29401  0.69877  0.68769  1.0000
  H   H393      1.0  0.35260  0.80152  0.69972  1.0000
  C   C233      1.0  0.44307  0.71649  0.95291  1.0000
  H   H394      1.0  0.31456  0.74398  0.66474  1.0000
  H   H395      1.0  0.09195  0.57516  0.66837  1.0000
  S   S67       1.0  0.49421  0.79053  0.92042  1.0000
  H   H396      1.0  0.05363  0.62536  0.97502  1.0000
  C   C234      1.0  0.01657  0.56903  0.87745  1.0000
  H   H397      1.0  0.00759  0.54641  0.86395  1.0000
  C   C235      1.0  0.49677  0.81009  0.70868  1.0000
  H   H398      1.0  0.58654  0.25545  0.19083  1.0000
  Fe  Fe33      1.0  0.80775  0.38600  0.26119  1.0000
  S   S68       1.0  0.77342  0.43159  0.24645  1.0000
  S   S69       1.0  0.78599  0.33018  0.27242  1.0000
  Fe  Fe34      1.0  0.87744  0.43017  0.25474  1.0000
  S   S70       1.0  0.84685  0.47831  0.23964  1.0000
  S   S71       1.0  0.93602  0.44495  0.26240  1.0000
  Fe  Fe35      1.0  0.80824  0.46542  0.27482  1.0000
  C   C236      1.0  0.74111  0.27961  0.29615  1.0000
  Fe  Fe36      1.0  0.81539  0.44071  0.21235  1.0000
  S   S72       1.0  0.79674  0.45053  0.16639  1.0000
  S   S73       1.0  0.84025  0.41965  0.29162  1.0000
  S   S74       1.0  0.84808  0.39270  0.22523  1.0000
  C   C237      1.0  0.51741  0.21813  0.25969  1.0000
  C   C238      1.0  0.97645  0.42157  0.25597  1.0000
  C   C239      1.0  0.97736  0.38618  0.24634  1.0000
  C   C240      1.0  0.97205  0.43152  0.16562  1.0000
  H   H399      1.0  0.95256  0.37186  0.24302  1.0000
  H   H400      1.0  0.64509  0.31488  0.99876  1.0000
  H   H401      1.0  0.55994  0.03239  0.26316  1.0000
  H   H402      1.0  0.53046  0.25273  0.22452  1.0000
  H   H403      1.0  0.00030  0.47403  0.18583  1.0000
  C   C241      1.0  0.79298  0.47644  0.11160  1.0000
  H   H404      1.0  0.51520  0.03833  0.00353  1.0000
  C   C242      1.0  0.71962  0.34028  0.29926  1.0000
  H   H405      1.0  0.61163  0.21494  0.19892  1.0000
  C   C243      1.0  0.51652  0.22882  0.23103  1.0000
  H   H406      1.0  0.61448  0.00830  0.28968  1.0000
  H   H407      1.0  0.55687  0.15935  0.00361  1.0000
  H   H408      1.0  0.61783  0.20010  0.25955  1.0000
  H   H409      1.0  0.54070  0.04321  0.29776  1.0000
  H   H410      1.0  0.60396  0.23922  0.27771  1.0000
  H   H411      1.0  0.96564  0.44723  0.14640  1.0000
  H   H412      1.0  0.59096  0.23142  0.24138  1.0000
  H   H413      1.0  0.78755  0.49731  0.06890  1.0000
  C   C244      1.0  0.56576  0.03752  0.28587  1.0000
  C   C245      1.0  0.74639  0.31627  0.29082  1.0000
  H   H414      1.0  0.61421  0.23481  0.16488  1.0000
  H   H415      1.0  0.63321  0.34236  0.26200  1.0000
  C   C246      1.0  0.68800  0.32770  0.31250  1.0000
  H   H416      1.0  0.53196  0.23378  0.27517  1.0000
  H   H417      1.0  0.53748  0.08268  0.06888  1.0000
  N   N18       1.0  0.64611  0.27739  0.22663  1.0000
  C   C247      1.0  0.67928  0.30027  0.22942  1.0000
  C   C248      1.0  0.61426  0.30145  0.23165  1.0000
  C   C249      1.0  0.64517  0.26328  0.19658  1.0000
  C   C250      1.0  0.64845  0.24727  0.24777  1.0000
  C   C251      1.0  0.71528  0.28200  0.22230  1.0000
  C   C252      1.0  0.61311  0.32060  0.26070  1.0000
  C   C253      1.0  0.61222  0.24107  0.18792  1.0000
  C   C254      1.0  0.61300  0.22912  0.25665  1.0000
  H   H418      1.0  0.67733  0.32451  0.21582  1.0000
  H   H419      1.0  0.68220  0.31033  0.25153  1.0000
  H   H420      1.0  0.58857  0.28702  0.22970  1.0000
  H   H421      1.0  0.61311  0.32250  0.21499  1.0000
  H   H422      1.0  0.64741  0.28578  0.18121  1.0000
  H   H423      1.0  0.66845  0.24551  0.19232  1.0000
  H   H424      1.0  0.66692  0.22605  0.23992  1.0000
  H   H425      1.0  0.66039  0.25719  0.26786  1.0000
  H   H426      1.0  0.73741  0.30052  0.22792  1.0000
  H   H427      1.0  0.71945  0.25732  0.23480  1.0000
  H   H428      1.0  0.71826  0.27644  0.19927  1.0000
  H   H429      1.0  0.58643  0.33320  0.26373  1.0000
  H   H430      1.0  0.61704  0.30190  0.27852  1.0000
  C   C255      1.0  0.81082  0.47879  0.13786  1.0000
  H   H431      1.0  0.70608  0.23881  0.31342  1.0000
  H   H432      1.0  0.58187  0.06246  0.28691  1.0000
  C   C256      1.0  0.53134  0.17002  0.99698  1.0000
  H   H433      1.0  0.77204  0.45680  0.10889  1.0000
  H   H434      1.0  0.76158  0.26074  0.28979  1.0000
  H   H435      1.0  0.97377  0.40274  0.16019  1.0000
  H   H436      1.0  0.72314  0.36852  0.29538  1.0000
  C   C257      1.0  0.58747  0.00701  0.29941  1.0000
  H   H437      1.0  0.94885  0.43449  0.18035  1.0000
  H   H438      1.0  0.50554  0.11713  0.06413  1.0000
  C   C258      1.0  0.70962  0.26706  0.30961  1.0000
  C   C259      1.0  0.51604  0.09223  0.05450  1.0000
  H   H439      1.0  0.51089  0.17499  0.03998  1.0000
  C   C260      1.0  0.50521  0.17864  0.01769  1.0000
  H   H440      1.0  0.52873  0.09808  0.03371  1.0000
  H   H441      1.0  0.60314  0.29913  0.98627  1.0000
  C   C261      1.0  0.80170  0.49946  0.08882  1.0000
  H   H442      1.0  0.74190  0.49799  0.18785  1.0000
  Fe  Fe37      1.0  0.60348  0.14505  0.36000  1.0000
  S   S75       1.0  0.54590  0.14984  0.37297  1.0000
  S   S76       1.0  0.63363  0.09211  0.35964  1.0000
  Fe  Fe38      1.0  0.61143  0.22566  0.34700  1.0000
  S   S77       1.0  0.55361  0.23552  0.35941  1.0000
  H   H443      1.0  0.72389  0.49229  0.55827  1.0000
  Fe  Fe39      1.0  0.56279  0.19918  0.39684  1.0000
  S   S78       1.0  0.55094  0.21383  0.44349  1.0000
  Fe  Fe40      1.0  0.54158  0.18557  0.33459  1.0000
  S   S79       1.0  0.62141  0.19246  0.38606  1.0000
  H   H444      1.0  0.74331  0.43164  0.46166  1.0000
  C   C262      1.0  0.77235  0.43433  0.55159  1.0000
  H   H445      1.0  0.58868  0.10250  0.42076  1.0000
  H   H446      1.0  0.62968  0.06289  0.42827  1.0000
  H   H447      1.0  0.84355  0.43828  0.53658  1.0000
  H   H448      1.0  0.71207  0.43449  0.52192  1.0000
  N   N19       1.0  0.59852  0.11122  0.46591  1.0000
  H   H449      1.0  0.56435  0.15140  0.48509  1.0000
  H   H450      1.0  0.55389  0.10714  0.49555  1.0000
  C   C263      1.0  0.78089  0.39411  0.55371  1.0000
  C   C264      1.0  0.57454  0.11135  0.44021  1.0000
  S   S80       1.0  0.64092  0.27680  0.33270  1.0000
  H   H451      1.0  0.86650  0.49729  0.44905  1.0000
  C   C265      1.0  0.61443  0.05094  0.37006  1.0000
  H   H452      1.0  0.67157  0.10405  0.44197  1.0000
  H   H453      1.0  0.64595  0.13941  0.48026  1.0000
  H   H454      1.0  0.67447  0.15049  0.43444  1.0000
  H   H455      1.0  0.80634  0.38686  0.54299  1.0000
  H   H456      1.0  0.70620  0.49672  0.52254  1.0000
  H   H457      1.0  0.74025  0.40314  0.50579  1.0000
  C   C266      1.0  0.83736  0.45219  0.51645  1.0000
  C   C267      1.0  0.51966  0.21312  0.49659  1.0000
  C   C268      1.0  0.79344  0.47773  0.35309  1.0000
  H   H458      1.0  0.61825  0.16438  0.45691  1.0000
  H   H459      1.0  0.79719  0.45333  0.34108  1.0000
  H   H460      1.0  0.69835  0.44149  0.47393  1.0000
  C   C269      1.0  0.57660  0.12531  0.49058  1.0000
  H   H461      1.0  0.79330  0.44889  0.56366  1.0000
  N   N20       1.0  0.76864  0.44914  0.52199  1.0000
  C   C270      1.0  0.76483  0.48916  0.52423  1.0000
  H   H462      1.0  0.79597  0.45153  0.39379  1.0000
  C   C271      1.0  0.51736  0.20068  0.46837  1.0000
  H   H463      1.0  0.53722  0.01416  0.39528  1.0000
  H   H464      1.0  0.74735  0.43856  0.56406  1.0000
  H   H465      1.0  0.61416  0.15467  0.51816  1.0000
  C   C272      1.0  0.56471  0.01562  0.38806  1.0000
  C   C273      1.0  0.63586  0.02008  0.37038  1.0000
  H   H466      1.0  0.63592  0.07649  0.48738  1.0000
  H   H467      1.0  0.86698  0.47833  0.41433  1.0000
  H   H468      1.0  0.64212  0.12471  0.41612  1.0000
  H   H469      1.0  0.66367  0.02182  0.36399  1.0000
  H   H470      1.0  0.88828  0.48799  0.36957  1.0000
  H   H471      1.0  0.75880  0.37732  0.54548  1.0000
  C   C274      1.0  0.81656  0.48007  0.63390  1.0000
  C   C275      1.0  0.73638  0.43244  0.50822  1.0000
  C   C276      1.0  0.59655  0.13082  0.51890  1.0000
  C   C277      1.0  0.61215  0.07443  0.47328  1.0000
  H   H472      1.0  0.85266  0.46028  0.60169  1.0000
  H   H473      1.0  0.56599  0.13912  0.43530  1.0000
  H   H474      1.0  0.73134  0.47491  0.47539  1.0000
  C   C278      1.0  0.72725  0.44588  0.47810  1.0000
  C   C279      1.0  0.79266  0.47676  0.38300  1.0000
  H   H475      1.0  0.64595  0.03315  0.45431  1.0000
  H   H476      1.0  0.79890  0.45394  0.48287  1.0000
  H   H477      1.0  0.54110  0.23114  0.50237  1.0000
  C   C280      1.0  0.65535  0.12798  0.43692  1.0000
  H   H478      1.0  0.78413  0.38717  0.57650  1.0000
  H   H479      1.0  0.61204  0.10696  0.52529  1.0000
  H   H480      1.0  0.56161  0.07169  0.37766  1.0000
  H   H481      1.0  0.57653  0.13614  0.53594  1.0000
  H   H482      1.0  0.80251  0.41167  0.49897  1.0000
  H   H483      1.0  0.94128  0.49289  0.39363  1.0000
  C   C281      1.0  0.62895  0.13704  0.46107  1.0000
  C   C282      1.0  0.80101  0.44072  0.50396  1.0000
  C   C283      1.0  0.57856  0.04836  0.37837  1.0000
  H   H484      1.0  0.85891  0.44524  0.50107  1.0000
  H   H485      1.0  0.59141  0.05972  0.48568  1.0000
  C   C284      1.0  0.62234  0.04942  0.44824  1.0000
  S   S81       1.0  0.59824  0.17754  0.32000  1.0000
  H   H486      1.0  0.54557  0.06119  0.45002  1.0000
  C   C285      1.0  0.54016  0.08869  0.44265  1.0000
  C   C286      1.0  0.83386  0.48116  0.60725  1.0000
  H   H487      1.0  0.83874  0.48140  0.51988  1.0000
  H   H488      1.0  0.66744  0.34657  0.31868  1.0000
  H   H489      1.0  0.60070  0.02977  0.44406  1.0000
  H   H490      1.0  0.59176  0.01431  0.32203  1.0000
  H   H491      1.0  0.52011  0.10164  0.45678  1.0000
  C   C287      1.0  0.68264  0.29102  0.31770  1.0000
  H   H492      1.0  0.52749  0.08669  0.42141  1.0000
  H   H493      1.0  0.90837  0.48478  0.43385  1.0000
  C   C288      1.0  0.88187  0.49633  0.42883  1.0000
  Fe  Fe41      1.0  0.59836  0.12603  0.84539  1.0000
  S   S82       1.0  0.54231  0.13127  0.86220  1.0000
  S   S83       1.0  0.62142  0.07278  0.83066  1.0000
  Fe  Fe42      1.0  0.61316  0.20734  0.84829  1.0000
  S   S84       1.0  0.55787  0.21754  0.86619  1.0000
  S   S85       1.0  0.64646  0.25886  0.84382  1.0000
  Fe  Fe43      1.0  0.56562  0.16955  0.89427  1.0000
  S   S86       1.0  0.55929  0.16438  0.94286  1.0000
  Fe  Fe44      1.0  0.53935  0.17857  0.83280  1.0000
  H   H494      1.0  0.77611  0.44269  0.83327  1.0000
  S   S87       1.0  0.62253  0.16179  0.87875  1.0000
  S   S88       1.0  0.59383  0.17089  0.81361  1.0000
  Fe  Fe45      1.0  0.78865  0.37728  0.74903  1.0000
  S   S89       1.0  0.76648  0.42897  0.73158  1.0000
  S   S90       1.0  0.75651  0.32474  0.75274  1.0000
  Fe  Fe46      1.0  0.86528  0.40918  0.75409  1.0000
  S   S91       1.0  0.84776  0.46256  0.73775  1.0000
  S   S92       1.0  0.92166  0.40400  0.77244  1.0000
  Fe  Fe47      1.0  0.79962  0.45501  0.76604  1.0000
  C   C289      1.0  0.62998  0.30802  0.97921  1.0000
  Fe  Fe48      1.0  0.81669  0.43240  0.70458  1.0000
  H   H495      1.0  0.57332  0.23276  0.70255  1.0000
  S   S93       1.0  0.81887  0.40350  0.78470  1.0000
  S   S94       1.0  0.83696  0.37870  0.71969  1.0000
  H   H496      1.0  0.58129  0.31275  0.71400  1.0000
  C   C290      1.0  0.96182  0.40101  0.75231  1.0000
  C   C291      1.0  0.96178  0.39364  0.72316  1.0000
  H   H497      1.0  0.55853  0.27778  0.91637  1.0000
  H   H498      1.0  0.93660  0.39030  0.71219  1.0000
  H   H499      1.0  0.63791  0.22680  0.70973  1.0000
  C   C292      1.0  0.78385  0.46629  0.84507  1.0000
  C   C293      1.0  0.61104  0.23845  0.75054  1.0000
  H   H500      1.0  0.57941  0.34302  0.77443  1.0000
  C   C294      1.0  0.66403  0.31714  0.90655  1.0000
  C   C295      1.0  0.59375  0.28595  0.71619  1.0000
  H   H501      1.0  0.87435  0.47250  0.89351  1.0000
  H   H502      1.0  0.54143  0.25311  0.94575  1.0000
  H   H503      1.0  0.66548  0.25105  0.73460  1.0000
  H   H504      1.0  0.86594  0.38372  0.85338  1.0000
  H   H505      1.0  0.62806  0.33287  0.96662  1.0000
  C   C296      1.0  0.55774  0.27547  0.75878  1.0000
  H   H506      1.0  0.57398  0.05506  0.87800  1.0000
  H   H507      1.0  0.54685  0.17112  0.76641  1.0000
  H   H508      1.0  0.54939  0.17207  0.71380  1.0000
  C   C297      1.0  0.67858  0.27588  0.81905  1.0000
  C   C298      1.0  0.69217  0.25543  0.79654  1.0000
  C   C299      1.0  0.71636  0.27073  0.77685  1.0000
  C   C300      1.0  0.72739  0.30661  0.77927  1.0000
  C   C301      1.0  0.71398  0.32697  0.80193  1.0000
  C   C302      1.0  0.68977  0.31170  0.82162  1.0000
  H   H509      1.0  0.68417  0.22781  0.79429  1.0000
  H   H510      1.0  0.72676  0.25460  0.75958  1.0000
  H   H511      1.0  0.72204  0.35459  0.80412  1.0000
  H   H512      1.0  0.67941  0.32795  0.83881  1.0000
  C   C303      1.0  0.60949  0.03185  0.84697  1.0000
  C   C304      1.0  0.66003  0.23985  0.92202  1.0000
  C   C305      1.0  0.57166  0.26120  0.69662  1.0000
  H   H513      1.0  0.61859  0.23379  0.77310  1.0000
  N   N21       1.0  0.91048  0.46614  0.85764  1.0000
  H   H514      1.0  0.59104  0.21728  0.74591  1.0000
  C   C306      1.0  0.52541  0.18088  0.72472  1.0000
  C   C307      1.0  0.88508  0.48834  0.84032  1.0000
  C   C308      1.0  0.86655  0.41292  0.85762  1.0000
  H   H515      1.0  0.68710  0.25173  0.91923  1.0000
  H   H516      1.0  0.58238  0.26255  0.67461  1.0000
  H   H517      1.0  0.84715  0.42516  0.84288  1.0000
  H   H518      1.0  0.62098  0.28960  0.70688  1.0000
  C   C309      1.0  0.55437  0.26821  0.79090  1.0000
  N   N22       1.0  0.63430  0.26618  0.93541  1.0000
  H   H519      1.0  0.91050  0.48603  0.79762  1.0000
  C   C310      1.0  0.62969  0.29679  0.91499  1.0000
  C   C311      1.0  0.90351  0.47418  0.88864  1.0000
  H   H520      1.0  0.52555  0.26777  0.79685  1.0000
  H   H521      1.0  0.91282  0.41921  0.83055  1.0000
  H   H522      1.0  0.56540  0.24178  0.79662  1.0000
  C   C312      1.0  0.66588  0.20465  0.93843  1.0000
  C   C313      1.0  0.99479  0.40510  0.76627  1.0000
  H   H523      1.0  0.91568  0.45371  0.90266  1.0000
  H   H524      1.0  0.85754  0.41706  0.87985  1.0000
  H   H525      1.0  0.65092  0.23245  0.90030  1.0000
  H   H526      1.0  0.61719  0.28699  0.89498  1.0000
  C   C314      1.0  0.56435  0.26980  0.93857  1.0000
  H   H527      1.0  0.99409  0.38331  0.68589  1.0000
  H   H528      1.0  0.68317  0.18677  0.92540  1.0000
  H   H529      1.0  0.87550  0.45339  0.80332  1.0000
  H   H530      1.0  0.67858  0.32777  0.92520  1.0000
  H   H531      1.0  0.68213  0.30054  0.89321  1.0000
  H   H532      1.0  0.62516  0.35609  0.77684  1.0000
  H   H533      1.0  0.56727  0.28925  0.80393  1.0000
  C   C315      1.0  0.52494  0.17549  0.96785  1.0000
  C   C316      1.0  0.58553  0.03059  0.86983  1.0000
  H   H534      1.0  0.95283  0.46809  0.82628  1.0000
  H   H535      1.0  0.65649  0.34038  0.89325  1.0000
  C   C317      1.0  0.97828  0.45636  0.86543  1.0000
  H   H536      1.0  0.54296  0.26905  0.69652  1.0000
  H   H537      1.0  0.60539  0.35292  0.74264  1.0000
  H   H538      1.0  0.85737  0.48499  0.84819  1.0000
  C   C318      1.0  0.90488  0.42680  0.85252  1.0000
  N   N23       1.0  0.59531  0.27530  0.74698  1.0000
  C   C319      1.0  0.61893  0.30135  0.76265  1.0000
  H   H539      1.0  0.59499  0.22634  0.92334  1.0000
  C   C320      1.0  0.60587  0.34039  0.76392  1.0000
  C   C321      1.0  0.64464  0.23022  0.73249  1.0000
  H   H540      1.0  0.62305  0.29266  0.78492  1.0000
  H   H541      1.0  0.64624  0.30207  0.75312  1.0000
  H   H542      1.0  0.98529  0.43057  0.85501  1.0000
  H   H543      1.0  0.78495  0.43925  0.88545  1.0000
  H   H544      1.0  0.65654  0.20465  0.73976  1.0000
  C   C322      1.0  0.59893  0.24722  0.93994  1.0000
  H   H545      1.0  0.68005  0.20915  0.95876  1.0000
  H   H546      1.0  0.54111  0.25489  0.74796  1.0000
  H   H547      1.0  0.92267  0.41074  0.86642  1.0000
  C   C323      1.0  0.78877  0.46443  0.87465  1.0000
  H   H548      1.0  0.97142  0.45107  0.88788  1.0000
  C   C324      1.0  0.52409  0.18047  0.75457  1.0000
  H   H549      1.0  0.54399  0.30116  0.75421  1.0000
  C   C325      1.0  0.94817  0.47540  0.84895  1.0000
  H   H550      1.0  0.59861  0.23261  0.96052  1.0000
  H   H551      1.0  0.86468  0.49903  0.79812  1.0000
  H   H552      1.0  0.51514  0.06584  0.97344  1.0000
  H   H553      1.0  0.61083  0.31713  0.92341  1.0000
  C   C326      1.0  0.78869  0.49867  0.83087  1.0000
  C   C327      1.0  0.88444  0.48088  0.80813  1.0000
  C   C328      1.0  0.65004  0.27814  0.96329  1.0000
  H   H554      1.0  0.64061  0.18990  0.94239  1.0000
  H   H555      1.0  0.67816  0.28723  0.96025  1.0000
  C   C329      1.0  0.79880  0.49480  0.89025  1.0000
  H   H556      1.0  0.50758  0.10352  0.69627  1.0000
  S   S95       1.0  0.82427  0.44276  0.65658  1.0000
  H   H557      1.0  0.99509  0.41065  0.78882  1.0000
  H   H558      1.0  0.64364  0.00071  0.81949  1.0000
  C   C330      1.0  0.99443  0.38966  0.70831  1.0000
  S   S96       1.0  0.80595  0.49087  0.92720  1.0000
  H   H559      1.0  0.65153  0.25543  0.97841  1.0000
  H   H560      1.0  0.56490  0.29387  0.95215  1.0000
  S   S97       1.0  0.55214  0.85058  0.28808  1.0000
  C   C331      1.0  0.90590  0.66075  0.08578  1.0000
  C   C332      1.0  0.71376  0.52864  0.24768  1.0000
  N   N24       1.0  0.57132  0.97014  0.29751  1.0000
  Fe  Fe49      1.0  0.82776  0.56491  0.01689  1.0000
  S   S98       1.0  0.83955  0.55661  0.06463  1.0000
  S   S99       1.0  0.83576  0.62171  0.00166  1.0000
  C   C333      1.0  0.82827  0.52550  0.09204  1.0000
  H   H561      1.0  0.76675  0.54953  0.25134  1.0000
  H   H562      1.0  0.69675  0.55257  0.24492  1.0000
  H   H563      1.0  0.86685  0.54768  0.12108  1.0000
  H   H564      1.0  0.81578  0.59878  0.21216  1.0000
  H   H565      1.0  0.51714  0.99002  0.30406  1.0000
  H   H566      1.0  0.70928  0.58620  0.20284  1.0000
  C   C334      1.0  0.52613  0.84900  0.23325  1.0000
  H   H567      1.0  0.77040  0.60597  0.24315  1.0000
  H   H568      1.0  0.70055  0.50498  0.23808  1.0000
  H   H569      1.0  0.55175  0.86046  0.22759  1.0000
  H   H570      1.0  0.70382  0.52565  0.19295  1.0000
  C   C335      1.0  0.56330  0.95902  0.26740  1.0000
  H   H571      1.0  0.82074  0.56094  0.23626  1.0000
  H   H572      1.0  0.95654  0.72195  0.01833  1.0000
  C   C336      1.0  0.81993  0.56956  0.21378  1.0000
  C   C337      1.0  0.73244  0.53680  0.15486  1.0000
  N   N25       1.0  0.75393  0.54991  0.20621  1.0000
  H   H573      1.0  0.85209  0.50650  0.16079  1.0000
  C   C338      1.0  0.79227  0.54885  0.19606  1.0000
  H   H574      1.0  0.51895  0.90984  0.03787  1.0000
  C   C339      1.0  0.58549  0.87102  0.01266  1.0000
  C   C340      1.0  0.94514  0.66691  0.07670  1.0000
  H   H575      1.0  0.64462  0.94975  0.28552  1.0000
  C   C341      1.0  0.74599  0.61192  0.23093  1.0000
  H   H576      1.0  0.80172  0.52066  0.19483  1.0000
  H   H577      1.0  0.50309  0.88522  0.00748  1.0000
  H   H578      1.0  0.89788  0.68175  0.10128  1.0000
  C   C342      1.0  0.59545  0.94311  0.31166  1.0000
  H   H579      1.0  0.59227  0.92768  0.01730  1.0000
  C   C343      1.0  0.50664  0.91215  0.01652  1.0000
  C   C344      1.0  0.52849  0.93723  0.99721  1.0000
  H   H580      1.0  0.74878  0.63988  0.22340  1.0000
  H   H581      1.0  0.50704  0.84794  0.18979  1.0000
  H   H582      1.0  0.94340  0.65897  0.00339  1.0000
  H   H583      1.0  0.58976  0.84985  0.99640  1.0000
  H   H584      1.0  0.75894  0.53302  0.14468  1.0000
  H   H585      1.0  0.97491  0.60275  0.03087  1.0000
  H   H586      1.0  0.90259  0.63422  0.09599  1.0000
  H   H587      1.0  0.91295  0.59802  0.01742  1.0000
  H   H588      1.0  0.72248  0.61214  0.24546  1.0000
  H   H589      1.0  0.55313  0.93104  0.26689  1.0000
  H   H590      1.0  0.96152  0.65415  0.09351  1.0000
  H   H591      1.0  0.84698  0.56409  0.20486  1.0000
  H   H592      1.0  0.55476  0.78893  0.01287  1.0000
  C   C345      1.0  0.58854  0.90853  0.99942  1.0000
  C   C346      1.0  0.73896  0.58734  0.20501  1.0000
  S   S100      1.0  0.78940  0.51262  0.30135  1.0000
  H   H593      1.0  0.90532  0.65819  0.02529  1.0000
  H   H594      1.0  0.76509  0.50718  0.23561  1.0000
  C   C347      1.0  0.92000  0.59446  0.04009  1.0000
  H   H595      1.0  0.74899  0.60135  0.18571  1.0000
  H   H596      1.0  0.60963  0.93374  0.24673  1.0000
  C   C348      1.0  0.99905  0.55558  0.99103  1.0000
  H   H597      1.0  0.55983  0.86646  0.02379  1.0000
  C   C349      1.0  0.51892  0.84082  0.26192  1.0000
  H   H598      1.0  0.95130  0.69583  0.07929  1.0000
  H   H599      1.0  0.50501  0.92668  0.29532  1.0000
  H   H600      1.0  0.79484  0.55980  0.17425  1.0000
  C   C350      1.0  0.84621  0.52775  0.11828  1.0000
  C   C351      1.0  0.51617  0.93528  0.31604  1.0000
  C   C352      1.0  0.73250  0.52621  0.18655  1.0000
  H   H601      1.0  0.53900  0.95831  0.01161  1.0000
  N   N26       1.0  0.95617  0.65324  0.04781  1.0000
  C   C353      1.0  0.53639  0.97110  0.31379  1.0000
  C   C354      1.0  0.93320  0.66818  0.02439  1.0000
  C   C355      1.0  0.95576  0.61287  0.04710  1.0000
  C   C356      1.0  0.99413  0.66537  0.04211  1.0000
  H   H602      1.0  0.89765  0.60390  0.05348  1.0000
  C   C357      1.0  0.93045  0.70923  0.02317  1.0000
  H   H603      1.0  0.88648  0.66328  0.06827  1.0000
  C   C358      1.0  0.53081  0.79630  0.00145  1.0000
  H   H604      1.0  0.71378  0.51890  0.14325  1.0000
  H   H605      1.0  0.71570  0.52327  0.27084  1.0000
  H   H606      1.0  0.91884  0.72059  0.04294  1.0000
  H   H607      1.0  0.92259  0.56524  0.04357  1.0000
  H   H608      1.0  0.91210  0.71655  0.00559  1.0000
  H   H609      1.0  0.61345  0.98188  0.24921  1.0000
  C   C359      1.0  0.75178  0.53377  0.23547  1.0000
  H   H610      1.0  0.99931  0.53018  0.00193  1.0000
  H   H611      1.0  0.72310  0.56456  0.15156  1.0000
  H   H612      1.0  0.99685  0.69471  0.04520  1.0000
  H   H613      1.0  0.54077  0.97466  0.25834  1.0000
  C   C360      1.0  0.83783  0.50443  0.14093  1.0000
  H   H614      1.0  0.60700  0.86762  0.02864  1.0000
  H   H615      1.0  0.96514  0.60168  0.06765  1.0000
  H   H616      1.0  0.58402  0.96311  0.22434  1.0000
  H   H617      1.0  0.58914  0.91558  0.30424  1.0000
  H   H618      1.0  0.61455  0.90817  0.98765  1.0000
  S   S101      1.0  0.77898  0.55761  0.98934  1.0000
  C   C361      1.0  0.59472  0.95941  0.24610  1.0000
  C   C362      1.0  0.63623  0.94792  0.30797  1.0000
  H   H619      1.0  0.56972  0.99833  0.98632  1.0000
  S   S102      1.0  0.50383  0.81489  0.05371  1.0000
  H   H620      1.0  0.61223  0.97510  0.98973  1.0000
  S   S103      1.0  0.86488  0.54163  0.98367  1.0000
  Fe  Fe50      1.0  0.57722  0.88807  0.38784  1.0000
  S   S104      1.0  0.52577  0.86609  0.37058  1.0000
  S   S105      1.0  0.56846  0.94521  0.40343  1.0000
  Fe  Fe51      1.0  0.61595  0.81530  0.38029  1.0000
  S   S106      1.0  0.56663  0.79004  0.36142  1.0000
  S   S107      1.0  0.66683  0.78054  0.38164  1.0000
  Fe  Fe52      1.0  0.55915  0.84068  0.33618  1.0000
  Fe  Fe53      1.0  0.53788  0.81816  0.39736  1.0000
  N   N27       1.0  0.57965  0.69053  0.41645  1.0000
  S   S108      1.0  0.61069  0.86451  0.35266  1.0000
  S   S109      1.0  0.58719  0.84138  0.41704  1.0000
  Fe  Fe54      1.0  0.77969  0.63413  0.47706  1.0000
  S   S110      1.0  0.75975  0.58088  0.49267  1.0000
  S   S111      1.0  0.73725  0.67881  0.47593  1.0000
  Fe  Fe55      1.0  0.79855  0.55654  0.46164  1.0000
  H   H621      1.0  0.87501  0.61405  0.35775  1.0000
  S   S112      1.0  0.81543  0.60929  0.44372  1.0000
  C   C363      1.0  0.98815  0.61418  0.46600  1.0000
  C   C364      1.0  0.54282  0.70541  0.41048  1.0000
  H   H622      1.0  0.79618  0.65469  0.57219  1.0000
  H   H623      1.0  0.61172  0.60242  0.41884  1.0000
  C   C365      1.0  0.95543  0.60833  0.51012  1.0000
  H   H624      1.0  0.93037  0.60729  0.52166  1.0000
  C   C366      1.0  0.52492  0.81053  0.50561  1.0000
  H   H625      1.0  0.59079  0.94274  0.33507  1.0000
  H   H626      1.0  0.67039  0.64837  0.55872  1.0000
  C   C367      1.0  0.68629  0.75282  0.40832  1.0000
  C   C368      1.0  0.71259  0.72766  0.40037  1.0000
  C   C369      1.0  0.72836  0.70470  0.42057  1.0000
  C   C370      1.0  0.71817  0.70668  0.44917  1.0000
  C   C371      1.0  0.69180  0.73178  0.45713  1.0000
  C   C372      1.0  0.67602  0.75470  0.43693  1.0000
  H   H627      1.0  0.72087  0.72592  0.37836  1.0000
  H   H628      1.0  0.74860  0.68569  0.41401  1.0000
  H   H629      1.0  0.68380  0.73385  0.47917  1.0000
  H   H630      1.0  0.65648  0.77434  0.44357  1.0000
  C   C373      1.0  0.57909  0.65030  0.41521  1.0000
  C   C374      1.0  0.58617  0.98480  0.38854  1.0000
  H   H631      1.0  0.73036  0.53232  0.53878  1.0000
  H   H632      1.0  0.51206  0.66092  0.39199  1.0000
  C   C375      1.0  0.78778  0.50820  0.39891  1.0000
  Fe  Fe56      1.0  0.85821  0.60711  0.47755  1.0000
  S   S113      1.0  0.84292  0.55277  0.49361  1.0000
  S   S114      1.0  0.91488  0.61723  0.46114  1.0000
  Fe  Fe57      1.0  0.80561  0.58143  0.52353  1.0000
  S   S115      1.0  0.79128  0.57064  0.57019  1.0000
  S   S116      1.0  0.82394  0.63625  0.50976  1.0000
  C   C376      1.0  0.80244  0.53584  0.59447  1.0000
  H   H633      1.0  0.67890  0.71033  0.55694  1.0000
  N   N28       1.0  0.90497  0.53784  0.38919  1.0000
  C   C377      1.0  0.95526  0.61260  0.48061  1.0000
  H   H634      1.0  0.53593  0.68727  0.36584  1.0000
  C   C378      1.0  0.96536  0.53714  0.41600  1.0000
  C   C379      1.0  0.78543  0.53499  0.62123  1.0000
  H   H635      1.0  0.77912  0.56495  0.39667  1.0000
  H   H636      1.0  0.97137  0.56592  0.41338  1.0000
  C   C380      1.0  0.52480  0.80881  0.47580  1.0000
  H   H637      1.0  0.76634  0.55556  0.62681  1.0000
  H   H638      1.0  0.86610  0.61443  0.39527  1.0000
  H   H639      1.0  0.54830  0.81673  0.46411  1.0000
  H   H640      1.0  0.60582  0.73591  0.39715  1.0000
  C   C381      1.0  0.77404  0.64739  0.61435  1.0000
  H   H641      1.0  0.64600  0.97159  0.31988  1.0000
  C   C382      1.0  0.58975  0.70105  0.44642  1.0000
  H   H642      1.0  0.92600  0.58113  0.36338  1.0000
  C   C383      1.0  0.51934  0.90621  0.47733  1.0000
  H   H643      1.0  0.77962  0.56662  0.34397  1.0000
  C   C384      1.0  0.60728  0.70631  0.39671  1.0000
  H   H644      1.0  0.63870  0.96366  0.38008  1.0000
  H   H645      1.0  0.85592  0.52173  0.36801  1.0000
  H   H646      1.0  0.69261  0.66096  0.52568  1.0000
  H   H647      1.0  0.61862  0.69573  0.45050  1.0000
  H   H648      1.0  0.59393  0.75948  0.43877  1.0000
  C   C385      1.0  0.82719  0.50901  0.58780  1.0000
  H   H649      1.0  0.80142  0.64250  0.62261  1.0000
  H   H650      1.0  0.95321  0.53264  0.43720  1.0000
  H   H651      1.0  0.54853  0.81999  0.51653  1.0000
  C   C386      1.0  0.79255  0.50745  0.64088  1.0000
  C   C387      1.0  0.78343  0.54148  0.35479  1.0000
  C   C388      1.0  0.94216  0.52247  0.39151  1.0000
  H   H652      1.0  0.55427  0.74565  0.45771  1.0000
  H   H653      1.0  0.54153  0.92309  0.46910  1.0000
  H   H654      1.0  0.75213  0.75145  0.57211  1.0000
  H   H655      1.0  0.76184  0.62076  0.61139  1.0000
  C   C389      1.0  0.78326  0.54060  0.38469  1.0000
  H   H656      1.0  0.92151  0.59172  0.39953  1.0000
  H   H657      1.0  0.95759  0.52731  0.37163  1.0000
  C   C390      1.0  0.88472  0.53449  0.41680  1.0000
  C   C391      1.0  0.90808  0.57691  0.38203  1.0000
  N   N29       1.0  0.74244  0.67692  0.57126  1.0000
  C   C392      1.0  0.77710  0.66906  0.58652  1.0000
  C   C393      1.0  0.75133  0.70129  0.54675  1.0000
  C   C394      1.0  0.72892  0.64186  0.55956  1.0000
  C   C395      1.0  0.71617  0.69313  0.59204  1.0000
  H   H658      1.0  0.52916  0.89293  0.49679  1.0000
  C   C396      1.0  0.76695  0.73815  0.55463  1.0000
  C   C397      1.0  0.69282  0.64246  0.54395  1.0000
  C   C398      1.0  0.68475  0.71505  0.57959  1.0000
  H   H659      1.0  0.98411  0.52370  0.64637  1.0000
  H   H660      1.0  0.79090  0.69409  0.59285  1.0000
  H   H661      1.0  0.72788  0.70640  0.53312  1.0000
  H   H662      1.0  0.77097  0.68820  0.53221  1.0000
  H   H663      1.0  0.74897  0.63021  0.54457  1.0000
  H   H664      1.0  0.72545  0.62178  0.57660  1.0000
  H   H665      1.0  0.70450  0.67189  0.60579  1.0000
  H   H666      1.0  0.73051  0.71161  0.60672  1.0000
  H   H667      1.0  0.85683  0.54447  0.41447  1.0000
  H   H668      1.0  0.52529  0.70303  0.42963  1.0000
  C   C399      1.0  0.52127  0.68813  0.38621  1.0000
  H   H669      1.0  0.76546  0.75583  0.53575  1.0000
  H   H670      1.0  0.88911  0.55253  0.32915  1.0000
  H   H671      1.0  0.79572  0.73616  0.56015  1.0000
  H   H672      1.0  0.68773  0.61541  0.53506  1.0000
  H   H673      1.0  0.68919  0.74409  0.58299  1.0000
  H   H674      1.0  0.63493  0.70079  0.40417  1.0000
  H   H675      1.0  0.63615  0.63980  0.40557  1.0000
  H   H676      1.0  0.99154  0.52306  0.41588  1.0000
  C   C400      1.0  0.62173  0.98706  0.37934  1.0000
  C   C401      1.0  0.98821  0.60643  0.52483  1.0000
  H   H677      1.0  0.62477  0.63673  0.44298  1.0000
  H   H678      1.0  0.55912  0.63969  0.43070  1.0000
  H   H679      1.0  0.65983  0.70856  0.59147  1.0000
  H   H680      1.0  0.59647  0.74635  0.47518  1.0000
  H   H681      1.0  0.57469  0.68479  0.46227  1.0000
  C   C402      1.0  0.58322  0.74048  0.45461  1.0000
  C   C403      1.0  0.61521  0.63176  0.42106  1.0000
  H   H682      1.0  0.65004  0.92436  0.31712  1.0000
  H   H683      1.0  0.54083  0.98090  0.33590  1.0000
  H   H684      1.0  0.58830  0.71422  0.35305  1.0000
  H   H685      1.0  0.53323  0.91377  0.32454  1.0000
  H   H686      1.0  0.75921  0.66219  0.63111  1.0000
  C   C404      1.0  0.78872  0.51012  0.33886  1.0000
  H   H687      1.0  0.84923  0.57929  0.37326  1.0000
  H   H688      1.0  0.92529  0.52029  0.33183  1.0000
  H   H689      1.0  0.54439  0.73453  0.40590  1.0000
  H   H690      1.0  0.56989  0.64019  0.39435  1.0000
  H   H691      1.0  0.89646  0.55188  0.43350  1.0000
  C   C405      1.0  0.60574  0.69573  0.36507  1.0000
  H   H692      1.0  0.63318  0.69756  0.35593  1.0000
  H   H693      1.0  0.59736  0.66790  0.36118  1.0000
  H   H694      1.0  0.99664  0.53831  0.61180  1.0000
  H   H695      1.0  0.98806  0.60395  0.54770  1.0000
  C   C406      1.0  0.89637  0.52501  0.33556  1.0000
  H   H696      1.0  0.98838  0.61797  0.44325  1.0000
  S   S117      1.0  0.78771  0.50612  0.43644  1.0000
  H   H697      1.0  0.84121  0.50967  0.56770  1.0000
  C   C407      1.0  0.87248  0.59690  0.37685  1.0000
  C   C408      1.0  0.88519  0.51730  0.36650  1.0000
  H   H698      1.0  0.51397  0.88603  0.46056  1.0000
  H   H699      1.0  0.76904  0.50224  0.50331  1.0000
  C   C409      1.0  0.72907  0.50281  0.53668  1.0000
  H   H700      1.0  0.78619  0.50058  0.53784  1.0000
  H   H701      1.0  0.88149  0.50665  0.32122  1.0000
  Fe  Fe58      1.0  0.58426  0.86736  0.87449  1.0000
  S   S118      1.0  0.53213  0.84492  0.85907  1.0000
  S   S119      1.0  0.58058  0.92520  0.88954  1.0000
  Fe  Fe59      1.0  0.62012  0.79238  0.87571  1.0000
  S   S120      1.0  0.56959  0.76537  0.86059  1.0000
  S   S121      1.0  0.67434  0.76364  0.88085  1.0000
  Fe  Fe60      1.0  0.56441  0.81071  0.82927  1.0000
  H   H702      1.0  0.90279  0.53323  0.88733  1.0000
  Fe  Fe61      1.0  0.54152  0.80223  0.89162  1.0000
  H   H703      1.0  0.66021  0.56280  0.85606  1.0000
  S   S122      1.0  0.61669  0.83614  0.84258  1.0000
  S   S123      1.0  0.59200  0.82608  0.90868  1.0000
  C   C410      1.0  0.72406  0.55889  0.92667  1.0000
  H   H704      1.0  0.62763  0.94232  0.84144  1.0000
  H   H705      1.0  0.80236  0.55426  0.83562  1.0000
  Fe  Fe62      1.0  0.81695  0.53940  0.95487  1.0000
  C   C411      1.0  0.53871  0.93146  0.81257  1.0000
  S   S124      1.0  0.82515  0.59377  0.93624  1.0000
  H   H706      1.0  0.63833  0.89969  0.76772  1.0000
  C   C412      1.0  0.79830  0.52918  0.84651  1.0000
  H   H707      1.0  0.54798  0.95956  0.81139  1.0000
  C   C413      1.0  0.57366  0.94886  0.96068  1.0000
  H   H708      1.0  0.58910  0.90718  0.80348  1.0000
  H   H709      1.0  0.70295  0.56861  0.94143  1.0000
  S   S125      1.0  0.55609  0.80301  0.78117  1.0000
  H   H710      1.0  0.53859  0.86641  0.97419  1.0000
  H   H711      1.0  0.55227  0.78047  0.96055  1.0000
  H   H712      1.0  0.68731  0.61836  0.91813  1.0000
  H   H713      1.0  0.57355  0.95626  0.73286  1.0000
  H   H714      1.0  0.50729  0.87357  0.93001  1.0000
  H   H715      1.0  0.59507  0.93718  0.94693  1.0000
  H   H716      1.0  0.55258  0.87851  0.79806  1.0000
  C   C414      1.0  0.68549  0.57791  0.85229  1.0000
  C   C415      1.0  0.70924  0.55490  0.83253  1.0000
  C   C416      1.0  0.69195  0.73234  0.90579  1.0000
  C   C417      1.0  0.72731  0.71988  0.90218  1.0000
  C   C418      1.0  0.74214  0.69415  0.92066  1.0000
  C   C419      1.0  0.72178  0.68045  0.94314  1.0000
  C   C420      1.0  0.68652  0.69312  0.94689  1.0000
  C   C421      1.0  0.67169  0.71884  0.92841  1.0000
  H   H717      1.0  0.74334  0.73019  0.88487  1.0000
  H   H718      1.0  0.76932  0.68499  0.91750  1.0000
  H   H719      1.0  0.69613  0.55223  0.81150  1.0000
  H   H720      1.0  0.64452  0.72805  0.93158  1.0000
  H   H721      1.0  0.67714  0.60124  0.83961  1.0000
  C   C422      1.0  0.59162  0.96557  0.87207  1.0000
  H   H722      1.0  0.65221  0.59188  0.90373  1.0000
  H   H723      1.0  0.81191  0.55061  0.88764  1.0000
  C   C423      1.0  0.73809  0.63762  0.85290  1.0000
  H   H724      1.0  0.71269  0.52736  0.84070  1.0000
  H   H725      1.0  0.63107  0.95848  0.75093  1.0000
  Fe  Fe63      1.0  0.78935  0.61286  0.97172  1.0000
  C   C424      1.0  0.62448  0.99980  0.83676  1.0000
  H   H726      1.0  0.74757  0.57680  0.92776  1.0000
  C   C425      1.0  0.58610  0.88767  0.74718  1.0000
  H   H727      1.0  0.75078  0.66231  0.86129  1.0000
  C   C426      1.0  0.62141  0.87678  0.76165  1.0000
  H   H728      1.0  0.64427  0.63782  0.86463  1.0000
  H   H729      1.0  0.75911  0.59071  0.87260  1.0000
  H   H730      1.0  0.57176  0.86201  0.74361  1.0000
  H   H731      1.0  0.59307  0.89769  0.72562  1.0000
  C   C427      1.0  0.65932  0.64320  0.88439  1.0000
  N   N30       1.0  0.55852  0.92067  0.98023  1.0000
  Fe  Fe64      1.0  0.87069  0.59745  0.96745  1.0000
  H   H732      1.0  0.63982  0.65510  0.89960  1.0000
  H   H733      1.0  0.74351  0.62305  0.89708  1.0000
  H   H734      1.0  0.63727  0.86006  0.74666  1.0000
  N   N31       1.0  0.56219  0.91395  0.76268  1.0000
  H   H735      1.0  0.56808  0.88111  0.94753  1.0000
  H   H736      1.0  0.55089  0.79663  0.72057  1.0000
  H   H737      1.0  0.73073  0.53842  0.88474  1.0000
  C   C428      1.0  0.52462  0.80412  0.72831  1.0000
  C   C429      1.0  0.80372  0.52717  0.87602  1.0000
  C   C430      1.0  0.54592  0.89024  0.96168  1.0000
  C   C431      1.0  0.52433  0.90874  0.75219  1.0000
  H   H738      1.0  0.75578  0.62831  0.83535  1.0000
  H   H739      1.0  0.99683  0.64755  0.95389  1.0000
  H   H740      1.0  0.68591  0.53709  0.89722  1.0000
  C   C432      1.0  0.61544  0.96673  0.84911  1.0000
  C   C433      1.0  0.73648  0.60934  0.87682  1.0000
  H   H741      1.0  0.71218  0.64583  0.84392  1.0000
  H   H742      1.0  0.99271  0.58473  0.88420  1.0000
  H   H743      1.0  0.61619  0.85981  0.78051  1.0000
  H   H744      1.0  0.73280  0.53241  0.93467  1.0000
  H   H745      1.0  0.55255  0.97136  0.76383  1.0000
  S   S126      1.0  0.92497  0.62001  0.95408  1.0000
  C   C434      1.0  0.67522  0.60931  0.89778  1.0000
  C   C435      1.0  0.57296  0.95185  0.75619  1.0000
  H   H746      1.0  0.52745  0.93349  0.70950  1.0000
  C   C436      1.0  0.60984  0.96426  0.76688  1.0000
  C   C437      1.0  0.96575  0.60160  0.96627  1.0000
  N   N32       1.0  0.70207  0.58858  0.88023  1.0000
  C   C438      1.0  0.71009  0.55447  0.89607  1.0000
  H   H747      1.0  0.67998  0.66387  0.88091  1.0000
  C   C439      1.0  0.52953  0.79164  0.97179  1.0000
  C   C440      1.0  0.51898  0.80819  0.75777  1.0000
  H   H748      1.0  0.73579  0.56713  0.82874  1.0000
  H   H749      1.0  0.54113  0.92327  0.83511  1.0000
  C   C441      1.0  0.99748  0.62165  0.96401  1.0000
  H   H750      1.0  0.51763  0.91964  0.92752  1.0000
  H   H751      1.0  0.67047  0.68287  0.96421  1.0000
  C   C442      1.0  0.56195  0.90633  0.79415  1.0000
  H   H752      1.0  0.89093  0.51729  0.84279  1.0000
  H   H753      1.0  0.55298  0.95917  0.94595  1.0000
  C   C443      1.0  0.59015  0.98206  0.97511  1.0000
  H   H754      1.0  0.61745  0.95254  0.78742  1.0000
  C   C444      1.0  0.57684  0.99764  0.88241  1.0000
  S   S127      1.0  0.73828  0.64686  0.96666  1.0000
  C   C445      1.0  0.51917  0.90814  0.71963  1.0000
  H   H755      1.0  0.77893  0.50699  0.66120  1.0000
  C   C446      1.0  0.51306  0.89783  0.94289  1.0000
  H   H756      1.0  0.53316  0.88534  0.70935  1.0000
  H   H757      1.0  0.51311  0.88327  0.76035  1.0000
  H   H758      1.0  0.55850  0.99706  0.90021  1.0000
  H   H759      1.0  0.50990  0.92955  0.80735  1.0000
  H   H760      1.0  0.60190  0.99939  0.95835  1.0000
  H   H761      1.0  0.90746  0.51451  0.92179  1.0000
  C   C447      1.0  0.96695  0.56807  0.97917  1.0000
  H   H762      1.0  0.94291  0.55218  0.98081  1.0000
  H   H763      1.0  0.50627  0.93003  0.76043  1.0000
  H   H764      1.0  0.94522  0.51425  0.89842  1.0000
  C   C448      1.0  0.91572  0.51127  0.89920  1.0000
  H   H765      1.0  0.95291  0.50475  0.84939  1.0000
  S   S128      1.0  0.78262  0.50197  0.79382  1.0000
  H   H766      1.0  0.60911  0.99354  0.77087  1.0000
  H   H767      1.0  0.50952  0.95186  0.98325  1.0000
  H   H768      1.0  0.50172  0.80713  0.68614  1.0000
