data_image0
_chemical_formula_structural       CHCFeHSH3SHSC2H2CHFeSH2CH5C6H7CH6C6H4C2HCNHC2H4CNHC2HCH2FeHSH2CH3C3H4S2CHCHCH2SCHC2HCNH5NH9CH2CH3C2H5CH4CHSHC2HCH2SHFeSFeCSHCH2CSHC2SCHFeSH5CSHC6H7CH2CH2SC6H5C3H5C3HSH4SHNHFeH3C2H4NC2H2CHSCH2CH3CH5CH2CSH6CFeH4CHCHSCS2CSFeSFeSHSCHFeS2FeSHSFeS2FeSHFe2HFeS2HSH4CHC6H4C6H6NC2HC6H4C6H4SH2CHCNCHCFeCH3FeH2SH6FeC3HCHCH2SH3C2HC2H2CH2SCH2FeH2CHCHCHCNCHCH4C3SH4CH2SNH3C2HCHC2NHSH2FeH2NCSH2CH3CHC3HCH5CH3C2H2CH3CH6C3H4CH3CH3CH4FeHCH2SH2SFeSFeSHSFeSFeS2FeS3FeS2FeSFeSFeCFeS2HSHSH2SHC6H4C6H4CH2C2HC6H4C6H3SC3FeHCNH2C3HCSH2C2H4SH4CHC2H4NCHC2HC3H2CHCH3FeCSCHC3H7C3HCH7CHSH3NCHC3H2C2H3CNH5CH4C2HCNCHC3H5NHCHC3HC2H2CH2FeHCHFe2HC4H9CHSHCHSHCHCH2CSH3C2H11CHC2H8CH2NHCH3NH14CSH2FeS2FeSHFeHFeS3FeS2FeC2SHFeS2HCSFe3SHSFeS2FeS2HSHC6HFeH2C6H4C6H4CH3CH2CH2C6H4C7H3C6H5NC4HC3H8CHSCH12CH3SCH5CH4CHNS2H7CH2CHCHCHCHC2HNCH2CH2C2HSHCHS2CHCH2CH5C2HCH4CH3CH2CH10SCHCH3SH4CNHNHSC2HCH3CH3SH3C2H2CH2FeS2HSHFeSFeS3FeS2FeSCSHFeS2HCH3FeSHSFeS2FeSHCSHC6H4C6H4C6H4CH4CHC2HC6H6C4NCH2C6H5C2HFeH2FeH3CHCH7NCHCH2CH3CHSH2FeH2NCH4SH2C2HSH4NHNC3HC2H7CHC2H2CH5CH3CH2CH4CH4CH5CHCH2CH4C3H2CH4CH3C2H2SC3H4C2NH5C2H3NHSCH2CFeH2FeCHCH2SC3H2CSCSH3CH2CH3S3HSFeS2FeCFeSHSCFeS2Fe2S2HCSHFeS2FeS2CSHFeS2FeSFeS3C6H4C6H4C6H7CHC2H3C6HCH2C6H4C6H7FeHC2HCNCH2CSH9CH4CHCH4SH3SC2HCH2CH2C3H3CH5CHCH4NC4HC2H2CHCH18SH2CH4SH4CNC5HC2H4NH3CH4CHCH4NC8HCH10CH9Fe2C2HSH2SH3Fe2H5C2H2CH3C2NH4SCS2FeS2Fe3SHS2FeS2HFeS2H2SHFeS2FeS2CSHFeS2FeSFeSHSC6H4C6H2CHC6H4CHC2HCH4C6H4C6H4C6H4SCHCHCH7C5H2CH8NCHCHCH4FeC4FeH4CH3CH3FeNC8H11CH7NCHC4H6CH3CH5NH3CHCH6NH2C2SH6CHNC2H6CHCHCSCHSHNHCH6C3H2C2H3CFeHSH5C2H3CSH7FeCSH2FeHNH6FeS2FeS2H3FeSHFeHFeS2FeS2HFeSH2SCH5FeC9H4C6H4C6H4C6H4CH3C2H4FeH4CHCH5CH2NHC5H2SHNCH2SFeS2HNCFeC2H2C2H2S2H5SC2H2CNFeH2SCH2CHCH2CHCH8CHSHCH3CH2C2H2CH2NHCH2SCH2CH3CHCHC2H2CH2C2HC3H6NH3CHCSCFeHC2HSH3NHFeH5CH2CH2CFeCHCS2CH4CFeS2FeS2HCFe2S2FeHFeS2FeS2HFeSHS2CHSCHCHCNHC6H4C6H4C6H4C6H6NHCHCHC2HSH2CHCH2CSH2C2H2C2H3CH3CH3FeH3C3H5CNH2CH3FeC3H3CH5CH2NHC2H2CNH2CH4CSHC2NCHC3SH9FeH8SC2H6C2H2CSHCSH2C2HCHC2SHCH8CH6CH2C2HCH8CHSHCH2CHC2HC4H3SH3S2H2C2HSHSH2C6H5CH2C6H4CH2C2H10CH4CHCHNCHCHCHCHFeH3SHCH5CHC2H4CH3C2HSH2C3HFeCNHCH7CH2CH7C2HCNHCSH5NSHC2HC6H4CH3C7H3C2H2FeHCHC2H3SHC4H2SH3CH4SH5NH11SCH2CHCH2SH2CSH2FeCH2CH2CH
_chemical_formula_sum              "C896 H1536 Fe128 S256 N64"
_cell_length_a       54.7418
_cell_length_b       54.6736
_cell_length_c       39.207
_cell_angle_alpha    90.1823
_cell_angle_beta     90.3971
_cell_angle_gamma    88.8009

_space_group_name_H-M_alt    "P 1"
_space_group_IT_number       1

loop_
  _space_group_symop_operation_xyz
  'x, y, z'

loop_
  _atom_site_type_symbol
  _atom_site_label
  _atom_site_symmetry_multiplicity
  _atom_site_fract_x
  _atom_site_fract_y
  _atom_site_fract_z
  _atom_site_occupancy
  C   C1        1.0  0.01876  0.45162  0.42579  1.0000
  H   H1        1.0  0.11658  0.35758  0.26085  1.0000
  C   C2        1.0  0.16226  0.00157  0.29790  1.0000
  Fe  Fe1       1.0  0.00815  0.11562  0.05838  1.0000
  H   H2        1.0  0.08682  0.48307  0.39891  1.0000
  S   S1        1.0  0.04420  0.10833  0.08622  1.0000
  H   H3        1.0  0.09364  0.37919  0.24739  1.0000
  H   H4        1.0  0.20120  0.35411  0.27577  1.0000
  H   H5        1.0  0.14564  0.00884  0.28463  1.0000
  S   S2        1.0  0.00245  0.33308  0.48384  1.0000
  H   H6        1.0  0.12987  0.41736  0.30702  1.0000
  S   S3        1.0  0.07537  0.42778  0.29426  1.0000
  C   C3        1.0  0.99001  0.03750  0.14419  1.0000
  C   C4        1.0  0.02631  0.14833  0.44436  1.0000
  H   H7        1.0  0.24149  0.00776  0.21645  1.0000
  H   H8        1.0  0.01464  0.12192  0.17380  1.0000
  C   C5        1.0  0.19074  0.36911  0.28857  1.0000
  H   H9        1.0  0.03633  0.05538  0.16742  1.0000
  Fe  Fe2       1.0  0.00913  0.34925  0.43181  1.0000
  S   S4        1.0  0.04806  0.35896  0.41824  1.0000
  H   H10       1.0  0.20207  0.38541  0.28541  1.0000
  H   H11       1.0  0.03394  0.44780  0.35071  1.0000
  C   C6        1.0  0.02423  0.43704  0.45872  1.0000
  H   H12       1.0  0.18942  0.36466  0.31612  1.0000
  H   H13       1.0  0.16924  0.43413  0.32202  1.0000
  H   H14       1.0  0.00128  0.46208  0.42911  1.0000
  H   H15       1.0  0.16616  0.36368  0.24582  1.0000
  H   H16       1.0  0.00362  0.02954  0.16229  1.0000
  C   C7        1.0  0.06774  0.40994  0.33005  1.0000
  C   C8        1.0  0.04445  0.39965  0.33141  1.0000
  C   C9        1.0  0.03789  0.38465  0.35885  1.0000
  C   C10       1.0  0.05495  0.37900  0.38449  1.0000
  C   C11       1.0  0.07837  0.38900  0.38288  1.0000
  C   C12       1.0  0.08467  0.40466  0.35601  1.0000
  H   H17       1.0  0.03133  0.40339  0.31122  1.0000
  H   H18       1.0  0.01988  0.37688  0.35968  1.0000
  H   H19       1.0  0.09167  0.38464  0.40262  1.0000
  H   H20       1.0  0.10266  0.41235  0.35528  1.0000
  H   H21       1.0  0.15729  0.41782  0.35709  1.0000
  H   H22       1.0  0.03490  0.16547  0.45310  1.0000
  H   H23       1.0  0.98849  0.13767  0.15728  1.0000
  C   C13       1.0  0.08815  0.00695  0.03322  1.0000
  H   H24       1.0  0.18794  0.39324  0.21832  1.0000
  H   H25       1.0  0.17798  0.01160  0.28748  1.0000
  H   H26       1.0  0.23927  0.45503  0.27131  1.0000
  H   H27       1.0  0.06984  0.44614  0.43183  1.0000
  H   H28       1.0  0.16248  0.41152  0.20128  1.0000
  H   H29       1.0  0.08174  0.33941  0.02488  1.0000
  C   C14       1.0  0.06842  0.03063  0.11825  1.0000
  C   C15       1.0  0.08219  0.05078  0.12801  1.0000
  C   C16       1.0  0.07494  0.07449  0.11733  1.0000
  C   C17       1.0  0.05393  0.07819  0.09694  1.0000
  C   C18       1.0  0.04061  0.05792  0.08656  1.0000
  C   C19       1.0  0.04778  0.03432  0.09728  1.0000
  H   H30       1.0  0.09819  0.04815  0.14403  1.0000
  H   H31       1.0  0.08544  0.09007  0.12532  1.0000
  H   H32       1.0  0.02465  0.06043  0.07049  1.0000
  H   H33       1.0  0.03711  0.01883  0.08953  1.0000
  C   C20       1.0  0.16834  0.41573  0.25684  1.0000
  C   C21       1.0  0.00977  0.07199  0.20300  1.0000
  H   H34       1.0  0.18484  0.41938  0.27238  1.0000
  C   C22       1.0  0.99697  0.24210  0.50111  1.0000
  N   N1        1.0  0.03880  0.46810  0.41424  1.0000
  H   H35       1.0  0.05564  0.47844  0.46252  1.0000
  C   C23       1.0  0.11033  0.37691  0.26346  1.0000
  C   C24       1.0  0.16510  0.37138  0.27212  1.0000
  H   H36       1.0  0.07332  0.02105  0.03093  1.0000
  H   H37       1.0  0.03882  0.42293  0.45454  1.0000
  H   H38       1.0  0.00045  0.21612  0.03504  1.0000
  H   H39       1.0  0.07487  0.99403  0.48950  1.0000
  C   C25       1.0  0.08495  0.98654  0.00616  1.0000
  N   N2        1.0  0.15276  0.39629  0.27231  1.0000
  H   H40       1.0  0.03636  0.08829  0.16736  1.0000
  C   C26       1.0  0.02336  0.46516  0.35175  1.0000
  C   C27       1.0  0.25959  0.48089  0.24174  1.0000
  H   H41       1.0  0.02982  0.47789  0.23019  1.0000
  C   C28       1.0  0.06141  0.45268  0.40749  1.0000
  H   H42       1.0  0.99105  0.13244  0.43978  1.0000
  H   H43       1.0  0.00963  0.05410  0.21655  1.0000
  Fe  Fe3       1.0  0.09916  0.46142  0.29368  1.0000
  H   H44       1.0  0.01468  0.43769  0.40582  1.0000
  S   S5        1.0  0.12979  0.47447  0.32684  1.0000
  H   H45       1.0  0.18177  0.40437  0.33330  1.0000
  H   H46       1.0  0.99558  0.36558  0.17606  1.0000
  C   C29       1.0  0.99906  0.19301  0.42154  1.0000
  H   H47       1.0  0.00760  0.42710  0.46619  1.0000
  H   H48       1.0  0.13393  0.38921  0.22432  1.0000
  H   H49       1.0  0.00056  0.11262  0.13366  1.0000
  C   C30       1.0  0.14528  0.40370  0.30801  1.0000
  C   C31       1.0  0.08175  0.46528  0.38752  1.0000
  C   C32       1.0  0.17753  0.41078  0.22033  1.0000
  H   H50       1.0  0.01899  0.19316  0.41611  1.0000
  H   H51       1.0  0.99755  0.19783  0.44899  1.0000
  H   H52       1.0  0.15812  0.43351  0.25645  1.0000
  H   H53       1.0  0.10459  0.38057  0.29007  1.0000
  S   S6        1.0  0.18950  0.47274  0.27518  1.0000
  S   S7        1.0  0.11973  0.46925  0.24577  1.0000
  C   C33       1.0  0.12974  0.39488  0.25093  1.0000
  H   H54       1.0  0.03115  0.13430  0.46380  1.0000
  C   C34       1.0  0.24402  0.98853  0.22229  1.0000
  H   H55       1.0  0.03436  0.14203  0.41994  1.0000
  C   C35       1.0  0.99720  0.11922  0.15995  1.0000
  H   H56       1.0  0.12060  0.41326  0.24896  1.0000
  H   H57       1.0  0.13827  0.38775  0.32228  1.0000
  S   S8        1.0  0.07544  0.00046  0.13186  1.0000
  C   C36       1.0  0.23831  0.47208  0.25741  1.0000
  H   H58       1.0  0.01647  0.16299  0.37573  1.0000
  C   C37       1.0  0.16480  0.41550  0.33099  1.0000
  C   C38       1.0  0.03414  0.07197  0.18348  1.0000
  H   H59       1.0  0.19023  0.42555  0.21332  1.0000
  C   C39       1.0  0.03024  0.48137  0.38256  1.0000
  N   N3        1.0  0.98859  0.16805  0.41462  1.0000
  H   H60       1.0  0.04957  0.07156  0.20203  1.0000
  H   H61       1.0  0.99191  0.36584  0.11590  1.0000
  H   H62       1.0  0.15377  0.35800  0.28590  1.0000
  H   H63       1.0  0.05678  0.43564  0.39375  1.0000
  H   H64       1.0  0.00404  0.07291  0.13268  1.0000
  N   N4        1.0  0.98662  0.07602  0.18233  1.0000
  H   H65       1.0  0.27664  0.47062  0.24359  1.0000
  H   H66       1.0  0.01113  0.08596  0.22361  1.0000
  H   H67       1.0  0.09843  0.45337  0.38779  1.0000
  H   H68       1.0  0.28119  0.99278  0.24061  1.0000
  H   H69       1.0  0.10534  0.01671  0.02818  1.0000
  H   H70       1.0  0.08935  0.00074  0.05989  1.0000
  H   H71       1.0  0.02931  0.44890  0.48047  1.0000
  H   H72       1.0  0.00055  0.41151  0.22136  1.0000
  H   H73       1.0  0.16026  0.00567  0.32542  1.0000
  C   C40       1.0  0.98826  0.06566  0.14670  1.0000
  H   H74       1.0  0.07647  0.46790  0.36040  1.0000
  H   H75       1.0  0.00361  0.46087  0.35200  1.0000
  C   C41       1.0  0.00297  0.39204  0.21433  1.0000
  H   H76       1.0  0.02291  0.38779  0.21541  1.0000
  H   H77       1.0  0.00565  0.12713  0.35067  1.0000
  H   H78       1.0  0.99170  0.15750  0.46754  1.0000
  C   C42       1.0  0.99825  0.15113  0.44212  1.0000
  C   C43       1.0  0.99656  0.16023  0.37941  1.0000
  H   H79       1.0  0.03666  0.99847  0.01939  1.0000
  H   H80       1.0  0.99418  0.44127  0.18072  1.0000
  H   H81       1.0  0.00857  0.25785  0.49969  1.0000
  H   H82       1.0  0.00592  0.39375  0.15947  1.0000
  H   H83       1.0  0.98796  0.17237  0.35985  1.0000
  C   C44       1.0  0.99095  0.13387  0.36792  1.0000
  H   H84       1.0  0.02764  0.47479  0.32766  1.0000
  H   H85       1.0  0.99558  0.03220  0.11796  1.0000
  H   H86       1.0  0.98859  0.21198  0.37353  1.0000
  H   H87       1.0  0.99774  0.23151  0.40776  1.0000
  C   C45       1.0  0.98753  0.21468  0.40149  1.0000
  H   H88       1.0  0.99065  0.12033  0.38871  1.0000
  S   S9        1.0  0.12553  0.99119  0.21366  1.0000
  H   H89       1.0  0.99436  0.38061  0.23411  1.0000
  C   C46       1.0  0.99315  0.38583  0.17830  1.0000
  C   C47       1.0  0.99488  0.22835  0.01466  1.0000
  H   H90       1.0  0.20690  0.99100  0.31991  1.0000
  C   C48       1.0  0.00120  0.25328  0.01589  1.0000
  H   H91       1.0  0.01164  0.25996  0.03737  1.0000
  H   H92       1.0  0.01978  0.98507  0.05321  1.0000
  S   S10       1.0  0.00380  0.12325  0.00221  1.0000
  H   H93       1.0  0.07547  0.99425  0.64369  1.0000
  Fe  Fe4       1.0  0.99564  0.33509  0.96034  1.0000
  S   S11       1.0  0.12232  0.01876  0.64028  1.0000
  Fe  Fe5       1.0  0.99772  0.07904  0.55694  1.0000
  C   C49       1.0  0.03373  0.45445  0.94384  1.0000
  S   S12       1.0  0.01666  0.04504  0.57956  1.0000
  H   H94       1.0  0.03879  0.25550  0.95042  1.0000
  C   C50       1.0  0.05468  0.26608  0.95959  1.0000
  H   H95       1.0  0.07289  0.99467  0.98598  1.0000
  H   H96       1.0  0.10197  0.28436  0.91715  1.0000
  C   C51       1.0  0.29249  0.46950  0.64494  1.0000
  S   S13       1.0  0.09850  0.44813  0.78516  1.0000
  H   H97       1.0  0.00748  0.04217  0.65049  1.0000
  C   C52       1.0  0.05913  0.46513  0.93683  1.0000
  C   C53       1.0  0.99107  0.19946  0.51881  1.0000
  S   S14       1.0  0.01648  0.36758  0.97963  1.0000
  C   C54       1.0  0.00569  0.22033  0.51689  1.0000
  H   H98       1.0  0.26147  0.00512  0.77109  1.0000
  Fe  Fe6       1.0  0.02371  0.37679  0.92491  1.0000
  S   S15       1.0  0.06202  0.39061  0.91562  1.0000
  H   H99       1.0  0.12255  0.32769  0.93821  1.0000
  H   H100      1.0  0.04005  0.47287  0.87401  1.0000
  H   H101      1.0  0.04272  0.00374  0.52599  1.0000
  H   H102      1.0  0.05112  0.27045  0.98677  1.0000
  H   H103      1.0  0.11685  0.00604  0.53674  1.0000
  C   C55       1.0  0.99407  0.26960  0.98973  1.0000
  S   S16       1.0  0.00354  0.17192  0.53688  1.0000
  H   H104      1.0  0.07371  0.35392  0.98569  1.0000
  C   C56       1.0  0.08773  0.43393  0.82253  1.0000
  C   C57       1.0  0.10265  0.43113  0.85141  1.0000
  C   C58       1.0  0.09443  0.41787  0.87968  1.0000
  C   C59       1.0  0.07107  0.40767  0.87968  1.0000
  C   C60       1.0  0.05586  0.41100  0.85117  1.0000
  C   C61       1.0  0.06432  0.42380  0.82255  1.0000
  H   H105      1.0  0.12083  0.43854  0.85151  1.0000
  H   H106      1.0  0.10635  0.41533  0.90156  1.0000
  H   H107      1.0  0.03789  0.40315  0.85080  1.0000
  H   H108      1.0  0.05279  0.42563  0.80014  1.0000
  H   H109      1.0  0.08700  0.34334  0.93190  1.0000
  H   H110      1.0  0.07095  0.25378  0.95745  1.0000
  H   H111      1.0  0.98873  0.35922  0.74276  1.0000
  C   C62       1.0  0.07302  0.31362  0.98447  1.0000
  H   H112      1.0  0.02401  0.21959  0.52743  1.0000
  H   H113      1.0  0.09403  0.31574  0.87985  1.0000
  C   C63       1.0  0.03689  0.98569  0.53545  1.0000
  H   H114      1.0  0.25582  0.48307  0.63523  1.0000
  H   H115      1.0  0.22480  0.98942  0.74091  1.0000
  S   S17       1.0  0.00337  0.30068  0.99241  1.0000
  C   C64       1.0  0.09246  0.02680  0.62564  1.0000
  C   C65       1.0  0.08851  0.04896  0.60805  1.0000
  C   C66       1.0  0.06528  0.05530  0.59449  1.0000
  C   C67       1.0  0.04582  0.03940  0.59827  1.0000
  C   C68       1.0  0.04963  0.01755  0.61653  1.0000
  C   C69       1.0  0.07278  0.01128  0.63018  1.0000
  H   H116      1.0  0.10362  0.06113  0.60448  1.0000
  H   H117      1.0  0.06261  0.07219  0.58052  1.0000
  H   H118      1.0  0.03468  0.00515  0.61967  1.0000
  H   H119      1.0  0.05929  0.28251  0.91084  1.0000
  H   H120      1.0  0.13915  0.30036  0.93170  1.0000
  C   C70       1.0  0.04304  0.48343  0.75937  1.0000
  C   C71       1.0  0.00359  0.05004  0.71916  1.0000
  C   C72       1.0  0.10097  0.29359  0.94249  1.0000
  H   H121      1.0  0.08687  0.00996  0.55491  1.0000
  H   H122      1.0  0.07578  0.34279  0.87348  1.0000
  H   H123      1.0  0.02700  0.48049  0.77557  1.0000
  H   H124      1.0  0.05316  0.31534  0.99030  1.0000
  H   H125      1.0  0.02345  0.98948  0.55602  1.0000
  C   C73       1.0  0.09702  0.00784  0.53086  1.0000
  C   C74       1.0  0.26176  0.47384  0.74619  1.0000
  C   C75       1.0  0.07382  0.32899  0.92519  1.0000
  H   H126      1.0  0.03387  0.07676  0.67985  1.0000
  S   S18       1.0  0.99026  0.40073  0.92007  1.0000
  H   H127      1.0  0.06091  0.31427  0.87585  1.0000
  H   H128      1.0  0.13026  0.30857  0.97448  1.0000
  H   H129      1.0  0.10351  0.33950  0.99124  1.0000
  H   H130      1.0  0.00859  0.02434  0.76106  1.0000
  S   S19       1.0  0.00575  0.34253  0.90561  1.0000
  H   H131      1.0  0.08322  0.47411  0.87582  1.0000
  N   N5        1.0  0.07673  0.30666  0.94746  1.0000
  H   H132      1.0  0.09371  0.02542  0.51726  1.0000
  Fe  Fe7       1.0  0.98667  0.13379  0.53909  1.0000
  H   H133      1.0  0.98764  0.34479  0.69082  1.0000
  H   H134      1.0  0.04908  0.46516  0.74972  1.0000
  H   H135      1.0  0.99355  0.09714  0.70281  1.0000
  C   C76       1.0  0.98846  0.04287  0.66003  1.0000
  C   C77       1.0  0.99343  0.03118  0.74444  1.0000
  H   H136      1.0  0.02444  0.10615  0.66386  1.0000
  H   H137      1.0  0.99060  0.10378  0.90011  1.0000
  H   H138      1.0  0.10298  0.27814  0.96077  1.0000
  H   H139      1.0  0.98550  0.01507  0.73182  1.0000
  N   N6        1.0  0.98655  0.05904  0.69118  1.0000
  C   C78       1.0  0.01950  0.08656  0.66486  1.0000
  C   C79       1.0  0.07635  0.32473  0.88647  1.0000
  H   H140      1.0  0.05565  0.33788  0.92966  1.0000
  H   H141      1.0  0.02056  0.04180  0.70804  1.0000
  C   C80       1.0  0.12426  0.30864  0.94735  1.0000
  H   H142      1.0  0.28623  0.45472  0.66200  1.0000
  S   S20       1.0  0.00514  0.10235  0.51114  1.0000
  C   C81       1.0  0.05681  0.28925  0.93741  1.0000
  H   H143      1.0  0.99231  0.13572  0.90873  1.0000
  H   H144      1.0  0.26440  0.45418  0.74705  1.0000
  C   C82       1.0  0.98671  0.48027  0.73579  1.0000
  H   H145      1.0  0.06918  0.44994  0.92371  1.0000
  H   H146      1.0  0.02056  0.46784  0.95480  1.0000
  H   H147      1.0  0.03861  0.29881  0.93767  1.0000
  C   C83       1.0  0.23805  0.48409  0.75038  1.0000
  H   H148      1.0  0.02584  0.44651  0.92020  1.0000
  H   H149      1.0  0.22268  0.47234  0.75437  1.0000
  H   H150      1.0  0.01001  0.06554  0.73518  1.0000
  H   H151      1.0  0.28497  0.48144  0.54986  1.0000
  H   H152      1.0  0.99637  0.00568  0.67849  1.0000
  C   C84       1.0  0.08843  0.98649  0.50821  1.0000
  H   H153      1.0  0.01972  0.07991  0.63810  1.0000
  H   H154      1.0  0.31027  0.47550  0.65513  1.0000
  C   C85       1.0  0.99384  0.08442  0.68061  1.0000
  S   S21       1.0  0.31121  0.47470  0.73341  1.0000
  H   H155      1.0  0.03580  0.43914  0.96230  1.0000
  H   H156      1.0  0.98529  0.34735  0.64565  1.0000
  H   H157      1.0  0.29494  0.46140  0.61920  1.0000
  H   H158      1.0  0.00075  0.46537  0.73522  1.0000
  H   H159      1.0  0.99331  0.16950  0.87247  1.0000
  H   H160      1.0  0.99480  0.37325  0.66946  1.0000
  C   C86       1.0  0.26175  0.98664  0.76112  1.0000
  Fe  Fe8       1.0  0.12199  0.48195  0.78727  1.0000
  H   H161      1.0  0.29279  0.98778  0.64388  1.0000
  H   H162      1.0  0.06861  0.46733  0.96187  1.0000
  H   H163      1.0  0.10749  0.46559  0.93078  1.0000
  H   H164      1.0  0.26116  0.48089  0.58000  1.0000
  C   C87       1.0  0.10732  0.48341  0.91741  1.0000
  H   H165      1.0  0.12307  0.48290  0.89966  1.0000
  C   C88       1.0  0.08386  0.33798  0.99677  1.0000
  H   H166      1.0  0.08033  0.29899  0.00166  1.0000
  S   S22       1.0  0.29801  0.94345  0.26230  1.0000
  C   C89       1.0  0.10650  0.95440  0.06655  1.0000
  S   S23       1.0  0.05669  0.83846  0.45928  1.0000
  S   S24       1.0  0.03053  0.88982  0.02679  1.0000
  C   C90       1.0  0.06840  0.94745  0.49921  1.0000
  S   S25       1.0  0.01578  0.82863  0.39963  1.0000
  Fe  Fe9       1.0  0.02475  0.81341  0.45175  1.0000
  S   S26       1.0  0.02991  0.77139  0.45349  1.0000
  Fe  Fe10      1.0  0.04588  0.85513  0.40870  1.0000
  S   S27       1.0  0.07198  0.85832  0.36435  1.0000
  H   H167      1.0  0.11785  0.67236  0.09417  1.0000
  S   S28       1.0  0.02103  0.88411  0.43104  1.0000
  C   C91       1.0  0.03159  0.94058  0.25139  1.0000
  H   H168      1.0  0.11743  0.97102  0.06313  1.0000
  Fe  Fe11      1.0  0.12343  0.93003  0.16445  1.0000
  S   S29       1.0  0.09000  0.94848  0.18552  1.0000
  S   S30       1.0  0.12062  0.89665  0.13015  1.0000
  Fe  Fe12      1.0  0.11231  0.95505  0.23249  1.0000
  S   S31       1.0  0.09591  0.95601  0.28554  1.0000
  H   H169      1.0  0.19784  0.51726  0.23489  1.0000
  S   S32       1.0  0.14493  0.93315  0.21387  1.0000
  Fe  Fe13      1.0  0.10108  0.50622  0.24746  1.0000
  S   S33       1.0  0.13189  0.52347  0.27729  1.0000
  S   S34       1.0  0.07877  0.51389  0.19949  1.0000
  Fe  Fe14      1.0  0.11088  0.51137  0.32366  1.0000
  S   S35       1.0  0.10850  0.53216  0.37378  1.0000
  H   H170      1.0  0.15797  0.91390  0.32905  1.0000
  Fe  Fe15      1.0  0.15761  0.96898  0.19297  1.0000
  Fe  Fe16      1.0  0.00951  0.64848  0.03086  1.0000
  H   H171      1.0  0.03039  0.69114  0.12594  1.0000
  Fe  Fe17      1.0  0.04268  0.61080  0.06662  1.0000
  S   S36       1.0  0.02974  0.57905  0.03514  1.0000
  S   S37       1.0  0.06982  0.61065  0.11047  1.0000
  H   H172      1.0  0.23519  0.53289  0.20739  1.0000
  S   S38       1.0  0.01113  0.56765  0.44857  1.0000
  H   H173      1.0  0.00407  0.51028  0.13129  1.0000
  H   H174      1.0  0.31208  0.89516  0.23890  1.0000
  H   H175      1.0  0.03052  0.51506  0.47480  1.0000
  H   H176      1.0  0.03863  0.96054  0.29909  1.0000
  C   C92       1.0  0.10792  0.67842  0.11734  1.0000
  H   H177      1.0  0.01132  0.88363  0.22991  1.0000
  C   C93       1.0  0.08120  0.54269  0.39335  1.0000
  C   C94       1.0  0.05852  0.54174  0.37678  1.0000
  C   C95       1.0  0.03714  0.54961  0.39380  1.0000
  C   C96       1.0  0.03834  0.55887  0.42726  1.0000
  C   C97       1.0  0.06105  0.56006  0.44364  1.0000
  C   C98       1.0  0.08234  0.55196  0.42676  1.0000
  H   H178      1.0  0.05750  0.53503  0.35084  1.0000
  H   H179      1.0  0.01964  0.54876  0.38091  1.0000
  H   H180      1.0  0.06223  0.56708  0.46943  1.0000
  H   H181      1.0  0.09983  0.55288  0.43970  1.0000
  C   C99       1.0  0.07739  0.54100  0.17513  1.0000
  C   C100      1.0  0.08926  0.56229  0.18512  1.0000
  C   C101      1.0  0.08690  0.58359  0.16510  1.0000
  C   C102      1.0  0.07250  0.58377  0.13526  1.0000
  C   C103      1.0  0.06052  0.56251  0.12554  1.0000
  C   C104      1.0  0.06315  0.54119  0.14522  1.0000
  H   H182      1.0  0.10027  0.56232  0.20814  1.0000
  H   H183      1.0  0.09626  0.59997  0.17276  1.0000
  H   H184      1.0  0.04949  0.56237  0.10259  1.0000
  H   H185      1.0  0.05412  0.52473  0.13714  1.0000
  H   H186      1.0  0.99069  0.88549  0.30170  1.0000
  H   H187      1.0  0.29793  0.91618  0.15123  1.0000
  N   N7        1.0  0.99266  0.52657  0.19901  1.0000
  C   C105      1.0  0.02788  0.72204  0.46707  1.0000
  C   C106      1.0  0.01091  0.88382  0.30136  1.0000
  H   H188      1.0  0.03893  0.71994  0.44443  1.0000
  C   C107      1.0  0.08981  0.92880  0.30759  1.0000
  C   C108      1.0  0.07750  0.93012  0.33889  1.0000
  C   C109      1.0  0.07176  0.90866  0.35664  1.0000
  C   C110      1.0  0.07870  0.88580  0.34335  1.0000
  C   C111      1.0  0.09131  0.88457  0.31229  1.0000
  C   C112      1.0  0.09667  0.90597  0.29429  1.0000
  H   H189      1.0  0.07217  0.94777  0.34929  1.0000
  H   H190      1.0  0.06212  0.90976  0.38060  1.0000
  H   H191      1.0  0.09676  0.86692  0.30195  1.0000
  H   H192      1.0  0.10611  0.90475  0.27016  1.0000
  C   C113      1.0  0.05542  0.89025  0.05592  1.0000
  C   C114      1.0  0.05334  0.90455  0.08562  1.0000
  C   C115      1.0  0.07324  0.90686  0.10824  1.0000
  C   C116      1.0  0.09528  0.89428  0.10195  1.0000
  C   C117      1.0  0.09716  0.87940  0.07274  1.0000
  C   C118      1.0  0.07742  0.87757  0.04961  1.0000
  H   H193      1.0  0.03633  0.91421  0.09093  1.0000
  H   H194      1.0  0.07139  0.91817  0.13071  1.0000
  H   H195      1.0  0.11409  0.86950  0.06774  1.0000
  H   H196      1.0  0.03487  0.65882  0.12389  1.0000
  S   S39       1.0  0.00500  0.62539  0.07812  1.0000
  H   H197      1.0  0.09748  0.94849  0.46015  1.0000
  H   H198      1.0  0.08360  0.70716  0.13570  1.0000
  C   C119      1.0  0.27011  0.95539  0.24432  1.0000
  H   H199      1.0  0.14050  0.97775  0.36389  1.0000
  C   C120      1.0  0.09221  0.70180  0.11107  1.0000
  N   N8        1.0  0.01700  0.91787  0.25686  1.0000
  C   C121      1.0  0.02380  0.89945  0.22961  1.0000
  H   H200      1.0  0.98809  0.95773  0.22528  1.0000
  C   C122      1.0  0.02281  0.90819  0.29198  1.0000
  Fe  Fe18      1.0  0.01466  0.58805  0.49890  1.0000
  C   C123      1.0  0.05023  0.88896  0.23102  1.0000
  H   H201      1.0  0.04272  0.67779  0.06855  1.0000
  H   H202      1.0  0.14659  0.92655  0.28902  1.0000
  H   H203      1.0  0.09510  0.67879  0.04726  1.0000
  Fe  Fe19      1.0  0.99227  0.59536  0.04362  1.0000
  H   H204      1.0  0.14645  0.96636  0.29165  1.0000
  H   H205      1.0  0.08300  0.75178  0.09769  1.0000
  S   S40       1.0  0.19600  0.98463  0.20110  1.0000
  H   H206      1.0  0.00277  0.48946  0.18444  1.0000
  H   H207      1.0  0.02753  0.50956  0.18566  1.0000
  H   H208      1.0  0.17023  0.97189  0.26336  1.0000
  H   H209      1.0  0.27913  0.53938  0.34869  1.0000
  H   H210      1.0  0.04785  0.94804  0.05233  1.0000
  H   H211      1.0  0.99791  0.53909  0.11138  1.0000
  Fe  Fe20      1.0  0.02924  0.86540  0.48123  1.0000
  C   C124      1.0  0.27559  0.88987  0.17526  1.0000
  C   C125      1.0  0.02647  0.96200  0.27634  1.0000
  C   C126      1.0  0.00182  0.73784  0.01897  1.0000
  H   H212      1.0  0.09697  0.66306  0.12694  1.0000
  C   C127      1.0  0.07022  0.70040  0.01711  1.0000
  H   H213      1.0  0.09953  0.92216  0.48831  1.0000
  C   C128      1.0  0.08628  0.69727  0.04938  1.0000
  H   H214      1.0  0.27934  0.87347  0.15932  1.0000
  H   H215      1.0  0.99391  0.74124  0.04379  1.0000
  S   S41       1.0  0.99789  0.83936  0.47711  1.0000
  H   H216      1.0  0.29261  0.92211  0.19502  1.0000
  H   H217      1.0  0.06407  0.90325  0.22775  1.0000
  H   H218      1.0  0.02145  0.90763  0.20380  1.0000
  C   C129      1.0  0.02091  0.55721  0.22937  1.0000
  C   C130      1.0  0.04450  0.67648  0.12281  1.0000
  H   H219      1.0  0.07673  0.92390  0.45586  1.0000
  C   C131      1.0  0.22463  0.97246  0.21630  1.0000
  C   C132      1.0  0.16496  0.97391  0.29064  1.0000
  H   H220      1.0  0.21374  0.93498  0.21926  1.0000
  H   H221      1.0  0.99501  0.53405  0.25350  1.0000
  C   C133      1.0  0.17602  0.96078  0.35044  1.0000
  H   H222      1.0  0.14642  0.94896  0.38304  1.0000
  H   H223      1.0  0.23527  0.94243  0.31151  1.0000
  S   S42       1.0  0.04808  0.63544  0.02137  1.0000
  C   C134      1.0  0.04506  0.48687  0.44107  1.0000
  H   H224      1.0  0.25962  0.89980  0.16383  1.0000
  H   H225      1.0  0.07929  0.86644  0.02690  1.0000
  Fe  Fe21      1.0  0.99158  0.85646  0.42543  1.0000
  H   H226      1.0  0.00498  0.77641  0.00717  1.0000
  H   H227      1.0  0.26994  0.88439  0.20123  1.0000
  C   C135      1.0  0.99639  0.54370  0.22878  1.0000
  H   H228      1.0  0.00017  0.77781  0.39305  1.0000
  C   C136      1.0  0.09447  0.94620  0.03299  1.0000
  H   H229      1.0  0.04282  0.90582  0.29558  1.0000
  C   C137      1.0  0.25866  0.50287  0.22348  1.0000
  H   H230      1.0  0.04178  0.72125  0.06526  1.0000
  C   C138      1.0  0.05441  0.96612  0.04377  1.0000
  N   N9        1.0  0.18291  0.96012  0.31319  1.0000
  C   C139      1.0  0.16260  0.91828  0.30229  1.0000
  H   H231      1.0  0.03094  0.50778  0.24769  1.0000
  C   C140      1.0  0.23620  0.51586  0.22137  1.0000
  H   H232      1.0  0.08728  0.92763  0.03749  1.0000
  H   H233      1.0  0.19966  0.92376  0.31512  1.0000
  H   H234      1.0  0.29536  0.50018  0.33453  1.0000
  H   H235      1.0  0.11960  0.93977  0.07492  1.0000
  C   C141      1.0  0.22958  0.95904  0.32602  1.0000
  C   C142      1.0  0.02079  0.70101  0.48507  1.0000
  C   C143      1.0  0.28618  0.54616  0.32392  1.0000
  S   S43       1.0  0.13872  0.96410  0.14192  1.0000
  H   H236      1.0  0.09331  0.95677  0.08767  1.0000
  H   H237      1.0  0.05737  0.67646  0.14471  1.0000
  H   H238      1.0  0.16650  0.90052  0.28936  1.0000
  H   H239      1.0  0.02442  0.56448  0.25540  1.0000
  C   C144      1.0  0.98987  0.92319  0.25431  1.0000
  H   H240      1.0  0.12187  0.68226  0.13726  1.0000
  H   H241      1.0  0.10526  0.71658  0.10551  1.0000
  S   S44       1.0  0.28485  0.51535  0.20344  1.0000
  N   N10       1.0  0.07330  0.70006  0.08307  1.0000
  H   H242      1.0  0.08020  0.74695  0.05213  1.0000
  H   H243      1.0  0.25323  0.92009  0.24427  1.0000
  H   H244      1.0  0.03658  0.54511  0.22245  1.0000
  C   C145      1.0  0.05745  0.67816  0.08808  1.0000
  C   C146      1.0  0.01876  0.49492  0.23425  1.0000
  H   H245      1.0  0.06810  0.66082  0.08422  1.0000
  C   C147      1.0  0.22828  0.94766  0.22403  1.0000
  H   H246      1.0  0.08439  0.65514  0.48636  1.0000
  C   C148      1.0  0.25078  0.93926  0.23810  1.0000
  C   C149      1.0  0.07028  0.74705  0.07665  1.0000
  N   N11       1.0  0.07465  0.96265  0.01817  1.0000
  H   H247      1.0  0.05484  0.95730  0.48274  1.0000
  S   S45       1.0  0.07899  0.49749  0.29384  1.0000
  H   H248      1.0  0.01690  0.87858  0.32755  1.0000
  H   H249      1.0  0.25887  0.52334  0.29792  1.0000
  Fe  Fe22      1.0  0.10566  0.98298  0.16455  1.0000
  H   H250      1.0  0.18581  0.94584  0.36456  1.0000
  H   H251      1.0  0.22626  0.95436  0.35305  1.0000
  N   N12       1.0  0.31057  0.53411  0.31611  1.0000
  C   C150      1.0  0.21492  0.50704  0.23698  1.0000
  S   S46       1.0  0.99740  0.68890  0.03501  1.0000
  H   H252      1.0  0.29513  0.50307  0.28940  1.0000
  H   H253      1.0  0.05144  0.93638  0.25413  1.0000
  C   C151      1.0  0.14847  0.95925  0.35887  1.0000
  H   H254      1.0  0.05739  0.50086  0.43045  1.0000
  H   H255      1.0  0.01671  0.86865  0.28425  1.0000
  H   H256      1.0  0.99665  0.75589  0.35987  1.0000
  C   C152      1.0  0.26659  0.98010  0.23610  1.0000
  H   H257      1.0  0.04849  0.72517  0.10899  1.0000
  C   C153      1.0  0.02073  0.74570  0.47794  1.0000
  C   C154      1.0  0.30621  0.50697  0.31267  1.0000
  C   C155      1.0  0.03178  0.98085  0.03112  1.0000
  H   H258      1.0  0.98704  0.93041  0.19891  1.0000
  C   C156      1.0  0.08693  0.93505  0.47474  1.0000
  H   H259      1.0  0.25020  0.55477  0.30220  1.0000
  H   H260      1.0  0.02074  0.97001  0.01293  1.0000
  H   H261      1.0  0.28751  0.56613  0.32767  1.0000
  H   H262      1.0  0.02632  0.68301  0.47613  1.0000
  H   H263      1.0  0.04380  0.49483  0.37399  1.0000
  C   C157      1.0  0.05727  0.72281  0.08367  1.0000
  H   H264      1.0  0.21175  0.97442  0.28177  1.0000
  H   H265      1.0  0.05408  0.87857  0.25477  1.0000
  H   H266      1.0  0.10439  0.98136  0.49212  1.0000
  C   C158      1.0  0.29746  0.90723  0.17666  1.0000
  C   C159      1.0  0.26595  0.54221  0.29690  1.0000
  H   H267      1.0  0.01713  0.92166  0.31191  1.0000
  H   H268      1.0  0.02999  0.94739  0.22470  1.0000
  C   C160      1.0  0.18548  0.93413  0.30041  1.0000
  H   H269      1.0  0.27217  0.54601  0.27064  1.0000
  H   H270      1.0  0.10151  0.71035  0.04733  1.0000
  H   H271      1.0  0.19166  0.93398  0.27339  1.0000
  C   C161      1.0  0.21579  0.48502  0.25507  1.0000
  H   H272      1.0  0.05284  0.87587  0.20954  1.0000
  H   H273      1.0  0.24546  0.97138  0.32541  1.0000
  H   H274      1.0  0.01146  0.48905  0.47188  1.0000
  H   H275      1.0  0.01500  0.54821  0.16544  1.0000
  H   H276      1.0  0.06066  0.97514  0.06747  1.0000
  H   H277      1.0  0.05632  0.76208  0.07511  1.0000
  C   C162      1.0  0.00574  0.71353  0.00790  1.0000
  C   C163      1.0  0.01040  0.50501  0.19916  1.0000
  C   C164      1.0  0.99616  0.54109  0.16672  1.0000
  H   H278      1.0  0.13711  0.94986  0.33973  1.0000
  H   H279      1.0  0.02037  0.57311  0.21179  1.0000
  H   H280      1.0  0.01222  0.51116  0.43760  1.0000
  H   H281      1.0  0.31468  0.58282  0.29710  1.0000
  C   C165      1.0  0.02330  0.50109  0.45690  1.0000
  H   H282      1.0  0.00732  0.96322  0.28507  1.0000
  H   H283      1.0  0.30588  0.86756  0.21662  1.0000
  H   H284      1.0  0.18218  0.97817  0.36231  1.0000
  C   C166      1.0  0.20736  0.97213  0.30917  1.0000
  H   H285      1.0  0.01373  0.49287  0.38794  1.0000
  H   H286      1.0  0.10980  0.94366  0.01478  1.0000
  H   H287      1.0  0.02994  0.97957  0.26326  1.0000
  C   C167      1.0  0.99250  0.52712  0.13282  1.0000
  H   H288      1.0  0.05464  0.68787  0.01683  1.0000
  H   H289      1.0  0.06324  0.71944  0.01390  1.0000
  H   H290      1.0  0.31339  0.53330  0.26122  1.0000
  H   H291      1.0  0.30424  0.57360  0.25522  1.0000
  Fe  Fe23      1.0  0.14916  0.48559  0.27868  1.0000
  H   H292      1.0  0.00352  0.49032  0.25120  1.0000
  C   C168      1.0  0.98690  0.77051  0.37445  1.0000
  H   H293      1.0  0.19100  0.90550  0.75604  1.0000
  H   H294      1.0  0.26174  0.54569  0.60581  1.0000
  S   S47       1.0  0.05999  0.83979  0.96306  1.0000
  H   H295      1.0  0.09642  0.71076  0.62106  1.0000
  H   H296      1.0  0.29891  0.93624  0.75598  1.0000
  S   S48       1.0  0.03234  0.83792  0.88948  1.0000
  Fe  Fe24      1.0  0.02783  0.82004  0.94071  1.0000
  S   S49       1.0  0.02521  0.77810  0.93754  1.0000
  Fe  Fe25      1.0  0.06212  0.85971  0.91292  1.0000
  S   S50       1.0  0.09647  0.86360  0.88152  1.0000
  H   H297      1.0  0.19511  0.89111  0.83227  1.0000
  S   S51       1.0  0.03697  0.89066  0.92798  1.0000
  Fe  Fe26      1.0  0.17483  0.95192  0.69909  1.0000
  S   S52       1.0  0.21529  0.94144  0.70924  1.0000
  Fe  Fe27      1.0  0.13113  0.92807  0.66205  1.0000
  S   S53       1.0  0.10367  0.95579  0.68108  1.0000
  S   S54       1.0  0.12347  0.89575  0.62752  1.0000
  Fe  Fe28      1.0  0.12387  0.95248  0.73112  1.0000
  S   S55       1.0  0.10308  0.95378  0.78080  1.0000
  S   S56       1.0  0.15869  0.95560  0.64611  1.0000
  S   S57       1.0  0.14881  0.92218  0.71340  1.0000
  Fe  Fe29      1.0  0.11434  0.53396  0.76086  1.0000
  S   S58       1.0  0.14703  0.54764  0.78914  1.0000
  S   S59       1.0  0.08509  0.55766  0.73561  1.0000
  Fe  Fe30      1.0  0.13477  0.52485  0.83284  1.0000
  S   S60       1.0  0.13532  0.53696  0.88800  1.0000
  Fe  Fe31      1.0  0.16663  0.51329  0.77075  1.0000
  S   S61       1.0  0.10044  0.51413  0.80655  1.0000
  Fe  Fe32      1.0  0.00743  0.63661  0.53646  1.0000
  C   C169      1.0  0.28200  0.48874  0.74042  1.0000
  Fe  Fe33      1.0  0.04758  0.60028  0.55908  1.0000
  S   S62       1.0  0.02553  0.56757  0.54609  1.0000
  S   S63       1.0  0.08528  0.59419  0.58182  1.0000
  H   H298      1.0  0.03721  0.96134  0.75329  1.0000
  S   S64       1.0  0.03964  0.59406  0.93649  1.0000
  H   H299      1.0  0.16735  0.90017  0.81192  1.0000
  S   S65       1.0  0.01737  0.61951  0.58717  1.0000
  H   H300      1.0  0.00336  0.55069  0.70489  1.0000
  H   H301      1.0  0.99857  0.52076  0.57175  1.0000
  S   S66       1.0  0.99951  0.84849  0.95646  1.0000
  H   H302      1.0  0.07940  0.86536  0.52719  1.0000
  C   C170      1.0  0.10929  0.55378  0.90150  1.0000
  C   C171      1.0  0.09126  0.56109  0.87804  1.0000
  C   C172      1.0  0.07021  0.57374  0.88922  1.0000
  C   C173      1.0  0.06700  0.57923  0.92390  1.0000
  C   C174      1.0  0.08509  0.57209  0.94745  1.0000
  C   C175      1.0  0.10622  0.55939  0.93622  1.0000
  H   H303      1.0  0.09359  0.55726  0.85119  1.0000
  H   H304      1.0  0.05635  0.57935  0.87088  1.0000
  H   H305      1.0  0.08273  0.57624  0.97424  1.0000
  H   H306      1.0  0.12012  0.55379  0.95449  1.0000
  C   C176      1.0  0.08628  0.56775  0.69291  1.0000
  C   C177      1.0  0.10599  0.56210  0.67151  1.0000
  C   C178      1.0  0.10574  0.57038  0.63745  1.0000
  C   C179      1.0  0.08552  0.58371  0.62445  1.0000
  C   C180      1.0  0.06586  0.58912  0.64590  1.0000
  C   C181      1.0  0.06649  0.58165  0.68007  1.0000
  H   H307      1.0  0.12143  0.55152  0.68122  1.0000
  H   H308      1.0  0.12109  0.56621  0.62105  1.0000
  H   H309      1.0  0.05034  0.59955  0.63646  1.0000
  H   H310      1.0  0.05146  0.58670  0.69659  1.0000
  C   C182      1.0  0.01815  0.75381  0.96593  1.0000
  H   H311      1.0  0.00893  0.52398  0.65374  1.0000
  H   H312      1.0  0.20172  0.56422  0.80225  1.0000
  C   C183      1.0  0.02191  0.72950  0.95484  1.0000
  C   C184      1.0  0.28918  0.97455  0.66447  1.0000
  H   H313      1.0  0.02462  0.54728  0.80654  1.0000
  C   C185      1.0  0.10203  0.92855  0.80857  1.0000
  C   C186      1.0  0.08703  0.93023  0.83737  1.0000
  C   C187      1.0  0.08493  0.91028  0.85953  1.0000
  C   C188      1.0  0.09832  0.88867  0.85356  1.0000
  C   C189      1.0  0.11361  0.88706  0.82497  1.0000
  C   C190      1.0  0.11522  0.90685  0.80224  1.0000
  H   H314      1.0  0.07671  0.94695  0.84234  1.0000
  H   H315      1.0  0.07317  0.91172  0.88146  1.0000
  H   H316      1.0  0.12392  0.87032  0.82015  1.0000
  H   H317      1.0  0.12657  0.90524  0.77988  1.0000
  C   C191      1.0  0.05680  0.89023  0.55639  1.0000
  C   C192      1.0  0.05563  0.90516  0.58562  1.0000
  C   C193      1.0  0.07594  0.90715  0.60760  1.0000
  C   C194      1.0  0.09752  0.89396  0.60066  1.0000
  C   C195      1.0  0.09850  0.87866  0.57182  1.0000
  C   C196      1.0  0.07830  0.87695  0.54957  1.0000
  H   H318      1.0  0.03894  0.91528  0.59121  1.0000
  H   H319      1.0  0.07488  0.91873  0.62997  1.0000
  H   H320      1.0  0.11507  0.86825  0.56646  1.0000
  S   S67       1.0  0.99308  0.61962  0.99741  1.0000
  C   C197      1.0  0.24098  0.95397  0.73084  1.0000
  C   C198      1.0  0.26215  0.93918  0.73524  1.0000
  C   C199      1.0  0.28296  0.94799  0.75248  1.0000
  Fe  Fe34      1.0  0.99446  0.58759  0.57174  1.0000
  H   H321      1.0  0.26239  0.92066  0.72540  1.0000
  C   C200      1.0  0.01294  0.88831  0.74786  1.0000
  N   N13       1.0  0.19234  0.92997  0.82072  1.0000
  H   H322      1.0  0.18994  0.87536  0.77298  1.0000
  H   H323      1.0  0.04890  0.87526  0.70747  1.0000
  C   C201      1.0  0.21948  0.93349  0.81715  1.0000
  C   C202      1.0  0.17804  0.94590  0.79595  1.0000
  C   C203      1.0  0.99670  0.90243  0.72213  1.0000
  H   H324      1.0  0.09088  0.64034  0.52590  1.0000
  C   C204      1.0  0.22992  0.95784  0.82996  1.0000
  S   S68       1.0  0.03963  0.61947  0.50925  1.0000
  H   H325      1.0  0.26255  0.50623  0.55102  1.0000
  H   H326      1.0  0.05441  0.51208  0.84911  1.0000
  C   C205      1.0  0.02495  0.53171  0.66699  1.0000
  C   C206      1.0  0.19558  0.55835  0.85696  1.0000
  H   H327      1.0  0.22983  0.91866  0.83079  1.0000
  H   H328      1.0  0.22492  0.93201  0.78994  1.0000
  H   H329      1.0  0.18635  0.94482  0.77020  1.0000
  H   H330      1.0  0.25813  0.54847  0.67163  1.0000
  S   S69       1.0  0.20481  0.52361  0.75204  1.0000
  H   H331      1.0  0.25193  0.54400  0.74228  1.0000
  H   H332      1.0  0.07554  0.73566  0.56940  1.0000
  H   H333      1.0  0.05920  0.70289  0.60727  1.0000
  H   H334      1.0  0.18665  0.51373  0.88210  1.0000
  C   C207      1.0  0.29059  0.50741  0.59141  1.0000
  H   H335      1.0  0.24993  0.95752  0.82523  1.0000
  C   C208      1.0  0.03941  0.48954  0.89052  1.0000
  C   C209      1.0  0.15745  0.93095  0.86472  1.0000
  H   H336      1.0  0.01293  0.49413  0.58942  1.0000
  H   H337      1.0  0.02364  0.92616  0.78320  1.0000
  H   H338      1.0  0.04037  0.69198  0.57447  1.0000
  H   H339      1.0  0.05097  0.95357  0.56144  1.0000
  N   N14       1.0  0.07857  0.68259  0.56729  1.0000
  C   C210      1.0  0.05849  0.97055  0.55042  1.0000
  H   H340      1.0  0.22234  0.58084  0.82937  1.0000
  C   C211      1.0  0.07749  0.65850  0.58609  1.0000
  C   C212      1.0  0.10360  0.69334  0.57052  1.0000
  H   H341      1.0  0.99900  0.79841  0.88168  1.0000
  C   C213      1.0  0.23685  0.55127  0.88429  1.0000
  C   C214      1.0  0.07097  0.65937  0.62428  1.0000
  C   C215      1.0  0.28297  0.97188  0.76540  1.0000
  H   H342      1.0  0.25060  0.55493  0.86418  1.0000
  H   H343      1.0  0.18235  0.52096  0.94154  1.0000
  C   C216      1.0  0.00640  0.74805  0.50724  1.0000
  H   H344      1.0  0.24626  0.53835  0.90222  1.0000
  C   C217      1.0  0.99458  0.50262  0.71509  1.0000
  H   H345      1.0  0.00477  0.90339  0.69636  1.0000
  H   H346      1.0  0.11786  0.67963  0.56292  1.0000
  H   H347      1.0  0.10612  0.70853  0.55207  1.0000
  Fe  Fe35      1.0  0.03223  0.86918  0.97640  1.0000
  C   C218      1.0  0.09926  0.95047  0.54432  1.0000
  S   S70       1.0  0.15054  0.98216  0.72001  1.0000
  C   C219      1.0  0.03863  0.51195  0.86664  1.0000
  H   H348      1.0  0.08136  0.69601  0.99424  1.0000
  C   C220      1.0  0.24088  0.97778  0.74403  1.0000
  C   C221      1.0  0.03936  0.94366  0.73948  1.0000
  C   C222      1.0  0.00812  0.75786  0.99827  1.0000
  H   H349      1.0  0.05134  0.66421  0.62786  1.0000
  H   H350      1.0  0.11989  0.68694  0.62117  1.0000
  H   H351      1.0  0.02442  0.94274  0.72049  1.0000
  H   H352      1.0  0.10302  0.98333  0.99389  1.0000
  H   H353      1.0  0.05469  0.67117  0.52620  1.0000
  H   H354      1.0  0.29955  0.93985  0.68392  1.0000
  H   H355      1.0  0.07519  0.69436  0.51440  1.0000
  C   C223      1.0  0.00637  0.70336  0.51426  1.0000
  C   C224      1.0  0.24555  0.53817  0.65493  1.0000
  C   C225      1.0  0.99916  0.72702  0.52510  1.0000
  H   H356      1.0  0.07180  0.93488  0.93727  1.0000
  C   C226      1.0  0.01587  0.70951  0.97565  1.0000
  H   H357      1.0  0.05529  0.72558  0.53561  1.0000
  H   H358      1.0  0.05004  0.96114  0.97445  1.0000
  H   H359      1.0  0.08245  0.67191  0.63922  1.0000
  H   H360      1.0  0.98804  0.72909  0.54767  1.0000
  H   H361      1.0  0.02200  0.51106  0.85035  1.0000
  H   H362      1.0  0.03286  0.50179  0.97794  1.0000
  H   H363      1.0  0.12289  0.94853  0.58883  1.0000
  C   C227      1.0  0.06010  0.51065  0.93912  1.0000
  H   H364      1.0  0.15930  0.93880  0.79194  1.0000
  S   S71       1.0  0.03135  0.88967  0.52841  1.0000
  H   H365      1.0  0.29370  0.52588  0.73579  1.0000
  H   H366      1.0  0.04317  0.73677  0.57460  1.0000
  H   H367      1.0  0.19091  0.59061  0.82477  1.0000
  N   N15       1.0  0.03887  0.89676  0.75198  1.0000
  C   C228      1.0  0.05143  0.87988  0.77736  1.0000
  H   H368      1.0  0.02136  0.48936  0.90319  1.0000
  C   C229      1.0  0.23315  0.57579  0.90353  1.0000
  C   C230      1.0  0.03931  0.92263  0.76572  1.0000
  C   C231      1.0  0.03930  0.87799  0.81264  1.0000
  H   H369      1.0  0.12504  0.71684  0.60349  1.0000
  H   H370      1.0  0.09319  0.92473  0.96878  1.0000
  C   C232      1.0  0.20339  0.57437  0.82671  1.0000
  C   C233      1.0  0.19343  0.53455  0.92782  1.0000
  H   H371      1.0  0.07039  0.88581  0.78259  1.0000
  H   H372      1.0  0.08692  0.89974  0.69348  1.0000
  H   H373      1.0  0.18132  0.55077  0.92389  1.0000
  C   C234      1.0  0.18731  0.90352  0.81227  1.0000
  N   N16       1.0  0.07888  0.96427  0.52603  1.0000
  H   H374      1.0  0.03524  0.54905  0.71327  1.0000
  H   H375      1.0  0.05573  0.92545  0.78189  1.0000
  H   H376      1.0  0.03501  0.89616  0.82402  1.0000
  H   H377      1.0  0.05211  0.86837  0.83039  1.0000
  H   H378      1.0  0.98705  0.77421  0.85706  1.0000
  C   C235      1.0  0.00986  0.52736  0.76301  1.0000
  H   H379      1.0  0.09432  0.95566  0.95195  1.0000
  H   H380      1.0  0.10988  0.66487  0.51099  1.0000
  H   H381      1.0  0.31261  0.55270  0.60837  1.0000
  H   H382      1.0  0.99298  0.53908  0.76119  1.0000
  C   C236      1.0  0.19707  0.89395  0.77773  1.0000
  C   C237      1.0  0.03913  0.50106  0.72882  1.0000
  H   H383      1.0  0.98848  0.82830  0.83455  1.0000
  C   C238      1.0  0.06391  0.94942  0.98782  1.0000
  N   N17       1.0  0.21438  0.53973  0.86912  1.0000
  C   C239      1.0  0.22186  0.52438  0.83867  1.0000
  H   H384      1.0  0.04785  0.53342  0.78069  1.0000
  C   C240      1.0  0.20252  0.52292  0.89429  1.0000
  C   C241      1.0  0.27367  0.49331  0.56688  1.0000
  C   C242      1.0  0.23949  0.50256  0.84597  1.0000
  H   H385      1.0  0.17857  0.54908  0.84890  1.0000
  H   H386      1.0  0.00292  0.88962  0.77245  1.0000
  H   H387      1.0  0.00527  0.51316  0.78175  1.0000
  H   H388      1.0  0.20547  0.51694  0.82555  1.0000
  H   H389      1.0  0.23119  0.53566  0.81928  1.0000
  N   N18       1.0  0.01606  0.51669  0.72848  1.0000
  H   H390      1.0  0.07386  0.64081  0.63524  1.0000
  C   C243      1.0  0.11143  0.70219  0.60625  1.0000
  H   H391      1.0  0.08939  0.88069  0.73023  1.0000
  C   C244      1.0  0.03653  0.51621  0.95904  1.0000
  C   C245      1.0  0.02983  0.54300  0.77982  1.0000
  C   C246      1.0  0.98891  0.80821  0.83040  1.0000
  H   H392      1.0  0.15192  0.91163  0.86233  1.0000
  C   C247      1.0  0.18487  0.93398  0.85733  1.0000
  C   C248      1.0  0.05851  0.72582  0.56351  1.0000
  H   H393      1.0  0.29035  0.56530  0.63807  1.0000
  H   H394      1.0  0.06409  0.52727  0.92418  1.0000
  C   C249      1.0  0.17508  0.97346  0.80448  1.0000
  H   H395      1.0  0.24704  0.49565  0.82145  1.0000
  H   H396      1.0  0.05820  0.93242  0.51138  1.0000
  Fe  Fe36      1.0  0.13201  0.98328  0.66826  1.0000
  H   H397      1.0  0.04462  0.90666  0.69881  1.0000
  C   C250      1.0  0.25778  0.52936  0.62157  1.0000
  H   H398      1.0  0.30856  0.49749  0.59328  1.0000
  Fe  Fe37      1.0  0.03147  0.60496  0.99098  1.0000
  Fe  Fe38      1.0  0.00664  0.86798  0.90678  1.0000
  H   H399      1.0  0.18964  0.95228  0.86697  1.0000
  C   C251      1.0  0.27331  0.49051  0.64493  1.0000
  C   C252      1.0  0.23429  0.50944  0.74871  1.0000
  C   C253      1.0  0.25458  0.52435  0.74341  1.0000
  C   C254      1.0  0.10679  0.95957  0.58010  1.0000
  H   H400      1.0  0.01284  0.86861  0.74038  1.0000
  H   H401      1.0  0.19526  0.92115  0.87438  1.0000
  H   H402      1.0  0.02702  0.97569  0.51516  1.0000
  H   H403      1.0  0.22777  0.96050  0.85780  1.0000
  H   H404      1.0  0.26951  0.49476  0.67214  1.0000
  H   H405      1.0  0.15547  0.97905  0.80247  1.0000
  H   H406      1.0  0.09515  0.64811  0.58398  1.0000
  H   H407      1.0  0.09430  0.93100  0.54790  1.0000
  H   H408      1.0  0.99830  0.49534  0.68912  1.0000
  C   C255      1.0  0.01961  0.53801  0.70468  1.0000
  H   H409      1.0  0.08509  0.91330  0.73518  1.0000
  S   S72       1.0  0.99697  0.67758  0.53833  1.0000
  H   H410      1.0  0.29473  0.52729  0.67395  1.0000
  C   C256      1.0  0.30568  0.95145  0.66256  1.0000
  H   H411      1.0  0.22840  0.59099  0.88590  1.0000
  S   S73       1.0  0.15615  0.49119  0.81697  1.0000
  H   H412      1.0  0.22979  0.48707  0.85757  1.0000
  C   C257      1.0  0.27829  0.51413  0.73952  1.0000
  H   H413      1.0  0.00763  0.80339  0.82143  1.0000
  C   C258      1.0  0.29969  0.52612  0.64656  1.0000
  H   H414      1.0  0.25524  0.50772  0.86217  1.0000
  H   H415      1.0  0.99186  0.92096  0.73186  1.0000
  C   C259      1.0  0.07376  0.67750  0.52996  1.0000
  S   S74       1.0  0.13408  0.50114  0.73930  1.0000
  H   H416      1.0  0.29041  0.98343  0.68990  1.0000
  H   H417      1.0  0.02896  0.54890  0.65322  1.0000
  H   H418      1.0  0.05322  0.86095  0.76685  1.0000
  C   C260      1.0  0.99497  0.50218  0.58155  1.0000
  C   C261      1.0  0.08370  0.48816  0.89641  1.0000
  H   H419      1.0  0.03171  0.56086  0.76684  1.0000
  H   H420      1.0  0.00090  0.76606  0.51615  1.0000
  H   H421      1.0  0.18964  0.57090  0.87771  1.0000
  H   H422      1.0  0.99610  0.48514  0.53190  1.0000
  H   H423      1.0  0.15373  0.93646  0.89152  1.0000
  H   H424      1.0  0.05400  0.93286  0.99620  1.0000
  H   H425      1.0  0.21914  0.57513  0.92362  1.0000
  H   H426      1.0  0.02259  0.86687  0.81154  1.0000
  H   H427      1.0  0.05706  0.94446  0.72598  1.0000
  H   H428      1.0  0.02052  0.51929  0.94203  1.0000
  H   H429      1.0  0.21533  0.50798  0.90238  1.0000
  C   C262      1.0  0.05196  0.89382  0.71838  1.0000
  H   H430      1.0  0.08641  0.50590  0.88328  1.0000
  C   C263      1.0  0.05862  0.69999  0.57932  1.0000
  C   C264      1.0  0.07990  0.89720  0.71976  1.0000
  H   H431      1.0  0.01893  0.69099  0.96659  1.0000
  H   H432      1.0  0.30078  0.94144  0.63873  1.0000
  H   H433      1.0  0.21731  0.89217  0.77775  1.0000
  H   H434      1.0  0.20893  0.53900  0.94495  1.0000
  H   H435      1.0  0.03888  0.53351  0.97361  1.0000
  H   H436      1.0  0.26983  0.96907  0.66147  1.0000
  H   H437      1.0  0.06359  0.64645  0.57424  1.0000
  H   H438      1.0  0.07500  0.50922  0.95848  1.0000
  C   C265      1.0  0.30592  0.55223  0.63494  1.0000
  H   H439      1.0  0.11615  0.94992  0.52863  1.0000
  H   H440      1.0  0.03740  0.52947  0.88092  1.0000
  N   N19       1.0  0.28029  0.51334  0.62608  1.0000
  H   H441      1.0  0.04126  0.51954  0.66413  1.0000
  C   C266      1.0  0.08216  0.94088  0.96015  1.0000
  H   H442      1.0  0.23791  0.52273  0.66945  1.0000
  H   H443      1.0  0.06499  0.98091  0.57277  1.0000
  H   H444      1.0  0.25061  0.58065  0.91621  1.0000
  N   N20       1.0  0.06009  0.48847  0.91616  1.0000
  H   H445      1.0  0.02957  0.72607  0.92986  1.0000
  H   H446      1.0  0.22995  0.55070  0.64858  1.0000
  H   H447      1.0  0.09230  0.95659  0.59917  1.0000
  H   H448      1.0  0.04037  0.48988  0.70508  1.0000
  H   H449      1.0  0.05548  0.51291  0.72833  1.0000
  H   H450      1.0  0.11219  0.97891  0.58068  1.0000
  H   H451      1.0  0.29520  0.52445  0.57770  1.0000
  H   H452      1.0  0.99074  0.52190  0.50913  1.0000
  H   H453      1.0  0.24349  0.51951  0.60695  1.0000
  H   H454      1.0  0.22249  0.97375  0.81567  1.0000
  H   H455      1.0  0.14569  0.94275  0.84819  1.0000
  H   H456      1.0  0.18132  0.97906  0.83004  1.0000
  H   H457      1.0  0.05825  0.48973  0.77581  1.0000
  H   H458      1.0  0.11075  0.49839  0.93584  1.0000
  C   C267      1.0  0.09091  0.65833  0.51289  1.0000
  S   S75       1.0  0.30866  0.98409  0.78743  1.0000
  H   H459      1.0  0.18513  0.98446  0.78559  1.0000
  H   H460      1.0  0.31715  0.51532  0.64613  1.0000
  Fe  Fe39      1.0  0.48542  0.09663  0.40963  1.0000
  S   S76       1.0  0.50821  0.12800  0.39111  1.0000
  S   S77       1.0  0.44596  0.08655  0.39863  1.0000
  Fe  Fe40      1.0  0.52530  0.07751  0.45744  1.0000
  S   S78       1.0  0.55161  0.10638  0.44231  1.0000
  H   H461      1.0  0.42283  0.31821  0.46041  1.0000
  Fe  Fe41      1.0  0.51996  0.13353  0.44608  1.0000
  H   H462      1.0  0.58144  0.00967  0.03823  1.0000
  Fe  Fe42      1.0  0.53835  0.09913  0.38877  1.0000
  S   S79       1.0  0.56478  0.09813  0.34433  1.0000
  S   S80       1.0  0.49448  0.10459  0.46463  1.0000
  S   S81       1.0  0.51478  0.06787  0.40373  1.0000
  Fe  Fe43      1.0  0.62123  0.03619  0.15479  1.0000
  S   S82       1.0  0.59348  0.00841  0.16785  1.0000
  S   S83       1.0  0.61256  0.07334  0.13203  1.0000
  Fe  Fe44      1.0  0.61503  0.00327  0.21625  1.0000
  C   C268      1.0  0.55306  0.46875  0.43324  1.0000
  C   C269      1.0  0.51650  0.11650  0.17406  1.0000
  S   S84       1.0  0.40917  0.01549  0.28036  1.0000
  H   H463      1.0  0.44235  0.43274  0.21212  1.0000
  Fe  Fe45      1.0  0.49840  0.38928  0.04051  1.0000
  S   S85       1.0  0.51424  0.35690  0.06920  1.0000
  S   S86       1.0  0.47545  0.42329  0.05458  1.0000
  H   H464      1.0  0.60064  0.08783  0.29350  1.0000
  C   C270      1.0  0.53402  0.46950  0.05898  1.0000
  S   S87       1.0  0.53037  0.39458  0.44208  1.0000
  Fe  Fe46      1.0  0.51485  0.33639  0.01866  1.0000
  Fe  Fe47      1.0  0.37150  0.47627  0.17265  1.0000
  Fe  Fe48      1.0  0.55092  0.37020  0.05325  1.0000
  S   S88       1.0  0.58185  0.37225  0.09198  1.0000
  H   H465      1.0  0.62739  0.04142  0.03627  1.0000
  S   S89       1.0  0.53541  0.40348  0.02790  1.0000
  Fe  Fe49      1.0  0.62659  0.43847  0.31505  1.0000
  S   S90       1.0  0.59313  0.46133  0.30281  1.0000
  S   S91       1.0  0.62676  0.40904  0.35593  1.0000
  Fe  Fe50      1.0  0.60510  0.45716  0.24832  1.0000
  S   S92       1.0  0.57706  0.45510  0.20554  1.0000
  S   S93       1.0  0.35150  0.48067  0.22259  1.0000
  H   H466      1.0  0.62355  0.08557  0.03012  1.0000
  S   S94       1.0  0.38603  0.43875  0.15613  1.0000
  H   H467      1.0  0.54424  0.04973  0.24894  1.0000
  C   C271      1.0  0.44972  0.42674  0.08143  1.0000
  C   C272      1.0  0.43986  0.45040  0.08690  1.0000
  C   C273      1.0  0.42038  0.45436  0.10969  1.0000
  C   C274      1.0  0.41027  0.43461  0.12680  1.0000
  C   C275      1.0  0.41990  0.41091  0.12093  1.0000
  C   C276      1.0  0.43962  0.40697  0.09847  1.0000
  H   H468      1.0  0.44770  0.46580  0.07403  1.0000
  Fe  Fe51      1.0  0.52694  0.37111  0.48927  1.0000
  H   H469      1.0  0.41211  0.39553  0.13397  1.0000
  H   H470      1.0  0.44698  0.38868  0.09440  1.0000
  C   C277      1.0  0.55734  0.39706  0.41812  1.0000
  C   C278      1.0  0.55595  0.40882  0.38642  1.0000
  C   C279      1.0  0.57708  0.41242  0.36715  1.0000
  C   C280      1.0  0.59983  0.40414  0.37929  1.0000
  C   C281      1.0  0.60118  0.39183  0.41071  1.0000
  C   C282      1.0  0.58000  0.38843  0.43023  1.0000
  H   H471      1.0  0.53846  0.41546  0.37685  1.0000
  H   H472      1.0  0.57572  0.42145  0.34276  1.0000
  H   H473      1.0  0.61874  0.38532  0.42024  1.0000
  H   H474      1.0  0.58128  0.37951  0.45479  1.0000
  C   C283      1.0  0.58026  0.39524  0.12359  1.0000
  C   C284      1.0  0.56627  0.41661  0.11856  1.0000
  C   C285      1.0  0.56573  0.43494  0.14377  1.0000
  C   C286      1.0  0.57900  0.43196  0.17426  1.0000
  C   C287      1.0  0.59300  0.41061  0.17937  1.0000
  C   C288      1.0  0.59374  0.39236  0.15397  1.0000
  H   H475      1.0  0.55595  0.41904  0.09519  1.0000
  H   H476      1.0  0.55495  0.45148  0.13968  1.0000
  H   H477      1.0  0.60304  0.40803  0.20298  1.0000
  H   H478      1.0  0.60456  0.37582  0.15801  1.0000
  C   C289      1.0  0.52243  0.19962  0.47894  1.0000
  H   H479      1.0  0.37989  0.48455  0.07135  1.0000
  H   H480      1.0  0.59428  0.44229  0.43425  1.0000
  H   H481      1.0  0.45963  0.40095  0.17593  1.0000
  C   C290      1.0  0.54499  0.47304  0.02319  1.0000
  H   H482      1.0  0.56637  0.99667  0.48643  1.0000
  H   H483      1.0  0.50816  0.35811  0.39579  1.0000
  C   C291      1.0  0.50723  0.21083  0.45444  1.0000
  H   H484      1.0  0.60465  0.12665  0.19726  1.0000
  H   H485      1.0  0.49054  0.24465  0.43665  1.0000
  C   C292      1.0  0.43658  0.06596  0.36619  1.0000
  C   C293      1.0  0.41282  0.05668  0.36716  1.0000
  C   C294      1.0  0.40455  0.04042  0.34182  1.0000
  C   C295      1.0  0.41977  0.03378  0.31465  1.0000
  C   C296      1.0  0.44352  0.04312  0.31360  1.0000
  C   C297      1.0  0.45204  0.05883  0.33950  1.0000
  H   H486      1.0  0.40067  0.06222  0.38755  1.0000
  H   H487      1.0  0.38613  0.03366  0.34268  1.0000
  H   H488      1.0  0.45531  0.03831  0.29249  1.0000
  H   H489      1.0  0.47030  0.06596  0.33830  1.0000
  C   C298      1.0  0.54686  0.08409  0.06019  1.0000
  C   C299      1.0  0.56539  0.10129  0.06146  1.0000
  C   C300      1.0  0.58524  0.09797  0.08403  1.0000
  C   C301      1.0  0.58704  0.07713  0.10477  1.0000
  C   C302      1.0  0.56853  0.05990  0.10347  1.0000
  C   C303      1.0  0.54835  0.06356  0.08158  1.0000
  C   C304      1.0  0.52831  0.47684  0.44873  1.0000
  H   H490      1.0  0.59945  0.11144  0.08504  1.0000
  H   H491      1.0  0.56974  0.04374  0.11922  1.0000
  H   H492      1.0  0.53405  0.05020  0.08069  1.0000
  C   C305      1.0  0.57383  0.07034  0.32453  1.0000
  C   C306      1.0  0.56296  0.04813  0.33236  1.0000
  C   C307      1.0  0.57002  0.02660  0.31486  1.0000
  C   C308      1.0  0.58775  0.02720  0.28919  1.0000
  C   C309      1.0  0.59888  0.04933  0.28184  1.0000
  C   C310      1.0  0.59201  0.07076  0.29949  1.0000
  H   H493      1.0  0.54899  0.04755  0.35163  1.0000
  H   H494      1.0  0.56142  0.00952  0.32088  1.0000
  H   H495      1.0  0.61275  0.05004  0.26251  1.0000
  H   H496      1.0  0.54117  0.98726  0.46118  1.0000
  H   H497      1.0  0.64513  0.41262  0.17525  1.0000
  N   N21       1.0  0.49093  0.42443  0.17923  1.0000
  C   C311      1.0  0.47692  0.44603  0.16436  1.0000
  C   C312      1.0  0.47245  0.40817  0.19564  1.0000
  C   C313      1.0  0.50290  0.41071  0.15013  1.0000
  C   C314      1.0  0.50973  0.43396  0.20407  1.0000
  H   H498      1.0  0.54918  0.46636  0.07753  1.0000
  C   C315      1.0  0.49347  0.99432  0.38522  1.0000
  C   C316      1.0  0.51828  0.38779  0.15952  1.0000
  C   C317      1.0  0.51922  0.41622  0.23214  1.0000
  H   H499      1.0  0.46109  0.43970  0.14917  1.0000
  H   H500      1.0  0.44632  0.05021  0.48213  1.0000
  H   H501      1.0  0.48098  0.39158  0.20702  1.0000
  H   H502      1.0  0.46950  0.05069  0.45075  1.0000
  H   H503      1.0  0.48892  0.40509  0.13098  1.0000
  H   H504      1.0  0.51562  0.42254  0.13615  1.0000
  H   H505      1.0  0.52586  0.44065  0.19009  1.0000
  H   H506      1.0  0.50225  0.45027  0.21791  1.0000
  C   C318      1.0  0.42218  0.31798  0.48873  1.0000
  H   H507      1.0  0.42865  0.01333  0.46071  1.0000
  S   S95       1.0  0.64055  0.03352  0.20520  1.0000
  C   C319      1.0  0.52968  0.09173  0.18067  1.0000
  H   H508      1.0  0.41330  0.47268  0.11431  1.0000
  H   H509      1.0  0.52294  0.08892  0.28272  1.0000
  H   H510      1.0  0.50755  0.37368  0.17254  1.0000
  H   H511      1.0  0.53473  0.39255  0.17459  1.0000
  H   H512      1.0  0.52530  0.37925  0.13570  1.0000
  H   H513      1.0  0.55036  0.03448  0.01767  1.0000
  H   H514      1.0  0.51731  0.39655  0.22661  1.0000
  H   H515      1.0  0.51053  0.42066  0.25698  1.0000
  H   H516      1.0  0.55312  0.47622  0.40694  1.0000
  H   H517      1.0  0.49885  0.19974  0.43485  1.0000
  H   H518      1.0  0.60240  0.01480  0.07215  1.0000
  H   H519      1.0  0.44672  0.40611  0.23762  1.0000
  C   C320      1.0  0.52948  0.28766  0.39062  1.0000
  H   H520      1.0  0.55418  0.26211  0.36257  1.0000
  H   H521      1.0  0.64384  0.01866  0.28922  1.0000
  H   H522      1.0  0.55921  0.09680  0.25872  1.0000
  S   S96       1.0  0.63663  0.43151  0.26001  1.0000
  C   C321      1.0  0.60052  0.01446  0.04389  1.0000
  H   H523      1.0  0.59546  0.30636  0.45884  1.0000
  H   H524      1.0  0.62392  0.43477  0.13178  1.0000
  H   H525      1.0  0.50625  0.10850  0.25480  1.0000
  H   H526      1.0  0.65078  0.03909  0.32234  1.0000
  H   H527      1.0  0.48333  0.98999  0.36144  1.0000
  C   C322      1.0  0.57586  0.46782  0.48901  1.0000
  H   H528      1.0  0.56428  0.11730  0.04532  1.0000
  H   H529      1.0  0.57640  0.29751  0.36137  1.0000
  H   H530      1.0  0.57425  0.28037  0.41791  1.0000
  H   H531      1.0  0.55432  0.29350  0.44889  1.0000
  C   C323      1.0  0.59730  0.46232  0.43535  1.0000
  H   H532      1.0  0.58770  0.46650  0.38071  1.0000
  N   N22       1.0  0.55120  0.09249  0.20491  1.0000
  S   S97       1.0  0.49241  0.35000  0.49171  1.0000
  S   S98       1.0  0.52843  0.04781  0.49750  1.0000
  H   H533      1.0  0.52462  0.25053  0.37189  1.0000
  H   H534      1.0  0.57873  0.05999  0.48270  1.0000
  H   H535      1.0  0.58532  0.42827  0.48525  1.0000
  H   H536      1.0  0.49476  0.46974  0.02186  1.0000
  H   H537      1.0  0.51459  0.46263  0.44312  1.0000
  H   H538      1.0  0.55855  0.02933  0.21985  1.0000
  H   H539      1.0  0.32391  0.47188  0.30105  1.0000
  C   C324      1.0  0.58596  0.31452  0.43632  1.0000
  H   H540      1.0  0.49377  0.24544  0.03084  1.0000
  H   H541      1.0  0.56197  0.12871  0.18892  1.0000
  C   C325      1.0  0.54454  0.10175  0.24008  1.0000
  H   H542      1.0  0.63349  0.39917  0.10659  1.0000
  C   C326      1.0  0.59440  0.11120  0.20812  1.0000
  H   H543      1.0  0.57325  0.10467  0.16258  1.0000
  C   C327      1.0  0.50257  0.23638  0.45555  1.0000
  H   H544      1.0  0.43944  0.28245  0.48542  1.0000
  C   C328      1.0  0.56946  0.10964  0.18964  1.0000
  H   H545      1.0  0.60315  0.12558  0.49734  1.0000
  C   C329      1.0  0.50613  0.24626  0.00949  1.0000
  C   C330      1.0  0.64260  0.00310  0.33967  1.0000
  H   H546      1.0  0.61441  0.46461  0.45053  1.0000
  N   N23       1.0  0.54810  0.30714  0.39769  1.0000
  C   C331      1.0  0.51436  0.33985  0.38630  1.0000
  H   H547      1.0  0.52504  0.32518  0.43514  1.0000
  H   H548      1.0  0.57988  0.06760  0.22252  1.0000
  C   C332      1.0  0.63881  0.44824  0.13033  1.0000
  H   H549      1.0  0.51561  0.07891  0.18911  1.0000
  H   H550      1.0  0.63823  0.45484  0.10352  1.0000
  C   C333      1.0  0.54781  0.04675  0.22142  1.0000
  C   C334      1.0  0.63094  0.46987  0.15343  1.0000
  H   H551      1.0  0.49502  0.45504  0.11610  1.0000
  S   S99       1.0  0.52179  0.08751  0.03202  1.0000
  H   H552      1.0  0.43891  0.00988  0.37400  1.0000
  C   C335      1.0  0.45850  0.03823  0.46651  1.0000
  H   H553      1.0  0.62337  0.00934  0.34364  1.0000
  S   S100      1.0  0.50553  0.28324  0.48174  1.0000
  S   S101      1.0  0.52844  0.16724  0.47992  1.0000
  C   C336      1.0  0.56498  0.29778  0.42556  1.0000
  H   H554      1.0  0.46761  0.43074  0.24226  1.0000
  C   C337      1.0  0.44262  0.02155  0.44395  1.0000
  H   H555      1.0  0.54357  0.12213  0.24027  1.0000
  H   H556      1.0  0.51211  0.07692  0.24349  1.0000
  C   C338      1.0  0.53967  0.26183  0.38212  1.0000
  H   H557      1.0  0.52114  0.34230  0.36003  1.0000
  H   H558      1.0  0.59793  0.05366  0.04537  1.0000
  H   H559      1.0  0.61308  0.99968  0.03474  1.0000
  H   H560      1.0  0.53557  0.08441  0.15535  1.0000
  H   H561      1.0  0.53063  0.04381  0.20709  1.0000
  C   C339      1.0  0.60763  0.03963  0.02976  1.0000
  C   C340      1.0  0.53423  0.32940  0.41061  1.0000
  H   H562      1.0  0.51048  0.00344  0.37733  1.0000
  C   C341      1.0  0.57415  0.33711  0.36191  1.0000
  H   H563      1.0  0.55462  0.45532  0.01739  1.0000
  H   H564      1.0  0.49803  0.32818  0.38590  1.0000
  H   H565      1.0  0.59251  0.11466  0.23585  1.0000
  H   H566      1.0  0.59154  0.33477  0.34769  1.0000
  C   C342      1.0  0.51305  0.25121  0.48101  1.0000
  H   H567      1.0  0.52737  0.12822  0.15706  1.0000
  H   H568      1.0  0.52256  0.45301  0.05992  1.0000
  H   H569      1.0  0.51221  0.12650  0.19797  1.0000
  C   C343      1.0  0.56313  0.06740  0.20652  1.0000
  H   H570      1.0  0.53908  0.41916  0.23614  1.0000
  H   H571      1.0  0.56270  0.34982  0.34620  1.0000
  C   C344      1.0  0.56196  0.31189  0.36524  1.0000
  H   H572      1.0  0.51744  0.29296  0.36876  1.0000
  H   H573      1.0  0.51701  0.28565  0.41267  1.0000
  H   H574      1.0  0.47443  0.02874  0.39334  1.0000
  H   H575      1.0  0.43238  0.03443  0.42683  1.0000
  H   H576      1.0  0.55243  0.44867  0.42901  1.0000
  H   H577      1.0  0.50885  0.46899  0.15353  1.0000
  H   H578      1.0  0.40226  0.00669  0.41051  1.0000
  H   H579      1.0  0.59982  0.31579  0.41592  1.0000
  H   H580      1.0  0.46886  0.45773  0.18487  1.0000
  H   H581      1.0  0.57962  0.33302  0.44414  1.0000
  S   S102      1.0  0.50200  0.29644  0.01820  1.0000
  C   C345      1.0  0.45659  0.42042  0.22352  1.0000
  H   H582      1.0  0.61271  0.47684  0.14488  1.0000
  C   C346      1.0  0.52005  0.09331  0.25527  1.0000
  H   H583      1.0  0.60591  0.09456  0.20369  1.0000
  H   H584      1.0  0.57891  0.34616  0.38613  1.0000
  H   H585      1.0  0.54946  0.31053  0.34278  1.0000
  S   S103      1.0  0.59580  0.00005  0.26698  1.0000
  H   H586      1.0  0.54647  0.25231  0.40544  1.0000
  H   H587      1.0  0.49895  0.11322  0.16054  1.0000
  H   H588      1.0  0.54641  0.34461  0.41712  1.0000
  H   H589      1.0  0.56925  0.06150  0.18066  1.0000
  C   C347      1.0  0.49145  0.46338  0.14149  1.0000
  N   N24       1.0  0.57603  0.47561  0.45212  1.0000
  H   H590      1.0  0.47067  0.02811  0.48432  1.0000
  N   N25       1.0  0.45562  0.00197  0.42317  1.0000
  H   H591      1.0  0.61883  0.45868  0.38915  1.0000
  S   S104      1.0  0.55259  0.34833  0.00422  1.0000
  C   C348      1.0  0.47877  0.01193  0.40846  1.0000
  C   C349      1.0  0.60310  0.46996  0.39840  1.0000
  H   H592      1.0  0.62879  0.46423  0.18033  1.0000
  C   C350      1.0  0.43926  0.99517  0.39351  1.0000
  H   H593      1.0  0.57226  0.06847  0.00269  1.0000
  H   H594      1.0  0.49162  0.01811  0.42851  1.0000
  H   H595      1.0  0.55277  0.43516  0.48484  1.0000
  C   C351      1.0  0.41234  0.98996  0.40208  1.0000
  H   H596      1.0  0.49367  0.99289  0.46984  1.0000
  H   H597      1.0  0.45925  0.30577  0.49711  1.0000
  H   H598      1.0  0.52841  0.47866  0.47675  1.0000
  S   S105      1.0  0.64709  0.00961  0.12972  1.0000
  H   H599      1.0  0.46835  0.98684  0.49779  1.0000
  H   H600      1.0  0.48025  0.48022  0.13672  1.0000
  H   H601      1.0  0.42700  0.33664  0.49747  1.0000
  C   C352      1.0  0.54973  0.98542  0.48684  1.0000
  C   C353      1.0  0.57072  0.44055  0.49540  1.0000
  H   H602      1.0  0.40318  0.31411  0.49623  1.0000
  H   H603      1.0  0.59369  0.47197  0.50143  1.0000
  C   C354      1.0  0.61811  0.08856  0.00312  1.0000
  H   H604      1.0  0.45262  0.98597  0.00285  1.0000
  H   H605      1.0  0.50804  0.20689  0.00277  1.0000
  Fe  Fe52      1.0  0.49982  0.11664  0.91478  1.0000
  S   S106      1.0  0.53150  0.13692  0.89326  1.0000
  S   S107      1.0  0.46717  0.11076  0.87972  1.0000
  H   H606      1.0  0.61930  0.03790  0.92139  1.0000
  S   S108      1.0  0.55933  0.12884  0.96674  1.0000
  H   H607      1.0  0.54493  0.20628  0.52321  1.0000
  Fe  Fe53      1.0  0.53261  0.15669  0.94417  1.0000
  S   S109      1.0  0.53869  0.19824  0.94169  1.0000
  Fe  Fe54      1.0  0.55513  0.10780  0.91757  1.0000
  S   S110      1.0  0.58542  0.08354  0.89576  1.0000
  S   S111      1.0  0.49919  0.13812  0.96396  1.0000
  S   S112      1.0  0.52338  0.08636  0.93571  1.0000
  Fe  Fe55      1.0  0.62609  0.01916  0.63648  1.0000
  S   S113      1.0  0.59172  0.01944  0.66655  1.0000
  S   S114      1.0  0.62689  0.03295  0.58193  1.0000
  Fe  Fe56      1.0  0.61420  0.03309  0.71036  1.0000
  S   S115      1.0  0.59565  0.06582  0.73614  1.0000
  C   C355      1.0  0.52195  0.10176  0.55319  1.0000
  S   S116      1.0  0.42275  0.00434  0.86560  1.0000
  H   H608      1.0  0.46541  0.18273  0.83799  1.0000
  Fe  Fe57      1.0  0.48907  0.36347  0.54561  1.0000
  S   S117      1.0  0.50910  0.33012  0.56619  1.0000
  S   S118      1.0  0.45134  0.37747  0.56146  1.0000
  H   H609      1.0  0.61151  0.04676  0.85720  1.0000
  C   C356      1.0  0.44611  0.18102  0.95796  1.0000
  H   H610      1.0  0.42789  0.30274  0.60914  1.0000
  H   H611      1.0  0.48125  0.24776  0.94295  1.0000
  H   H612      1.0  0.45874  0.21760  0.95789  1.0000
  Fe  Fe58      1.0  0.54235  0.35332  0.55911  1.0000
  S   S119      1.0  0.57255  0.35578  0.59856  1.0000
  H   H613      1.0  0.46826  0.46046  0.97563  1.0000
  S   S120      1.0  0.52187  0.38712  0.54161  1.0000
  Fe  Fe59      1.0  0.62841  0.44549  0.80144  1.0000
  S   S121      1.0  0.59358  0.46569  0.78858  1.0000
  S   S122      1.0  0.63150  0.41680  0.84286  1.0000
  Fe  Fe60      1.0  0.60232  0.45637  0.73424  1.0000
  S   S123      1.0  0.56958  0.44538  0.70241  1.0000
  H   H614      1.0  0.61067  0.09764  0.58285  1.0000
  C   C357      1.0  0.52003  0.02556  0.85453  1.0000
  S   S124      1.0  0.43225  0.44986  0.68684  1.0000
  H   H615      1.0  0.58295  0.98612  0.53600  1.0000
  C   C358      1.0  0.44652  0.39779  0.59621  1.0000
  C   C359      1.0  0.46553  0.40433  0.61824  1.0000
  C   C360      1.0  0.46086  0.42027  0.64587  1.0000
  C   C361      1.0  0.43726  0.43010  0.65150  1.0000
  C   C362      1.0  0.41833  0.42384  0.62917  1.0000
  C   C363      1.0  0.42293  0.40761  0.60182  1.0000
  H   H616      1.0  0.48377  0.39691  0.61422  1.0000
  H   H617      1.0  0.47562  0.42501  0.66300  1.0000
  H   H618      1.0  0.40008  0.43118  0.63332  1.0000
  H   H619      1.0  0.40811  0.40266  0.58494  1.0000
  C   C364      1.0  0.56428  0.40753  0.91038  1.0000
  C   C365      1.0  0.56636  0.42830  0.88982  1.0000
  C   C366      1.0  0.58735  0.43173  0.87022  1.0000
  C   C367      1.0  0.60613  0.41402  0.87009  1.0000
  C   C368      1.0  0.60432  0.39345  0.89124  1.0000
  C   C369      1.0  0.58348  0.39027  0.91155  1.0000
  H   H620      1.0  0.55165  0.44181  0.88900  1.0000
  H   H621      1.0  0.58891  0.44806  0.85515  1.0000
  H   H622      1.0  0.61886  0.37975  0.89153  1.0000
  H   H623      1.0  0.58197  0.37414  0.92726  1.0000
  C   C370      1.0  0.57164  0.38082  0.62725  1.0000
  C   C371      1.0  0.55085  0.39601  0.62991  1.0000
  C   C372      1.0  0.55057  0.41580  0.65290  1.0000
  C   C373      1.0  0.57106  0.42064  0.67337  1.0000
  C   C374      1.0  0.59180  0.40536  0.67098  1.0000
  C   C375      1.0  0.59204  0.38547  0.64806  1.0000
  H   H624      1.0  0.53489  0.39239  0.61451  1.0000
  H   H625      1.0  0.53437  0.42740  0.65485  1.0000
  H   H626      1.0  0.60765  0.40889  0.68669  1.0000
  H   H627      1.0  0.60815  0.37375  0.64620  1.0000
  C   C376      1.0  0.52971  0.22504  0.96530  1.0000
  H   H628      1.0  0.53644  0.07218  0.85075  1.0000
  H   H629      1.0  0.48945  0.26234  0.90479  1.0000
  H   H630      1.0  0.59859  0.07771  0.61388  1.0000
  H   H631      1.0  0.56039  0.02790  0.85796  1.0000
  C   C377      1.0  0.44134  0.31582  0.55935  1.0000
  H   H632      1.0  0.51808  0.37015  0.76512  1.0000
  C   C378      1.0  0.47665  0.24888  0.91545  1.0000
  C   C379      1.0  0.52226  0.37647  0.83953  1.0000
  H   H633      1.0  0.33272  0.00096  0.72545  1.0000
  C   C380      1.0  0.45435  0.08134  0.87615  1.0000
  C   C381      1.0  0.43734  0.07653  0.85003  1.0000
  C   C382      1.0  0.42738  0.05305  0.84618  1.0000
  C   C383      1.0  0.43428  0.03428  0.86868  1.0000
  C   C384      1.0  0.45119  0.03918  0.89483  1.0000
  C   C385      1.0  0.46121  0.06252  0.89853  1.0000
  H   H634      1.0  0.43189  0.09099  0.83262  1.0000
  H   H635      1.0  0.41432  0.04953  0.82602  1.0000
  H   H636      1.0  0.45652  0.02485  0.91249  1.0000
  H   H637      1.0  0.47402  0.06601  0.91897  1.0000
  H   H638      1.0  0.54114  0.03897  0.97405  1.0000
  H   H639      1.0  0.56734  0.08164  0.57142  1.0000
  C   C386      1.0  0.59982  0.04780  0.52650  1.0000
  C   C387      1.0  0.59933  0.03688  0.55883  1.0000
  C   C388      1.0  0.57701  0.02938  0.57195  1.0000
  C   C389      1.0  0.55537  0.03285  0.55288  1.0000
  N   N26       1.0  0.43844  0.29230  0.53953  1.0000
  C   C390      1.0  0.45510  0.46395  0.56441  1.0000
  H   H640      1.0  0.57642  0.02065  0.59657  1.0000
  H   H641      1.0  0.53818  0.02697  0.56317  1.0000
  C   C391      1.0  0.58892  0.07930  0.85133  1.0000
  C   C392      1.0  0.57791  0.09536  0.82790  1.0000
  C   C393      1.0  0.58061  0.09121  0.79269  1.0000
  C   C394      1.0  0.59417  0.07090  0.78058  1.0000
  C   C395      1.0  0.60527  0.05487  0.80401  1.0000
  C   C396      1.0  0.60278  0.05918  0.83927  1.0000
  H   H642      1.0  0.56743  0.11105  0.83689  1.0000
  H   H643      1.0  0.57205  0.10372  0.77469  1.0000
  H   H644      1.0  0.61579  0.03921  0.79492  1.0000
  H   H645      1.0  0.60360  0.38020  0.75953  1.0000
  H   H646      1.0  0.51095  0.36270  0.82628  1.0000
  C   C397      1.0  0.53014  0.26994  0.97073  1.0000
  C   C398      1.0  0.42223  0.22592  0.90556  1.0000
  H   H647      1.0  0.49135  0.46286  0.94420  1.0000
  Fe  Fe61      1.0  0.52585  0.10915  0.98325  1.0000
  H   H648      1.0  0.40015  0.29661  0.55180  1.0000
  H   H649      1.0  0.49147  0.47052  0.54176  1.0000
  Fe  Fe62      1.0  0.39929  0.47571  0.69268  1.0000
  H   H650      1.0  0.40688  0.45876  0.56598  1.0000
  H   H651      1.0  0.57886  0.47430  0.97464  1.0000
  H   H652      1.0  0.41521  0.27197  0.57321  1.0000
  C   C399      1.0  0.55688  0.03410  0.99091  1.0000
  H   H653      1.0  0.44102  0.21030  0.86284  1.0000
  C   C400      1.0  0.53774  0.24802  0.95427  1.0000
  H   H654      1.0  0.51888  0.00626  0.84629  1.0000
  H   H655      1.0  0.49623  0.19299  0.84717  1.0000
  H   H656      1.0  0.45865  0.27100  0.57738  1.0000
  H   H657      1.0  0.62979  0.01702  0.97637  1.0000
  H   H658      1.0  0.50835  0.44590  0.99797  1.0000
  H   H659      1.0  0.61033  0.13050  0.54048  1.0000
  H   H660      1.0  0.63096  0.10198  0.99250  1.0000
  N   N27       1.0  0.51679  0.04314  0.82518  1.0000
  C   C401      1.0  0.48499  0.01510  0.79584  1.0000
  H   H661      1.0  0.49268  0.09121  0.80859  1.0000
  C   C402      1.0  0.49167  0.04049  0.80972  1.0000
  H   H662      1.0  0.45810  0.25672  0.91182  1.0000
  H   H663      1.0  0.55905  0.38979  0.83775  1.0000
  C   C403      1.0  0.53634  0.12407  0.56580  1.0000
  H   H664      1.0  0.61591  0.07052  0.95488  1.0000
  H   H665      1.0  0.53659  0.99315  0.50553  1.0000
  H   H666      1.0  0.50527  0.07088  0.86183  1.0000
  C   C404      1.0  0.51801  0.06867  0.83999  1.0000
  H   H667      1.0  0.53219  0.99923  0.79559  1.0000
  S   S125      1.0  0.64832  0.03595  0.67872  1.0000
  H   H668      1.0  0.47753  0.04567  0.82876  1.0000
  H   H669      1.0  0.48891  0.05320  0.78788  1.0000
  Fe  Fe63      1.0  0.39837  0.98512  0.82692  1.0000
  H   H670      1.0  0.55307  0.04966  0.80706  1.0000
  H   H671      1.0  0.44514  0.23839  0.53998  1.0000
  N   N28       1.0  0.60318  0.04443  0.99226  1.0000
  C   C405      1.0  0.52846  0.24009  0.50526  1.0000
  H   H672      1.0  0.47710  0.28412  0.54540  1.0000
  H   H673      1.0  0.48236  0.19562  0.95468  1.0000
  H   H674      1.0  0.52937  0.12879  0.59170  1.0000
  H   H675      1.0  0.54803  0.01274  0.76124  1.0000
  S   S126      1.0  0.62320  0.99517  0.72972  1.0000
  H   H676      1.0  0.52493  0.08540  0.56945  1.0000
  H   H677      1.0  0.49234  0.45510  0.58272  1.0000
  C   C406      1.0  0.52678  0.43597  0.81192  1.0000
  C   C407      1.0  0.54735  0.42218  0.79296  1.0000
  H   H678      1.0  0.53048  0.13947  0.54888  1.0000
  S   S127      1.0  0.53648  0.40305  0.93159  1.0000
  H   H679      1.0  0.46484  0.16394  0.89701  1.0000
  H   H680      1.0  0.56590  0.10072  0.51908  1.0000
  H   H681      1.0  0.54988  0.24892  0.93268  1.0000
  H   H682      1.0  0.56671  0.14502  0.61007  1.0000
  N   N29       1.0  0.52763  0.47992  0.99444  1.0000
  H   H683      1.0  0.63923  0.05852  0.98221  1.0000
  N   N30       1.0  0.54400  0.39524  0.78668  1.0000
  C   C408      1.0  0.56435  0.38643  0.76354  1.0000
  C   C409      1.0  0.52009  0.39024  0.76885  1.0000
  C   C410      1.0  0.54604  0.38101  0.81974  1.0000
  H   H684      1.0  0.47899  0.22830  0.86909  1.0000
  C   C411      1.0  0.59048  0.38779  0.77849  1.0000
  C   C412      1.0  0.51631  0.40233  0.73358  1.0000
  H   H685      1.0  0.32558  0.00429  0.68165  1.0000
  H   H686      1.0  0.56213  0.01521  0.98365  1.0000
  H   H687      1.0  0.56145  0.36710  0.75555  1.0000
  H   H688      1.0  0.56465  0.39725  0.73958  1.0000
  H   H689      1.0  0.44510  0.46021  0.54017  1.0000
  H   H690      1.0  0.55394  0.36232  0.81518  1.0000
  H   H691      1.0  0.60799  0.09957  0.52469  1.0000
  C   C413      1.0  0.60671  0.02452  0.93259  1.0000
  H   H692      1.0  0.61103  0.00661  0.92036  1.0000
  C   C414      1.0  0.60001  0.11836  0.52338  1.0000
  C   C415      1.0  0.45924  0.27522  0.54970  1.0000
  H   H693      1.0  0.49587  0.01014  0.77301  1.0000
  H   H694      1.0  0.51893  0.42238  0.73426  1.0000
  C   C416      1.0  0.57715  0.05286  0.98575  1.0000
  H   H695      1.0  0.55770  0.09682  0.60919  1.0000
  H   H696      1.0  0.49725  0.39939  0.72478  1.0000
  H   H697      1.0  0.54412  0.04411  0.89133  1.0000
  H   H698      1.0  0.61707  0.05340  0.51607  1.0000
  H   H699      1.0  0.44885  0.45000  0.58278  1.0000
  C   C417      1.0  0.61025  0.02213  0.97153  1.0000
  H   H700      1.0  0.50030  0.21915  0.90113  1.0000
  H   H701      1.0  0.40659  0.48181  0.96241  1.0000
  H   H702      1.0  0.59297  0.37703  0.80224  1.0000
  C   C418      1.0  0.57814  0.05159  0.50762  1.0000
  H   H703      1.0  0.35702  0.00323  0.69648  1.0000
  H   H704      1.0  0.50426  0.39615  0.78460  1.0000
  C   C419      1.0  0.46380  0.20037  0.94461  1.0000
  H   H705      1.0  0.40340  0.21877  0.90678  1.0000
  H   H706      1.0  0.52479  0.42925  0.83829  1.0000
  H   H707      1.0  0.42682  0.18577  0.95166  1.0000
  H   H708      1.0  0.51685  0.10746  0.82805  1.0000
  C   C420      1.0  0.48508  0.47040  0.96901  1.0000
  H   H709      1.0  0.42167  0.24242  0.88907  1.0000
  H   H710      1.0  0.45055  0.16235  0.94858  1.0000
  H   H711      1.0  0.46090  0.30591  0.60690  1.0000
  H   H712      1.0  0.52845  0.47868  0.93897  1.0000
  C   C421      1.0  0.53947  0.47220  0.96126  1.0000
  H   H713      1.0  0.51104  0.39315  0.84399  1.0000
  H   H714      1.0  0.39339  0.24910  0.53582  1.0000
  H   H715      1.0  0.42618  0.47748  0.61910  1.0000
  H   H716      1.0  0.53640  0.28738  0.96170  1.0000
  H   H717      1.0  0.53071  0.04952  0.77433  1.0000
  C   C422      1.0  0.54494  0.01386  0.78922  1.0000
  H   H718      1.0  0.57480  0.06090  0.95990  1.0000
  C   C423      1.0  0.57018  0.09837  0.58696  1.0000
  H   H719      1.0  0.42582  0.32881  0.55419  1.0000
  H   H720      1.0  0.42976  0.18838  0.89083  1.0000
  C   C424      1.0  0.51241  0.08996  0.81518  1.0000
  H   H721      1.0  0.48618  0.00059  0.81547  1.0000
  H   H722      1.0  0.57216  0.47421  0.93026  1.0000
  H   H723      1.0  0.54897  0.17305  0.56609  1.0000
  H   H724      1.0  0.57010  0.43727  0.52334  1.0000
  C   C425      1.0  0.57228  0.11824  0.53001  1.0000
  C   C426      1.0  0.50423  0.46596  0.99748  1.0000
  C   C427      1.0  0.55585  0.04417  0.52084  1.0000
  H   H725      1.0  0.56341  0.13217  0.51304  1.0000
  H   H726      1.0  0.50209  0.10634  0.55387  1.0000
  C   C428      1.0  0.48071  0.22424  0.89681  1.0000
  H   H727      1.0  0.59404  0.14201  0.58711  1.0000
  H   H728      1.0  0.57509  0.16769  0.53863  1.0000
  H   H729      1.0  0.46556  0.01584  0.78734  1.0000
  H   H730      1.0  0.50913  0.43549  0.79794  1.0000
  C   C429      1.0  0.53637  0.04022  0.79845  1.0000
  H   H731      1.0  0.44144  0.33223  0.60990  1.0000
  H   H732      1.0  0.54642  0.01159  0.89193  1.0000
  H   H733      1.0  0.42678  0.23163  0.93184  1.0000
  C   C430      1.0  0.56865  0.16789  0.56540  1.0000
  C   C431      1.0  0.41405  0.28163  0.54826  1.0000
  H   H734      1.0  0.55017  0.43196  0.76851  1.0000
  H   H735      1.0  0.54040  0.45186  0.95921  1.0000
  S   S128      1.0  0.63552  0.43361  0.74738  1.0000
  C   C432      1.0  0.48223  0.45727  0.55820  1.0000
  C   C433      1.0  0.44291  0.31359  0.59854  1.0000
  C   C434      1.0  0.59621  0.09611  0.60215  1.0000
  H   H736      1.0  0.47751  0.24035  0.54007  1.0000
  H   H737      1.0  0.53177  0.45551  0.81411  1.0000
  H   H738      1.0  0.59907  0.10953  0.62302  1.0000
  H   H739      1.0  0.48338  0.43916  0.54523  1.0000
  C   C435      1.0  0.57396  0.14336  0.58364  1.0000
  C   C436      1.0  0.48200  0.17971  0.85387  1.0000
  N   N31       1.0  0.56386  0.12101  0.56639  1.0000
  H   H740      1.0  0.57854  0.18264  0.57889  1.0000
  H   H741      1.0  0.60005  0.00578  0.97926  1.0000
  H   H742      1.0  0.53670  0.25110  0.52503  1.0000
  H   H743      1.0  0.52360  0.08879  0.79176  1.0000
  H   H744      1.0  0.56416  0.42516  0.80820  1.0000
  C   C437      1.0  0.47640  0.18006  0.89241  1.0000
  C   C438      1.0  0.40278  0.26385  0.52193  1.0000
  H   H745      1.0  0.52627  0.09716  0.52638  1.0000
  H   H746      1.0  0.44760  0.18034  0.98623  1.0000
  H   H747      1.0  0.52838  0.39389  0.71399  1.0000
  N   N32       1.0  0.46461  0.20324  0.90635  1.0000
  H   H748      1.0  0.49406  0.17608  0.90578  1.0000
  S   S129      1.0  0.37914  0.99404  0.77739  1.0000
  C   C439      1.0  0.54421  0.02762  0.87477  1.0000
  H   H749      1.0  0.45795  0.32545  0.55096  1.0000
  H   H750      1.0  0.52706  0.36886  0.86505  1.0000
  C   C440      1.0  0.43955  0.20606  0.89046  1.0000
  Fe  Fe64      1.0  0.51525  0.31829  0.51146  1.0000
  H   H751      1.0  0.48946  0.16128  0.84700  1.0000
  H   H752      1.0  0.56307  0.00967  0.80101  1.0000
  Fe  Fe65      1.0  0.53329  0.38101  0.98031  1.0000
  C   C441      1.0  0.61973  0.06482  0.98164  1.0000
  H   H753      1.0  0.50479  0.02809  0.87305  1.0000
  C   C442      1.0  0.51404  0.26927  0.99831  1.0000
  H   H754      1.0  0.58760  0.02950  0.92557  1.0000
  H   H755      1.0  0.59578  0.40693  0.78331  1.0000
  S   S130      1.0  0.49552  0.36790  0.99148  1.0000
  C   C443      1.0  0.51411  0.22431  0.99344  1.0000
  C   C444      1.0  0.46040  0.25005  0.53198  1.0000
  C   C445      1.0  0.40328  0.47789  0.57428  1.0000
  H   H756      1.0  0.33214  0.98785  0.63252  1.0000
  H   H757      1.0  0.38685  0.47755  0.59072  1.0000
  C   C446      1.0  0.33862  0.99537  0.69948  1.0000
  S   S131      1.0  0.36296  0.47627  0.66584  1.0000
  C   C447      1.0  0.56565  0.48130  0.95526  1.0000
  S   S132      1.0  0.55019  0.33901  0.50598  1.0000
  H   H758      1.0  0.37206  0.98647  0.61004  1.0000
  H   H759      1.0  0.41583  0.25465  0.50455  1.0000
  H   H760      1.0  0.38826  0.27333  0.50670  1.0000
  C   C448      1.0  0.44073  0.29864  0.50225  1.0000
  H   H761      1.0  0.46119  0.25133  0.50385  1.0000
  H   H762      1.0  0.46739  0.48453  0.62612  1.0000
  C   C449      1.0  0.53304  0.21454  0.50421  1.0000
  H   H763      1.0  0.59970  0.09731  0.00189  1.0000
  H   H764      1.0  0.56220  0.47831  0.50413  1.0000
  H   H765      1.0  0.49559  0.50772  0.03491  1.0000
  S   S133      1.0  0.62808  0.49060  0.24985  1.0000
  S   S134      1.0  0.60336  0.95901  0.10128  1.0000
  S   S135      1.0  0.44815  0.83767  0.01269  1.0000
  H   H766      1.0  0.50687  0.72317  0.09060  1.0000
  S   S136      1.0  0.47394  0.89814  0.46516  1.0000
  Fe  Fe66      1.0  0.50869  0.85251  0.06028  1.0000
  S   S137      1.0  0.47711  0.83385  0.08540  1.0000
  S   S138      1.0  0.53999  0.86205  0.09662  1.0000
  Fe  Fe67      1.0  0.47459  0.81073  0.03734  1.0000
  C   C450      1.0  0.43876  0.51132  0.02170  1.0000
  Fe  Fe68      1.0  0.45390  0.86201  0.05825  1.0000
  S   S139      1.0  0.42497  0.88809  0.07951  1.0000
  H   H767      1.0  0.56834  0.94128  0.05287  1.0000
  S   S140      1.0  0.48537  0.88139  0.03501  1.0000
  C   C451      1.0  0.46873  0.93003  0.21389  1.0000
  Fe  Fe69      1.0  0.38813  0.92910  0.26488  1.0000
  S   S141      1.0  0.35631  0.91944  0.29741  1.0000
  S   S142      1.0  0.40891  0.89785  0.23912  1.0000
  Fe  Fe70      1.0  0.33749  0.95370  0.27752  1.0000
  Fe  Fe71      1.0  0.37315  0.94281  0.33781  1.0000
  S   S143      1.0  0.37425  0.93026  0.39293  1.0000
  S   S144      1.0  0.40644  0.94979  0.30698  1.0000
  H   H768      1.0  0.47627  0.94434  0.23084  1.0000
  C   C452      1.0  0.38522  0.50153  0.02181  1.0000
  S   S145      1.0  0.60868  0.52929  0.33071  1.0000
  H   H769      1.0  0.42381  0.79419  0.40054  1.0000
  Fe  Fe72      1.0  0.36869  0.53031  0.15758  1.0000
  S   S146      1.0  0.39750  0.50663  0.18298  1.0000
  S   S147      1.0  0.37402  0.55973  0.11798  1.0000
  Fe  Fe73      1.0  0.37570  0.51295  0.23084  1.0000
  S   S148      1.0  0.39273  0.51522  0.28368  1.0000
  S   S149      1.0  0.34932  0.53949  0.20635  1.0000
  C   C453      1.0  0.35707  0.87212  0.15374  1.0000
  S   S150      1.0  0.44280  0.63477  0.45696  1.0000
  H   H770      1.0  0.40617  0.95697  0.00992  1.0000
  Fe  Fe74      1.0  0.49171  0.58493  0.43009  1.0000
  S   S151      1.0  0.48266  0.61796  0.39773  1.0000
  S   S152      1.0  0.51217  0.54933  0.41681  1.0000
  Fe  Fe75      1.0  0.48254  0.64034  0.44668  1.0000
  S   S153      1.0  0.50218  0.67653  0.45681  1.0000
  Fe  Fe76      1.0  0.44358  0.61003  0.41058  1.0000
  S   S154      1.0  0.41541  0.61174  0.36770  1.0000
  S   S155      1.0  0.49523  0.60763  0.47761  1.0000
  S   S156      1.0  0.45248  0.57613  0.44064  1.0000
  C   C454      1.0  0.39722  0.54238  0.30713  1.0000
  C   C455      1.0  0.40820  0.54061  0.33947  1.0000
  C   C456      1.0  0.41340  0.56171  0.35846  1.0000
  C   C457      1.0  0.40764  0.58485  0.34529  1.0000
  C   C458      1.0  0.39595  0.58665  0.31331  1.0000
  C   C459      1.0  0.39083  0.56547  0.29416  1.0000
  H   H771      1.0  0.41307  0.52279  0.34973  1.0000
  H   H772      1.0  0.42206  0.56006  0.38320  1.0000
  H   H773      1.0  0.39133  0.60451  0.30301  1.0000
  H   H774      1.0  0.38244  0.56703  0.26918  1.0000
  C   C460      1.0  0.40325  0.56643  0.10274  1.0000
  C   C461      1.0  0.42419  0.55389  0.11444  1.0000
  C   C462      1.0  0.44707  0.55886  0.10025  1.0000
  C   C463      1.0  0.44897  0.57594  0.07383  1.0000
  C   C464      1.0  0.42808  0.58863  0.06235  1.0000
  C   C465      1.0  0.40534  0.58409  0.07709  1.0000
  H   H775      1.0  0.42273  0.54029  0.13422  1.0000
  H   H776      1.0  0.46323  0.54910  0.10929  1.0000
  H   H777      1.0  0.35764  0.88256  0.23787  1.0000
  H   H778      1.0  0.38919  0.59393  0.06814  1.0000
  C   C466      1.0  0.58114  0.53509  0.35302  1.0000
  C   C467      1.0  0.57744  0.55784  0.36923  1.0000
  C   C468      1.0  0.55614  0.56280  0.38826  1.0000
  C   C469      1.0  0.53842  0.54493  0.39134  1.0000
  C   C470      1.0  0.54192  0.52235  0.37465  1.0000
  C   C471      1.0  0.56308  0.51749  0.35539  1.0000
  H   H779      1.0  0.59131  0.57160  0.36743  1.0000
  H   H780      1.0  0.55370  0.58023  0.40107  1.0000
  H   H781      1.0  0.52821  0.50849  0.37667  1.0000
  H   H782      1.0  0.56556  0.50002  0.34278  1.0000
  H   H783      1.0  0.45658  0.95360  0.01150  1.0000
  H   H784      1.0  0.52297  0.52459  0.04384  1.0000
  H   H785      1.0  0.52786  0.93131  0.12642  1.0000
  C   C472      1.0  0.49101  0.70598  0.47035  1.0000
  H   H786      1.0  0.54066  0.64677  0.03704  1.0000
  C   C473      1.0  0.47379  0.53623  0.34301  1.0000
  C   C474      1.0  0.40394  0.82061  0.37022  1.0000
  H   H787      1.0  0.41743  0.54113  0.04156  1.0000
  H   H788      1.0  0.40074  0.50929  0.07310  1.0000
  H   H789      1.0  0.34641  0.56401  0.37773  1.0000
  C   C475      1.0  0.40214  0.92161  0.41279  1.0000
  C   C476      1.0  0.40181  0.91123  0.44550  1.0000
  C   C477      1.0  0.42370  0.90406  0.46199  1.0000
  C   C478      1.0  0.44607  0.90728  0.44582  1.0000
  C   C479      1.0  0.44645  0.91792  0.41333  1.0000
  C   C480      1.0  0.42457  0.92503  0.39683  1.0000
  H   H790      1.0  0.38452  0.90868  0.45809  1.0000
  C   C481      1.0  0.46021  0.97915  0.44395  1.0000
  H   H791      1.0  0.46371  0.92037  0.40064  1.0000
  H   H792      1.0  0.42508  0.93303  0.37174  1.0000
  C   C482      1.0  0.42169  0.89119  0.12404  1.0000
  C   C483      1.0  0.41039  0.91240  0.13743  1.0000
  C   C484      1.0  0.40686  0.91498  0.17279  1.0000
  C   C485      1.0  0.41412  0.89611  0.19484  1.0000
  C   C486      1.0  0.42564  0.87505  0.18146  1.0000
  C   C487      1.0  0.42948  0.87261  0.14620  1.0000
  H   H793      1.0  0.40438  0.92689  0.12040  1.0000
  H   H794      1.0  0.39848  0.93149  0.18301  1.0000
  H   H795      1.0  0.43139  0.86042  0.19842  1.0000
  H   H796      1.0  0.43806  0.85614  0.13612  1.0000
  C   C488      1.0  0.58472  0.93274  0.10168  1.0000
  C   C489      1.0  0.58591  0.91561  0.12810  1.0000
  C   C490      1.0  0.57217  0.89408  0.12604  1.0000
  C   C491      1.0  0.55670  0.88962  0.09795  1.0000
  C   C492      1.0  0.55508  0.90701  0.07190  1.0000
  C   C493      1.0  0.56921  0.92830  0.07362  1.0000
  H   H797      1.0  0.59802  0.91856  0.14957  1.0000
  H   H798      1.0  0.57373  0.88066  0.14619  1.0000
  H   H799      1.0  0.54341  0.90379  0.05004  1.0000
  H   H800      1.0  0.52260  0.65381  0.09407  1.0000
  H   H801      1.0  0.34841  0.85395  0.21816  1.0000
  H   H802      1.0  0.47346  0.78999  0.39599  1.0000
  H   H803      1.0  0.48757  0.78834  0.43710  1.0000
  Fe  Fe77      1.0  0.38517  0.98238  0.28746  1.0000
  H   H804      1.0  0.53982  0.94798  0.48526  1.0000
  C   C494      1.0  0.32156  0.54307  0.28336  1.0000
  C   C495      1.0  0.54583  0.94418  0.18550  1.0000
  H   H805      1.0  0.49203  0.69596  0.04718  1.0000
  C   C496      1.0  0.40550  0.82578  0.45661  1.0000
  N   N33       1.0  0.32204  0.89571  0.18559  1.0000
  C   C497      1.0  0.32944  0.87830  0.15731  1.0000
  H   H806      1.0  0.42941  0.60196  0.04219  1.0000
  H   H807      1.0  0.46400  0.92221  0.16084  1.0000
  C   C498      1.0  0.51797  0.94456  0.19156  1.0000
  S   S157      1.0  0.50811  0.82711  0.01440  1.0000
  H   H808      1.0  0.44481  0.53943  0.26793  1.0000
  H   H809      1.0  0.46634  0.96352  0.42770  1.0000
  H   H810      1.0  0.34259  0.49739  0.29180  1.0000
  H   H811      1.0  0.33807  0.86251  0.25949  1.0000
  H   H812      1.0  0.36669  0.49685  0.01209  1.0000
  H   H813      1.0  0.32622  0.94538  0.15562  1.0000
  H   H814      1.0  0.39961  0.84034  0.37256  1.0000
  H   H815      1.0  0.47155  0.95269  0.16934  1.0000
  H   H816      1.0  0.50219  0.86542  0.15678  1.0000
  C   C499      1.0  0.50828  0.93476  0.13247  1.0000
  H   H817      1.0  0.50016  0.90161  0.10330  1.0000
  H   H818      1.0  0.43426  0.49309  0.01167  1.0000
  H   H819      1.0  0.55490  0.95458  0.20627  1.0000
  H   H820      1.0  0.46332  0.52714  0.32248  1.0000
  C   C500      1.0  0.49991  0.74670  0.49383  1.0000
  H   H821      1.0  0.57694  0.50929  0.42322  1.0000
  C   C501      1.0  0.44353  0.96927  0.01204  1.0000
  H   H822      1.0  0.47352  0.65997  0.02520  1.0000
  H   H823      1.0  0.43198  0.85418  0.45343  1.0000
  H   H824      1.0  0.41052  0.97538  0.42138  1.0000
  H   H825      1.0  0.43302  0.65731  0.07961  1.0000
  S   S158      1.0  0.36898  0.96201  0.24236  1.0000
  H   H826      1.0  0.40477  0.81655  0.34245  1.0000
  H   H827      1.0  0.50483  0.95471  0.12842  1.0000
  H   H828      1.0  0.50040  0.70280  0.12462  1.0000
  S   S159      1.0  0.63984  0.97344  0.19510  1.0000
  C   C502      1.0  0.33437  0.56422  0.35478  1.0000
  C   C503      1.0  0.34244  0.86983  0.23389  1.0000
  H   H829      1.0  0.36820  0.87450  0.17702  1.0000
  C   C504      1.0  0.55594  0.95825  0.49378  1.0000
  H   H830      1.0  0.42101  0.91806  0.01633  1.0000
  H   H831      1.0  0.32361  0.88596  0.13216  1.0000
  C   C505      1.0  0.56590  0.51998  0.47342  1.0000
  H   H832      1.0  0.60014  0.50654  0.45477  1.0000
  H   H833      1.0  0.51148  0.96396  0.18914  1.0000
  C   C506      1.0  0.33960  0.91636  0.19037  1.0000
  C   C507      1.0  0.47643  0.93346  0.17645  1.0000
  C   C508      1.0  0.31934  0.88240  0.21898  1.0000
  H   H834      1.0  0.38826  0.81022  0.38003  1.0000
  H   H835      1.0  0.32058  0.52912  0.36918  1.0000
  H   H836      1.0  0.52794  0.89700  0.16305  1.0000
  C   C509      1.0  0.41905  0.53173  0.01657  1.0000
  H   H837      1.0  0.55376  0.92537  0.18592  1.0000
  H   H838      1.0  0.44106  0.80648  0.36685  1.0000
  H   H839      1.0  0.52719  0.71918  0.48055  1.0000
  H   H840      1.0  0.45283  0.69892  0.46288  1.0000
  H   H841      1.0  0.35943  0.85263  0.14611  1.0000
  C   C510      1.0  0.47894  0.80111  0.41832  1.0000
  H   H842      1.0  0.43883  0.68317  0.05223  1.0000
  C   C511      1.0  0.50783  0.72358  0.48133  1.0000
  H   H843      1.0  0.52486  0.69576  0.09497  1.0000
  H   H844      1.0  0.44687  0.79967  0.44848  1.0000
  H   H845      1.0  0.43920  0.97176  0.03950  1.0000
  H   H846      1.0  0.33821  0.48784  0.33538  1.0000
  N   N34       1.0  0.44005  0.82897  0.41233  1.0000
  C   C512      1.0  0.45701  0.81430  0.43542  1.0000
  C   C513      1.0  0.42205  0.84223  0.43520  1.0000
  C   C514      1.0  0.45517  0.84749  0.39399  1.0000
  C   C515      1.0  0.42808  0.81169  0.38752  1.0000
  H   H847      1.0  0.42998  0.65468  0.03457  1.0000
  C   C516      1.0  0.49198  0.88179  0.16647  1.0000
  C   C517      1.0  0.44166  0.86419  0.36817  1.0000
  H   H848      1.0  0.47864  0.88680  0.14637  1.0000
  H   H849      1.0  0.51422  0.89933  0.20388  1.0000
  C   C518      1.0  0.46605  0.71209  0.47138  1.0000
  H   H850      1.0  0.40986  0.85510  0.42113  1.0000
  C   C519      1.0  0.38358  0.50303  0.06108  1.0000
  H   H851      1.0  0.46459  0.85948  0.41279  1.0000
  H   H852      1.0  0.46987  0.83835  0.37892  1.0000
  H   H853      1.0  0.39140  0.83745  0.46935  1.0000
  H   H854      1.0  0.35811  0.90982  0.19779  1.0000
  H   H855      1.0  0.35812  0.94558  0.16402  1.0000
  H   H856      1.0  0.42324  0.89608  0.48719  1.0000
  H   H857      1.0  0.57065  0.95256  0.47570  1.0000
  H   H858      1.0  0.51579  0.93972  0.21890  1.0000
  H   H859      1.0  0.46292  0.53487  0.36673  1.0000
  H   H860      1.0  0.34588  0.52846  0.34076  1.0000
  H   H861      1.0  0.43557  0.85379  0.34543  1.0000
  H   H862      1.0  0.45456  0.87805  0.35881  1.0000
  H   H863      1.0  0.42610  0.87453  0.37941  1.0000
  H   H864      1.0  0.57182  0.51794  0.50041  1.0000
  H   H865      1.0  0.41589  0.81628  0.47725  1.0000
  H   H866      1.0  0.51295  0.65561  0.01606  1.0000
  H   H867      1.0  0.44284  0.97259  0.45487  1.0000
  H   H868      1.0  0.49329  0.81413  0.41115  1.0000
  S   S160      1.0  0.46302  0.77035  0.03546  1.0000
  H   H869      1.0  0.55063  0.95342  0.16134  1.0000
  H   H870      1.0  0.47380  0.91162  0.22371  1.0000
  C   C520      1.0  0.32792  0.53769  0.34572  1.0000
  H   H871      1.0  0.48645  0.96245  0.47896  1.0000
  H   H872      1.0  0.44272  0.56888  0.28769  1.0000
  H   H873      1.0  0.51761  0.53917  0.31165  1.0000
  H   H874      1.0  0.37614  0.54892  0.04031  1.0000
  S   S161      1.0  0.47756  0.58116  0.05547  1.0000
  H   H875      1.0  0.49881  0.92903  0.07938  1.0000
  H   H876      1.0  0.47408  0.92276  0.10702  1.0000
  H   H877      1.0  0.49107  0.52599  0.34798  1.0000
  H   H878      1.0  0.46458  0.82603  0.45612  1.0000
  C   C521      1.0  0.44106  0.66310  0.05516  1.0000
  N   N35       1.0  0.48568  0.66366  0.07757  1.0000
  C   C522      1.0  0.48752  0.69100  0.07383  1.0000
  C   C523      1.0  0.46793  0.65442  0.05118  1.0000
  C   C524      1.0  0.51010  0.65101  0.07195  1.0000
  C   C525      1.0  0.47718  0.65808  0.11314  1.0000
  C   C526      1.0  0.50611  0.70349  0.09757  1.0000
  H   H879      1.0  0.44856  0.93211  0.21563  1.0000
  C   C527      1.0  0.52390  0.65844  0.03948  1.0000
  C   C528      1.0  0.47114  0.63109  0.12010  1.0000
  H   H880      1.0  0.33570  0.57721  0.26375  1.0000
  H   H881      1.0  0.46964  0.70031  0.07889  1.0000
  H   H882      1.0  0.46816  0.63407  0.05043  1.0000
  H   H883      1.0  0.44641  0.97855  0.38009  1.0000
  N   N36       1.0  0.50302  0.92801  0.16894  1.0000
  H   H884      1.0  0.50795  0.63082  0.07014  1.0000
  H   H885      1.0  0.49136  0.66301  0.13227  1.0000
  H   H886      1.0  0.46079  0.66949  0.11980  1.0000
  C   C529      1.0  0.51048  0.90175  0.17611  1.0000
  H   H887      1.0  0.48213  0.87548  0.18938  1.0000
  H   H888      1.0  0.31817  0.57574  0.36120  1.0000
  H   H889      1.0  0.34516  0.57271  0.33431  1.0000
  H   H890      1.0  0.54595  0.51796  0.47113  1.0000
  C   C530      1.0  0.49419  0.92108  0.10451  1.0000
  H   H891      1.0  0.43879  0.73964  0.48452  1.0000
  C   C531      1.0  0.34256  0.93328  0.15930  1.0000
  H   H892      1.0  0.36512  0.88274  0.13263  1.0000
  H   H893      1.0  0.45523  0.62496  0.10494  1.0000
  H   H894      1.0  0.46617  0.62906  0.14736  1.0000
  H   H895      1.0  0.48691  0.61854  0.11528  1.0000
  N   N37       1.0  0.49140  0.56899  0.30303  1.0000
  C   C532      1.0  0.51726  0.55931  0.30788  1.0000
  C   C533      1.0  0.47794  0.56352  0.33552  1.0000
  C   C534      1.0  0.49277  0.59634  0.29854  1.0000
  C   C535      1.0  0.48053  0.55688  0.27198  1.0000
  C   C536      1.0  0.53534  0.56391  0.27864  1.0000
  C   C537      1.0  0.47809  0.98085  0.47434  1.0000
  C   C538      1.0  0.46844  0.61088  0.29522  1.0000
  C   C539      1.0  0.45237  0.55814  0.26796  1.0000
  H   H896      1.0  0.52553  0.56729  0.33129  1.0000
  C   C540      1.0  0.58052  0.50272  0.44958  1.0000
  H   H897      1.0  0.45980  0.57264  0.33655  1.0000
  H   H898      1.0  0.48779  0.57127  0.35788  1.0000
  H   H899      1.0  0.50300  0.60455  0.32033  1.0000
  H   H900      1.0  0.50307  0.60082  0.27514  1.0000
  H   H901      1.0  0.48829  0.56471  0.24833  1.0000
  H   H902      1.0  0.48590  0.53709  0.27138  1.0000
  H   H903      1.0  0.55286  0.55408  0.28459  1.0000
  H   H904      1.0  0.52882  0.55672  0.25383  1.0000
  H   H905      1.0  0.53986  0.58351  0.27646  1.0000
  H   H906      1.0  0.34645  0.92294  0.13555  1.0000
  C   C541      1.0  0.45669  0.72470  0.00681  1.0000
  H   H907      1.0  0.33369  0.92815  0.21212  1.0000
  H   H908      1.0  0.45656  0.60923  0.31778  1.0000
  H   H909      1.0  0.45838  0.60620  0.27158  1.0000
  H   H910      1.0  0.47255  0.63065  0.29334  1.0000
  H   H911      1.0  0.44727  0.56636  0.24296  1.0000
  H   H912      1.0  0.39585  0.81213  0.44089  1.0000
  H   H913      1.0  0.60863  0.48931  0.39649  1.0000
  H   H914      1.0  0.31974  0.86071  0.15986  1.0000
  H   H915      1.0  0.56960  0.53919  0.46616  1.0000
  Fe  Fe78      1.0  0.45537  0.60117  0.48575  1.0000
  Fe  Fe79      1.0  0.61992  0.98107  0.14512  1.0000
  C   C542      1.0  0.37597  0.54463  0.01255  1.0000
  C   C543      1.0  0.47267  0.74440  0.01077  1.0000
  H   H916      1.0  0.55959  0.48683  0.02582  1.0000
  S   S162      1.0  0.34362  0.49959  0.14439  1.0000
  H   H917      1.0  0.44343  0.50950  0.04923  1.0000
  H   H918      1.0  0.49902  0.97726  0.39865  1.0000
  S   S163      1.0  0.35232  0.97672  0.32101  1.0000
  H   H919      1.0  0.34145  0.53840  0.28261  1.0000
  H   H920      1.0  0.43871  0.72594  0.01806  1.0000
  H   H921      1.0  0.36815  0.51506  0.06940  1.0000
  Fe  Fe80      1.0  0.61850  0.49286  0.30538  1.0000
  Fe  Fe81      1.0  0.32586  0.50689  0.19550  1.0000
  H   H922      1.0  0.52990  0.67768  0.04039  1.0000
  H   H923      1.0  0.36759  0.58344  0.00612  1.0000
  H   H924      1.0  0.52339  0.48555  0.06814  1.0000
  H   H925      1.0  0.52163  0.49431  0.43726  1.0000
  H   H926      1.0  0.54298  0.90940  0.49605  1.0000
  C   C544      1.0  0.45814  0.73528  0.48364  1.0000
  C   C545      1.0  0.50978  0.51917  0.02367  1.0000
  H   H927      1.0  0.45576  0.51685  0.00884  1.0000
  H   H928      1.0  0.35695  0.53898  0.00662  1.0000
  C   C546      1.0  0.32922  0.49031  0.31012  1.0000
  H   H929      1.0  0.64187  0.98397  0.33030  1.0000
  H   H930      1.0  0.40293  0.98351  0.37858  1.0000
  H   H931      1.0  0.49986  0.53595  0.01480  1.0000
  C   C547      1.0  0.47496  0.75268  0.49528  1.0000
  C   C548      1.0  0.31851  0.57069  0.27518  1.0000
  N   N38       1.0  0.39411  0.52422  0.00436  1.0000
  H   H932      1.0  0.39658  0.48512  0.01594  1.0000
  H   H933      1.0  0.64360  0.48538  0.15205  1.0000
  H   H934      1.0  0.48649  0.49583  0.59413  1.0000
  H   H935      1.0  0.49953  0.95979  0.70968  1.0000
  S   S164      1.0  0.56978  0.95677  0.68300  1.0000
  C   C549      1.0  0.33721  0.91104  0.68837  1.0000
  S   S165      1.0  0.44580  0.84684  0.52754  1.0000
  S   S166      1.0  0.48365  0.86728  0.93665  1.0000
  Fe  Fe82      1.0  0.50979  0.85701  0.56671  1.0000
  S   S167      1.0  0.48444  0.82855  0.58691  1.0000
  S   S168      1.0  0.54746  0.86463  0.58893  1.0000
  Fe  Fe83      1.0  0.47638  0.81858  0.53207  1.0000
  Fe  Fe84      1.0  0.34832  0.97019  0.79483  1.0000
  Fe  Fe85      1.0  0.45568  0.85818  0.58090  1.0000
  S   S169      1.0  0.42808  0.86119  0.62345  1.0000
  H   H936      1.0  0.60194  0.92006  0.65088  1.0000
  S   S170      1.0  0.48148  0.88713  0.56418  1.0000
  S   S171      1.0  0.36615  0.96451  0.84642  1.0000
  Fe  Fe86      1.0  0.39578  0.95875  0.75805  1.0000
  S   S172      1.0  0.36431  0.93536  0.77304  1.0000
  S   S173      1.0  0.41307  0.96000  0.70594  1.0000
  H   H937      1.0  0.33601  0.91858  0.71453  1.0000
  Fe  Fe87      1.0  0.38459  0.93152  0.82318  1.0000
  S   S174      1.0  0.38670  0.89724  0.85548  1.0000
  S   S175      1.0  0.41742  0.95159  0.80583  1.0000
  H   H938      1.0  0.41834  0.50700  0.60335  1.0000
  H   H939      1.0  0.51345  0.51286  0.96936  1.0000
  S   S176      1.0  0.60445  0.53584  0.79920  1.0000
  H   H940      1.0  0.49449  0.91441  0.67028  1.0000
  Fe  Fe88      1.0  0.37040  0.51558  0.65426  1.0000
  S   S177      1.0  0.40758  0.51406  0.67785  1.0000
  S   S178      1.0  0.36347  0.52840  0.60013  1.0000
  Fe  Fe89      1.0  0.38922  0.52574  0.72637  1.0000
  S   S179      1.0  0.41059  0.55553  0.75268  1.0000
  S   S180      1.0  0.35221  0.53062  0.70138  1.0000
  C   C550      1.0  0.39371  0.52052  0.96622  1.0000
  S   S181      1.0  0.45107  0.62159  0.97633  1.0000
  H   H941      1.0  0.54275  0.50447  0.79096  1.0000
  Fe  Fe90      1.0  0.50404  0.58215  0.93432  1.0000
  S   S182      1.0  0.48134  0.60964  0.90445  1.0000
  S   S183      1.0  0.52702  0.54878  0.91857  1.0000
  Fe  Fe91      1.0  0.48505  0.63485  0.95073  1.0000
  S   S184      1.0  0.49656  0.67521  0.94959  1.0000
  Fe  Fe92      1.0  0.44924  0.59470  0.93258  1.0000
  S   S185      1.0  0.41481  0.57789  0.91162  1.0000
  H   H942      1.0  0.43032  0.65695  0.57189  1.0000
  S   S186      1.0  0.47156  0.56627  0.95986  1.0000
  C   C551      1.0  0.41091  0.56144  0.79693  1.0000
  C   C552      1.0  0.42649  0.57951  0.80949  1.0000
  C   C553      1.0  0.42813  0.58431  0.84464  1.0000
  C   C554      1.0  0.41374  0.57149  0.86749  1.0000
  C   C555      1.0  0.39796  0.55354  0.85497  1.0000
  C   C556      1.0  0.39673  0.54833  0.81978  1.0000
  H   H943      1.0  0.43740  0.58981  0.79192  1.0000
  H   H944      1.0  0.44008  0.59838  0.85395  1.0000
  H   H945      1.0  0.38668  0.54363  0.87251  1.0000
  H   H946      1.0  0.38466  0.53439  0.81030  1.0000
  C   C557      1.0  0.38631  0.54723  0.58351  1.0000
  C   C558      1.0  0.40298  0.55851  0.60530  1.0000
  C   C559      1.0  0.42145  0.57299  0.59190  1.0000
  C   C560      1.0  0.42349  0.57634  0.55660  1.0000
  C   C561      1.0  0.40680  0.56515  0.53463  1.0000
  C   C562      1.0  0.38819  0.55066  0.54812  1.0000
  H   H947      1.0  0.40146  0.55640  0.63259  1.0000
  H   H948      1.0  0.43421  0.58168  0.60905  1.0000
  C   C563      1.0  0.54445  0.95933  0.55590  1.0000
  H   H949      1.0  0.37533  0.54201  0.53111  1.0000
  C   C564      1.0  0.58296  0.53936  0.83246  1.0000
  C   C565      1.0  0.57354  0.56280  0.84044  1.0000
  C   C566      1.0  0.55627  0.56612  0.86666  1.0000
  C   C567      1.0  0.54854  0.54598  0.88530  1.0000
  C   C568      1.0  0.55799  0.52259  0.87735  1.0000
  C   C569      1.0  0.57505  0.51925  0.85102  1.0000
  H   H950      1.0  0.57963  0.57845  0.82624  1.0000
  H   H951      1.0  0.54917  0.58423  0.87261  1.0000
  H   H952      1.0  0.55195  0.50690  0.89140  1.0000
  H   H953      1.0  0.58230  0.50117  0.84534  1.0000
  C   C570      1.0  0.41039  0.50005  0.95172  1.0000
  H   H954      1.0  0.46953  0.64237  0.53789  1.0000
  C   C571      1.0  0.46344  0.66167  0.54052  1.0000
  C   C572      1.0  0.51422  0.56717  0.79613  1.0000
  H   H955      1.0  0.46904  0.97663  0.91254  1.0000
  C   C573      1.0  0.46779  0.70117  0.56816  1.0000
  H   H956      1.0  0.48479  0.71249  0.61704  1.0000
  H   H957      1.0  0.52048  0.64201  0.57824  1.0000
  H   H958      1.0  0.47386  0.86390  0.68705  1.0000
  H   H959      1.0  0.36541  0.93171  0.66561  1.0000
  C   C574      1.0  0.41387  0.88922  0.87766  1.0000
  C   C575      1.0  0.41256  0.87395  0.90626  1.0000
  C   C576      1.0  0.43379  0.86721  0.92463  1.0000
  C   C577      1.0  0.45663  0.87521  0.91405  1.0000
  C   C578      1.0  0.45801  0.89008  0.88502  1.0000
  C   C579      1.0  0.43668  0.89736  0.86715  1.0000
  H   H960      1.0  0.39498  0.86758  0.91452  1.0000
  H   H961      1.0  0.43236  0.85595  0.94701  1.0000
  H   H962      1.0  0.47561  0.89634  0.87667  1.0000
  H   H963      1.0  0.43793  0.90893  0.84499  1.0000
  C   C580      1.0  0.42345  0.88896  0.64546  1.0000
  C   C581      1.0  0.41274  0.88859  0.67787  1.0000
  C   C582      1.0  0.40945  0.91031  0.69666  1.0000
  C   C583      1.0  0.41649  0.93258  0.68281  1.0000
  C   C584      1.0  0.42673  0.93306  0.65011  1.0000
  C   C585      1.0  0.43035  0.91127  0.63151  1.0000
  H   H964      1.0  0.40729  0.87136  0.68866  1.0000
  H   H965      1.0  0.40151  0.90978  0.72183  1.0000
  H   H966      1.0  0.43214  0.95029  0.63929  1.0000
  H   H967      1.0  0.43843  0.91171  0.60642  1.0000
  C   C586      1.0  0.56458  0.93294  0.65325  1.0000
  C   C587      1.0  0.54051  0.92846  0.64267  1.0000
  C   C588      1.0  0.53508  0.90792  0.62245  1.0000
  C   C589      1.0  0.55368  0.89141  0.61291  1.0000
  C   C590      1.0  0.57786  0.89620  0.62279  1.0000
  C   C591      1.0  0.58334  0.91698  0.64262  1.0000
  H   H968      1.0  0.52598  0.94096  0.65034  1.0000
  H   H969      1.0  0.51646  0.90460  0.61483  1.0000
  H   H970      1.0  0.59241  0.88357  0.61551  1.0000
  H   H971      1.0  0.45480  0.62991  0.60669  1.0000
  S   S187      1.0  0.44748  0.59430  0.54152  1.0000
  C   C592      1.0  0.48117  0.88854  0.74745  1.0000
  H   H972      1.0  0.48992  0.67039  0.61985  1.0000
  C   C593      1.0  0.51789  0.65134  0.55338  1.0000
  H   H973      1.0  0.50514  0.89450  0.79224  1.0000
  C   C594      1.0  0.46187  0.50838  0.76294  1.0000
  H   H974      1.0  0.45086  0.68880  0.98488  1.0000
  H   H975      1.0  0.47921  0.52714  0.63625  1.0000
  H   H976      1.0  0.42467  0.79029  0.98246  1.0000
  H   H977      1.0  0.61377  0.97456  0.57610  1.0000
  H   H978      1.0  0.32901  0.95994  0.71902  1.0000
  H   H979      1.0  0.51880  0.49221  0.76615  1.0000
  H   H980      1.0  0.42699  0.67943  0.53815  1.0000
  C   C595      1.0  0.42462  0.48846  0.59524  1.0000
  C   C596      1.0  0.59826  0.96191  0.57308  1.0000
  C   C597      1.0  0.46646  0.52415  0.83461  1.0000
  C   C598      1.0  0.52314  0.50721  0.99320  1.0000
  C   C599      1.0  0.50668  0.51162  0.81257  1.0000
  H   H981      1.0  0.47095  0.96742  0.95614  1.0000
  H   H982      1.0  0.47941  0.87578  0.79984  1.0000
  C   C600      1.0  0.43422  0.96488  0.93214  1.0000
  H   H983      1.0  0.48427  0.87536  0.64756  1.0000
  H   H984      1.0  0.52074  0.72003  0.96610  1.0000
  H   H985      1.0  0.41247  0.81060  0.85869  1.0000
  H   H986      1.0  0.60081  0.96195  0.51819  1.0000
  H   H987      1.0  0.44409  0.50642  0.77605  1.0000
  H   H988      1.0  0.41272  0.78494  0.94083  1.0000
  H   H989      1.0  0.38872  0.97954  0.91664  1.0000
  H   H990      1.0  0.46785  0.74648  0.85865  1.0000
  N   N39       1.0  0.48635  0.53065  0.80982  1.0000
  C   C601      1.0  0.42268  0.90910  0.99106  1.0000
  H   H991      1.0  0.49048  0.51584  0.87904  1.0000
  C   C602      1.0  0.49524  0.55568  0.81961  1.0000
  H   H992      1.0  0.40823  0.56767  0.50736  1.0000
  C   C603      1.0  0.47313  0.52572  0.87287  1.0000
  H   H993      1.0  0.53187  0.55690  0.79705  1.0000
  H   H994      1.0  0.55816  0.88823  0.52332  1.0000
  H   H995      1.0  0.46019  0.50516  0.83016  1.0000
  H   H996      1.0  0.44697  0.52658  0.63096  1.0000
  Fe  Fe93      1.0  0.61728  0.49806  0.78188  1.0000
  C   C604      1.0  0.46360  0.70350  0.98819  1.0000
  C   C605      1.0  0.50277  0.72124  0.97741  1.0000
  C   C606      1.0  0.41960  0.96498  0.99211  1.0000
  C   C607      1.0  0.48683  0.70148  0.97361  1.0000
  Fe  Fe94      1.0  0.47642  0.59394  0.00085  1.0000
  H   H997      1.0  0.45350  0.92751  0.97131  1.0000
  H   H998      1.0  0.50874  0.94532  0.56934  1.0000
  H   H999      1.0  0.47302  0.50076  0.50743  1.0000
  H   H1000     1.0  0.46877  0.94483  0.92236  1.0000
  C   C608      1.0  0.51744  0.95403  0.54704  1.0000
  H   H1001     1.0  0.45000  0.53607  0.83065  1.0000
  H   H1002     1.0  0.41705  0.81749  0.90265  1.0000
  H   H1003     1.0  0.47988  0.49000  0.96639  1.0000
  C   C609      1.0  0.36857  0.97270  0.63010  1.0000
  H   H1004     1.0  0.37473  0.51701  0.95723  1.0000
  H   H1005     1.0  0.46112  0.54706  0.77343  1.0000
  H   H1006     1.0  0.37711  0.97927  0.65403  1.0000
  Fe  Fe95      1.0  0.48154  0.85482  0.99167  1.0000
  N   N40       1.0  0.46055  0.78590  0.90857  1.0000
  C   C610      1.0  0.46953  0.75976  0.91187  1.0000
  C   C611      1.0  0.45194  0.79463  0.94306  1.0000
  C   C612      1.0  0.48067  0.80231  0.89692  1.0000
  C   C613      1.0  0.44013  0.78697  0.88260  1.0000
  C   C614      1.0  0.48126  0.74828  0.87978  1.0000
  C   C615      1.0  0.42909  0.78213  0.95719  1.0000
  C   C616      1.0  0.50462  0.80095  0.91789  1.0000
  C   C617      1.0  0.42665  0.81195  0.87898  1.0000
  H   H1007     1.0  0.48298  0.75792  0.93304  1.0000
  H   H1008     1.0  0.45436  0.74757  0.91892  1.0000
  H   H1009     1.0  0.44824  0.81469  0.94290  1.0000
  H   H1010     1.0  0.46650  0.79178  0.96269  1.0000
  H   H1011     1.0  0.48533  0.79878  0.86974  1.0000
  H   H1012     1.0  0.47455  0.82182  0.89779  1.0000
  H   H1013     1.0  0.44712  0.78234  0.85675  1.0000
  H   H1014     1.0  0.42623  0.77296  0.88813  1.0000
  H   H1015     1.0  0.49733  0.75844  0.87097  1.0000
  H   H1016     1.0  0.48789  0.72946  0.88614  1.0000
  H   H1017     1.0  0.60601  0.94314  0.57605  1.0000
  C   C618      1.0  0.34012  0.96706  0.69771  1.0000
  H   H1018     1.0  0.47074  0.73671  0.59273  1.0000
  H   H1019     1.0  0.51378  0.78272  0.91650  1.0000
  H   H1020     1.0  0.50167  0.80613  0.94489  1.0000
  H   H1021     1.0  0.51754  0.81438  0.90743  1.0000
  H   H1022     1.0  0.50710  0.97144  0.54260  1.0000
  H   H1023     1.0  0.36233  0.96259  0.92684  1.0000
  H   H1024     1.0  0.43904  0.82671  0.87132  1.0000
  N   N41       1.0  0.49027  0.90848  0.72458  1.0000
  C   C619      1.0  0.47666  0.93183  0.73421  1.0000
  H   H1025     1.0  0.37791  0.95545  0.62198  1.0000
  C   C620      1.0  0.48408  0.90272  0.68786  1.0000
  C   C621      1.0  0.51723  0.91281  0.72906  1.0000
  C   C622      1.0  0.48025  0.95400  0.71051  1.0000
  C   C623      1.0  0.48552  0.89227  0.78604  1.0000
  H   H1026     1.0  0.48640  0.51416  0.54530  1.0000
  H   H1027     1.0  0.44852  0.70194  0.57703  1.0000
  H   H1028     1.0  0.45659  0.92873  0.73526  1.0000
  H   H1029     1.0  0.48201  0.93811  0.76018  1.0000
  H   H1030     1.0  0.42823  0.95887  0.90619  1.0000
  H   H1031     1.0  0.49887  0.49324  0.81688  1.0000
  C   C624      1.0  0.39579  0.94577  0.94674  1.0000
  H   H1032     1.0  0.34269  0.92198  0.63636  1.0000
  H   H1033     1.0  0.51499  0.68627  0.57657  1.0000
  H   H1034     1.0  0.52141  0.92120  0.75429  1.0000
  C   C625      1.0  0.55008  0.90703  0.52236  1.0000
  H   H1035     1.0  0.47339  0.95061  0.68427  1.0000
  H   H1036     1.0  0.46935  0.96979  0.72052  1.0000
  H   H1037     1.0  0.43422  0.91603  0.93960  1.0000
  H   H1038     1.0  0.48289  0.62994  0.62916  1.0000
  H   H1039     1.0  0.48937  0.87043  0.74100  1.0000
  N   N42       1.0  0.56351  0.95213  0.52991  1.0000
  H   H1040     1.0  0.46113  0.88627  0.74345  1.0000
  H   H1041     1.0  0.46454  0.90716  0.68279  1.0000
  H   H1042     1.0  0.49933  0.72444  0.57909  1.0000
  C   C626      1.0  0.53489  0.89082  0.72372  1.0000
  H   H1043     1.0  0.37457  0.56839  0.96697  1.0000
  C   C627      1.0  0.44645  0.50731  0.54844  1.0000
  H   H1044     1.0  0.46686  0.66961  0.51492  1.0000
  H   H1045     1.0  0.48814  0.53616  0.75470  1.0000
  H   H1046     1.0  0.40703  0.49874  0.92379  1.0000
  H   H1047     1.0  0.52777  0.87322  0.73254  1.0000
  H   H1048     1.0  0.52521  0.52445  0.76465  1.0000
  H   H1049     1.0  0.50618  0.86851  0.67996  1.0000
  N   N43       1.0  0.33290  0.95515  0.66438  1.0000
  H   H1050     1.0  0.32101  0.55912  0.65118  1.0000
  H   H1051     1.0  0.43756  0.52476  0.55690  1.0000
  C   C628      1.0  0.43549  0.66158  0.54548  1.0000
  C   C629      1.0  0.47494  0.66425  0.60269  1.0000
  S   S188      1.0  0.51060  0.60816  0.97793  1.0000
  H   H1052     1.0  0.39870  0.57586  0.99695  1.0000
  H   H1053     1.0  0.37624  0.98046  0.95938  1.0000
  H   H1054     1.0  0.50394  0.55538  0.84532  1.0000
  H   H1055     1.0  0.33436  0.96027  0.60972  1.0000
  H   H1056     1.0  0.39623  0.93353  0.92385  1.0000
  H   H1057     1.0  0.46784  0.53248  0.51861  1.0000
  C   C630      1.0  0.48172  0.71942  0.59080  1.0000
  H   H1058     1.0  0.39947  0.53733  0.95288  1.0000
  N   N44       1.0  0.47764  0.67513  0.56757  1.0000
  C   C631      1.0  0.34531  0.93022  0.66217  1.0000
  C   C632      1.0  0.47484  0.53176  0.77475  1.0000
  H   H1059     1.0  0.55171  0.89365  0.73917  1.0000
  H   H1060     1.0  0.57553  0.92024  0.55870  1.0000
  H   H1061     1.0  0.51828  0.51528  0.83533  1.0000
  H   H1062     1.0  0.45765  0.67116  0.61450  1.0000
  H   H1063     1.0  0.54867  0.95033  0.58070  1.0000
  H   H1064     1.0  0.45754  0.50981  0.73526  1.0000
  C   C633      1.0  0.50416  0.67598  0.55745  1.0000
  H   H1065     1.0  0.47335  0.49167  0.76674  1.0000
  C   C634      1.0  0.34075  0.96938  0.63356  1.0000
  H   H1066     1.0  0.46738  0.70895  0.54200  1.0000
  C   C635      1.0  0.48757  0.87603  0.67556  1.0000
  S   S189      1.0  0.46356  0.78116  0.51192  1.0000
  C   C636      1.0  0.46988  0.51363  0.52902  1.0000
  H   H1067     1.0  0.47951  0.56891  0.82140  1.0000
  S   S190      1.0  0.50448  0.84451  0.51216  1.0000
  H   H1068     1.0  0.47458  0.90790  0.79628  1.0000
  N   N45       1.0  0.42142  0.95052  0.95938  1.0000
  H   H1069     1.0  0.52337  0.92690  0.71085  1.0000
  C   C637      1.0  0.49582  0.74250  0.99593  1.0000
  H   H1070     1.0  0.58548  0.96617  0.59422  1.0000
  H   H1071     1.0  0.38507  0.93600  0.96626  1.0000
  H   H1072     1.0  0.39839  0.48956  0.55208  1.0000
  H   H1073     1.0  0.51813  0.58584  0.80576  1.0000
  H   H1074     1.0  0.42744  0.64753  0.52850  1.0000
  H   H1075     1.0  0.54035  0.88922  0.69654  1.0000
  C   C638      1.0  0.47400  0.63599  0.60498  1.0000
  C   C639      1.0  0.46237  0.96317  0.93131  1.0000
  C   C640      1.0  0.58649  0.96609  0.53757  1.0000
  H   H1076     1.0  0.50762  0.56936  0.76954  1.0000
  H   H1077     1.0  0.48328  0.62580  0.58427  1.0000
  C   C641      1.0  0.46444  0.52358  0.61742  1.0000
  C   C642      1.0  0.38023  0.96863  0.93702  1.0000
  H   H1078     1.0  0.50599  0.68599  0.53296  1.0000
  H   H1079     1.0  0.47415  0.54504  0.88154  1.0000
  H   H1080     1.0  0.43490  0.89281  0.99458  1.0000
  C   C643      1.0  0.52388  0.50845  0.78155  1.0000
  Fe  Fe96      1.0  0.34704  0.49111  0.71504  1.0000
  H   H1081     1.0  0.54071  0.51694  0.99142  1.0000
  S   S191      1.0  0.63644  0.98046  0.65027  1.0000
  H   H1082     1.0  0.46607  0.53735  0.59687  1.0000
  H   H1083     1.0  0.50914  0.63917  0.53457  1.0000
  H   H1084     1.0  0.56634  0.50152  0.95387  1.0000
  H   H1085     1.0  0.35081  0.89565  0.68890  1.0000
  H   H1086     1.0  0.58623  0.92082  0.51603  1.0000
  C   C644      1.0  0.57006  0.92524  0.53224  1.0000
  C   C645      1.0  0.37976  0.56929  0.99436  1.0000
  H   H1087     1.0  0.35941  0.96207  0.70420  1.0000
  H   H1088     1.0  0.43356  0.50042  0.52876  1.0000
  H   H1089     1.0  0.53498  0.90733  0.54104  1.0000
  C   C646      1.0  0.46755  0.49718  0.60381  1.0000
  S   S192      1.0  0.38322  0.48713  0.74338  1.0000
  H   H1090     1.0  0.53645  0.65485  0.54344  1.0000
  H   H1091     1.0  0.42911  0.98468  0.93388  1.0000
  H   H1092     1.0  0.43236  0.76233  0.96164  1.0000
  H   H1093     1.0  0.54525  0.97932  0.56138  1.0000
  H   H1094     1.0  0.41180  0.98358  0.98702  1.0000
  H   H1095     1.0  0.45843  0.51736  0.88803  1.0000
  H   H1096     1.0  0.42995  0.50450  0.95478  1.0000
  Fe  Fe97      1.0  0.47434  0.87309  0.51116  1.0000
  C   C647      1.0  0.43396  0.92598  0.96426  1.0000
  S   S193      1.0  0.62356  0.49054  0.72608  1.0000
  H   H1097     1.0  0.50845  0.75734  0.99889  1.0000
  H   H1098     1.0  0.51440  0.94172  0.52515  1.0000
  Fe  Fe98      1.0  0.60290  0.98162  0.68305  1.0000
  H   H1099     1.0  0.40476  0.90208  0.98262  1.0000
  N   N46       1.0  0.44900  0.48940  0.57747  1.0000
  H   H1100     1.0  0.31940  0.90315  0.68099  1.0000
  H   H1101     1.0  0.42674  0.54556  0.99907  1.0000
  H   H1102     1.0  0.51313  0.75981  0.50254  1.0000
  H   H1103     1.0  0.91142  0.01474  0.45222  1.0000
  H   H1104     1.0  0.65882  0.38263  0.08918  1.0000
  H   H1105     1.0  0.83351  0.26474  0.42757  1.0000
  Fe  Fe99      1.0  0.87232  0.02648  0.31201  1.0000
  S   S194      1.0  0.90657  0.01622  0.28403  1.0000
  S   S195      1.0  0.87024  0.05288  0.35666  1.0000
  Fe  Fe100     1.0  0.88273  0.01471  0.23729  1.0000
  S   S196      1.0  0.89462  0.02088  0.18260  1.0000
  S   S197      1.0  0.84897  0.02884  0.26419  1.0000
  H   H1106     1.0  0.66490  0.06202  0.27823  1.0000
  H   H1107     1.0  0.78532  0.99582  0.17333  1.0000
  H   H1108     1.0  0.77110  0.44499  0.28803  1.0000
  Fe  Fe101     1.0  0.95378  0.12083  0.07150  1.0000
  S   S198      1.0  0.92703  0.12066  0.11556  1.0000
  H   H1109     1.0  0.95577  0.18238  0.43854  1.0000
  Fe  Fe102     1.0  0.84556  0.46373  0.21287  1.0000
  H   H1110     1.0  0.66658  0.42607  0.08540  1.0000
  Fe  Fe103     1.0  0.88034  0.44437  0.15742  1.0000
  S   S199      1.0  0.91217  0.46562  0.17638  1.0000
  S   S200      1.0  0.88507  0.41568  0.11600  1.0000
  Fe  Fe104     1.0  0.90056  0.45400  0.22848  1.0000
  S   S201      1.0  0.93195  0.44461  0.26452  1.0000
  S   S202      1.0  0.87046  0.43040  0.20933  1.0000
  H   H1111     1.0  0.96452  0.36121  0.09219  1.0000
  Fe  Fe105     1.0  0.95514  0.35301  0.41460  1.0000
  S   S203      1.0  0.92454  0.36153  0.37680  1.0000
  H   H1112     1.0  0.90739  0.00029  0.37648  1.0000
  H   H1113     1.0  0.81621  0.01432  0.20396  1.0000
  S   S204      1.0  0.94434  0.33805  0.46561  1.0000
  C   C648      1.0  0.68324  0.45454  0.14025  1.0000
  H   H1114     1.0  0.95347  0.37116  0.21106  1.0000
  H   H1115     1.0  0.67812  0.02203  0.25336  1.0000
  H   H1116     1.0  0.85269  0.99419  0.15119  1.0000
  H   H1117     1.0  0.94307  0.00451  0.35315  1.0000
  H   H1118     1.0  0.69746  0.42149  0.19852  1.0000
  Fe  Fe106     1.0  0.84128  0.98932  0.27405  1.0000
  C   C649      1.0  0.72598  0.46697  0.23540  1.0000
  C   C650      1.0  0.77200  0.00890  0.24035  1.0000
  C   C651      1.0  0.68660  0.46995  0.10783  1.0000
  C   C652      1.0  0.92990  0.42101  0.29497  1.0000
  C   C653      1.0  0.90903  0.40684  0.29740  1.0000
  C   C654      1.0  0.90771  0.38862  0.32253  1.0000
  C   C655      1.0  0.92727  0.38431  0.34526  1.0000
  C   C656      1.0  0.94830  0.39825  0.34253  1.0000
  C   C657      1.0  0.94959  0.41655  0.31744  1.0000
  H   H1119     1.0  0.89382  0.41004  0.28010  1.0000
  H   H1120     1.0  0.89143  0.37783  0.32440  1.0000
  H   H1121     1.0  0.96352  0.39498  0.35978  1.0000
  H   H1122     1.0  0.96517  0.48351  0.49036  1.0000
  C   C658      1.0  0.94874  0.41788  0.04088  1.0000
  C   C659      1.0  0.94321  0.43832  0.06140  1.0000
  C   C660      1.0  0.92384  0.43783  0.08471  1.0000
  C   C661      1.0  0.90984  0.41686  0.08760  1.0000
  C   C662      1.0  0.91549  0.39635  0.06725  1.0000
  C   C663      1.0  0.93500  0.39677  0.04413  1.0000
  H   H1123     1.0  0.95370  0.45477  0.05885  1.0000
  H   H1124     1.0  0.91948  0.45382  0.09999  1.0000
  H   H1125     1.0  0.90474  0.38004  0.06947  1.0000
  H   H1126     1.0  0.88536  0.45940  0.01446  1.0000
  C   C664      1.0  0.89693  0.06206  0.37839  1.0000
  C   C665      1.0  0.91982  0.06089  0.36278  1.0000
  C   C666      1.0  0.94071  0.06847  0.38069  1.0000
  C   C667      1.0  0.93900  0.07663  0.41461  1.0000
  C   C668      1.0  0.91613  0.07792  0.43023  1.0000
  C   C669      1.0  0.89513  0.07088  0.41202  1.0000
  H   H1127     1.0  0.92137  0.05441  0.33679  1.0000
  H   H1128     1.0  0.95834  0.06755  0.36842  1.0000
  H   H1129     1.0  0.91460  0.08429  0.45631  1.0000
  H   H1130     1.0  0.87745  0.07198  0.42417  1.0000
  C   C670      1.0  0.90292  0.04897  0.16445  1.0000
  C   C671      1.0  0.91411  0.04868  0.13231  1.0000
  C   C672      1.0  0.92142  0.07053  0.11697  1.0000
  C   C673      1.0  0.91735  0.09291  0.13352  1.0000
  C   C674      1.0  0.90577  0.09325  0.16543  1.0000
  C   C675      1.0  0.89866  0.07134  0.18098  1.0000
  H   H1131     1.0  0.91737  0.03144  0.11933  1.0000
  H   H1132     1.0  0.93013  0.07007  0.09230  1.0000
  H   H1133     1.0  0.90249  0.11054  0.17830  1.0000
  H   H1134     1.0  0.88994  0.07176  0.20566  1.0000
  C   C676      1.0  0.97990  0.10290  0.18015  1.0000
  H   H1135     1.0  0.68050  0.46743  0.16193  1.0000
  H   H1136     1.0  0.77896  0.46176  0.34975  1.0000
  H   H1137     1.0  0.97193  0.02926  0.14859  1.0000
  C   C677      1.0  0.87032  0.33397  0.45381  1.0000
  C   C678      1.0  0.76672  0.47181  0.21027  1.0000
  H   H1138     1.0  0.65541  0.38363  0.13433  1.0000
  H   H1139     1.0  0.74781  0.03658  0.21868  1.0000
  H   H1140     1.0  0.84608  0.28276  0.46020  1.0000
  H   H1141     1.0  0.94590  0.06102  0.24759  1.0000
  Fe  Fe107     1.0  0.66490  0.00445  0.18155  1.0000
  H   H1142     1.0  0.97735  0.42095  0.13374  1.0000
  H   H1143     1.0  0.79524  0.45052  0.38711  1.0000
  H   H1144     1.0  0.84925  0.04880  0.09278  1.0000
  H   H1145     1.0  0.72595  0.45027  0.28495  1.0000
  C   C679      1.0  0.79055  0.00330  0.14810  1.0000
  H   H1146     1.0  0.91960  0.41299  0.18470  1.0000
  C   C680      1.0  0.73714  0.45637  0.26414  1.0000
  H   H1147     1.0  0.96110  0.02038  0.38498  1.0000
  H   H1148     1.0  0.77789  0.47793  0.18945  1.0000
  H   H1149     1.0  0.91228  0.29511  0.47318  1.0000
  H   H1150     1.0  0.87474  0.32549  0.40058  1.0000
  H   H1151     1.0  0.68883  0.04356  0.34546  1.0000
  C   C681      1.0  0.96566  0.41922  0.15663  1.0000
  H   H1152     1.0  0.70801  0.02498  0.26911  1.0000
  H   H1153     1.0  0.88095  0.29383  0.48238  1.0000
  N   N47       1.0  0.82896  0.47422  0.33956  1.0000
  H   H1154     1.0  0.70171  0.48285  0.11238  1.0000
  C   C682      1.0  0.66890  0.41767  0.11108  1.0000
  C   C683      1.0  0.75031  0.01728  0.22399  1.0000
  C   C684      1.0  0.82217  0.02516  0.18172  1.0000
  C   C685      1.0  0.97399  0.43978  0.18069  1.0000
  C   C686      1.0  0.89689  0.25902  0.47171  1.0000
  H   H1155     1.0  0.69159  0.01328  0.36080  1.0000
  H   H1156     1.0  0.97335  0.13335  0.35370  1.0000
  S   S205      1.0  0.69356  0.47087  0.23135  1.0000
  H   H1157     1.0  0.92656  0.02649  0.41670  1.0000
  N   N48       1.0  0.66314  0.43615  0.13869  1.0000
  C   C687      1.0  0.81078  0.05100  0.18654  1.0000
  H   H1158     1.0  0.95669  0.40214  0.22256  1.0000
  H   H1159     1.0  0.86574  0.43404  0.32742  1.0000
  S   S206      1.0  0.98347  0.32341  0.40529  1.0000
  Fe  Fe108     1.0  0.97435  0.30954  0.45792  1.0000
  S   S207      1.0  0.70559  0.01274  0.19199  1.0000
  S   S208      1.0  0.96173  0.26972  0.46480  1.0000
  H   H1160     1.0  0.97872  0.11133  0.20594  1.0000
  N   N49       1.0  0.88941  0.29377  0.42790  1.0000
  C   C688      1.0  0.91205  0.28768  0.40739  1.0000
  Fe  Fe109     1.0  0.96723  0.09350  0.49321  1.0000
  C   C689      1.0  0.88455  0.32105  0.42484  1.0000
  C   C690      1.0  0.86847  0.27970  0.41309  1.0000
  H   H1161     1.0  0.87458  0.00803  0.41041  1.0000
  H   H1162     1.0  0.94709  0.44337  0.48783  1.0000
  C   C691      1.0  0.68427  0.40945  0.18529  1.0000
  C   C692      1.0  0.95746  0.00244  0.37300  1.0000
  H   H1163     1.0  0.92815  0.29733  0.41809  1.0000
  H   H1164     1.0  0.91700  0.26792  0.40871  1.0000
  S   S209      1.0  0.98132  0.37967  0.43712  1.0000
  S   S210      1.0  0.97813  0.08849  0.05999  1.0000
  H   H1165     1.0  0.90200  0.33099  0.42337  1.0000
  H   H1166     1.0  0.94995  0.13286  0.40173  1.0000
  H   H1167     1.0  0.86430  0.28595  0.38666  1.0000
  H   H1168     1.0  0.87344  0.25997  0.40970  1.0000
  H   H1169     1.0  0.86218  0.02277  0.11393  1.0000
  S   S211      1.0  0.96602  0.08428  0.43665  1.0000
  C   C693      1.0  0.95759  0.37667  0.14247  1.0000
  C   C694      1.0  0.95879  0.22247  0.48907  1.0000
  H   H1170     1.0  0.91520  0.38047  0.17951  1.0000
  H   H1171     1.0  0.82345  0.06217  0.20212  1.0000
  C   C695      1.0  0.96594  0.06345  0.20005  1.0000
  N   N50       1.0  0.81666  0.01178  0.14895  1.0000
  Fe  Fe110     1.0  0.65952  0.46534  0.26467  1.0000
  H   H1172     1.0  0.77079  0.03901  0.15359  1.0000
  H   H1173     1.0  0.81889  0.01579  0.09421  1.0000
  S   S212      1.0  0.85341  0.47631  0.15911  1.0000
  C   C696      1.0  0.82191  0.02683  0.11775  1.0000
  H   H1174     1.0  0.92687  0.15118  0.42135  1.0000
  H   H1175     1.0  0.84221  0.02658  0.18600  1.0000
  C   C697      1.0  0.87152  0.45314  0.33175  1.0000
  H   H1176     1.0  0.70117  0.44530  0.14569  1.0000
  C   C698      1.0  0.85208  0.47185  0.31895  1.0000
  H   H1177     1.0  0.69100  0.06443  0.25159  1.0000
  H   H1178     1.0  0.97198  0.07156  0.13141  1.0000
  C   C699      1.0  0.92359  0.39476  0.19569  1.0000
  H   H1179     1.0  0.84757  0.46644  0.29232  1.0000
  C   C700      1.0  0.76285  0.45350  0.26585  1.0000
  H   H1180     1.0  0.75233  0.01396  0.14205  1.0000
  H   H1181     1.0  0.82951  0.43551  0.35262  1.0000
  H   H1182     1.0  0.69510  0.06581  0.29680  1.0000
  H   H1183     1.0  0.73262  0.48275  0.18607  1.0000
  H   H1184     1.0  0.65849  0.43839  0.19320  1.0000
  H   H1185     1.0  0.79317  0.05018  0.20028  1.0000
  H   H1186     1.0  0.94834  0.09153  0.23257  1.0000
  H   H1187     1.0  0.94930  0.06386  0.18372  1.0000
  C   C701      1.0  0.68859  0.02891  0.27561  1.0000
  H   H1188     1.0  0.90511  0.31311  0.36408  1.0000
  S   S213      1.0  0.81035  0.45791  0.24370  1.0000
  H   H1189     1.0  0.69186  0.45845  0.08561  1.0000
  C   C702      1.0  0.83320  0.98929  0.14754  1.0000
  H   H1190     1.0  0.96754  0.01759  0.44535  1.0000
  H   H1191     1.0  0.96586  0.42735  0.31558  1.0000
  H   H1192     1.0  0.95340  0.17932  0.39343  1.0000
  C   C703      1.0  0.91074  0.29386  0.36899  1.0000
  H   H1193     1.0  0.96834  0.21849  0.40914  1.0000
  H   H1194     1.0  0.85283  0.32525  0.45964  1.0000
  C   C704      1.0  0.77050  0.02219  0.13799  1.0000
  C   C705      1.0  0.68748  0.98883  0.30257  1.0000
  H   H1195     1.0  0.91438  0.39413  0.22082  1.0000
  H   H1196     1.0  0.94757  0.03651  0.47006  1.0000
  C   C706      1.0  0.69525  0.02482  0.33814  1.0000
  H   H1197     1.0  0.88172  0.33522  0.47730  1.0000
  H   H1198     1.0  0.85187  0.04930  0.13809  1.0000
  N   N51       1.0  0.68142  0.01563  0.30743  1.0000
  H   H1199     1.0  0.69391  0.39960  0.16457  1.0000
  C   C707      1.0  0.95119  0.39016  0.20108  1.0000
  H   H1200     1.0  0.80806  0.06143  0.16274  1.0000
  H   H1201     1.0  0.95057  0.13842  0.44715  1.0000
  S   S214      1.0  0.97207  0.42001  0.01033  1.0000
  C   C708      1.0  0.84784  0.03731  0.11597  1.0000
  H   H1202     1.0  0.67853  0.39507  0.20333  1.0000
  H   H1203     1.0  0.80910  0.04266  0.11504  1.0000
  C   C709      1.0  0.72334  0.02555  0.33468  1.0000
  H   H1204     1.0  0.96139  0.10536  0.16854  1.0000
  H   H1205     1.0  0.77136  0.02685  0.11050  1.0000
  H   H1206     1.0  0.72908  0.03867  0.31492  1.0000
  C   C710      1.0  0.79274  0.44821  0.35920  1.0000
  H   H1207     1.0  0.92926  0.29131  0.35791  1.0000
  C   C711      1.0  0.81733  0.44941  0.34018  1.0000
  H   H1208     1.0  0.86601  0.35310  0.44598  1.0000
  C   C712      1.0  0.96108  0.17034  0.41672  1.0000
  C   C713      1.0  0.95856  0.07387  0.23521  1.0000
  H   H1209     1.0  0.68843  0.41162  0.11200  1.0000
  H   H1210     1.0  0.78576  0.02174  0.24802  1.0000
  C   C714      1.0  0.77788  0.46131  0.23909  1.0000
  H   H1211     1.0  0.93932  0.38083  0.02873  1.0000
  H   H1212     1.0  0.78858  0.98786  0.12969  1.0000
  C   C715      1.0  0.66148  0.42426  0.17317  1.0000
  C   C716      1.0  0.68456  0.05690  0.27617  1.0000
  H   H1213     1.0  0.95152  0.00517  0.48162  1.0000
  C   C717      1.0  0.73184  0.00098  0.21445  1.0000
  C   C718      1.0  0.97345  0.24331  0.48689  1.0000
  C   C719      1.0  0.74097  0.47452  0.20845  1.0000
  H   H1214     1.0  0.94063  0.22294  0.47824  1.0000
  H   H1215     1.0  0.73164  0.00728  0.32942  1.0000
  H   H1216     1.0  0.65196  0.00367  0.36479  1.0000
  H   H1217     1.0  0.89846  0.28140  0.35497  1.0000
  H   H1218     1.0  0.90284  0.25632  0.49864  1.0000
  H   H1219     1.0  0.96730  0.43784  0.20704  1.0000
  N   N52       1.0  0.96703  0.39342  0.17012  1.0000
  H   H1220     1.0  0.78492  0.42982  0.35508  1.0000
  H   H1221     1.0  0.73129  0.03192  0.35922  1.0000
  H   H1222     1.0  0.83291  0.29762  0.42304  1.0000
  C   C720      1.0  0.92805  0.01202  0.43635  1.0000
  H   H1223     1.0  0.88843  0.45539  0.31665  1.0000
  C   C721      1.0  0.89493  0.28672  0.46443  1.0000
  S   S215      1.0  0.94472  0.12866  0.01639  1.0000
  C   C722      1.0  0.94675  0.14666  0.42187  1.0000
  Fe  Fe111     1.0  0.97297  0.36230  0.48749  1.0000
  H   H1224     1.0  0.95502  0.35789  0.15269  1.0000
  C   C723      1.0  0.84398  0.28165  0.43219  1.0000
  C   C724      1.0  0.65447  0.02001  0.31341  1.0000
  H   H1225     1.0  0.87661  0.45583  0.35885  1.0000
  S   S216      1.0  0.86244  0.98777  0.32398  1.0000
  H   H1226     1.0  0.96585  0.45741  0.17177  1.0000
  H   H1227     1.0  0.84349  0.46616  0.38964  1.0000
  H   H1228     1.0  0.93925  0.38304  0.13320  1.0000
  N   N53       1.0  0.92841  0.98711  0.41993  1.0000
  H   H1229     1.0  0.97550  0.39140  0.09645  1.0000
  Fe  Fe112     1.0  0.97172  0.09833  0.00498  1.0000
  H   H1230     1.0  0.81430  0.44260  0.31368  1.0000
  H   H1231     1.0  0.91065  0.24949  0.45574  1.0000
  H   H1232     1.0  0.87902  0.25006  0.46863  1.0000
  H   H1233     1.0  0.97039  0.04372  0.20426  1.0000
  H   H1234     1.0  0.88342  0.42709  0.01675  1.0000
  C   C725      1.0  0.88133  0.98877  0.41278  1.0000
  H   H1235     1.0  0.97441  0.99667  0.35949  1.0000
  H   H1236     1.0  0.94714  0.42410  0.14664  1.0000
  C   C726      1.0  0.95010  0.01774  0.45953  1.0000
  H   H1237     1.0  0.67009  0.48119  0.10160  1.0000
  H   H1238     1.0  0.97452  0.07605  0.25241  1.0000
  C   C727      1.0  0.83429  0.48163  0.37590  1.0000
  Fe  Fe113     1.0  0.97728  0.15357  0.01713  1.0000
  C   C728      1.0  0.97358  0.37391  0.11025  1.0000
  H   H1239     1.0  0.70720  0.98611  0.29660  1.0000
  C   C729      1.0  0.90675  0.98567  0.39611  1.0000
  S   S217      1.0  0.98420  0.14797  0.07336  1.0000
  S   S218      1.0  0.65180  0.47043  0.32083  1.0000
  C   C730      1.0  0.65310  0.39461  0.11076  1.0000
  H   H1240     1.0  0.79754  0.48251  0.30654  1.0000
  H   H1241     1.0  0.96658  0.48466  0.22975  1.0000
  H   H1242     1.0  0.73323  0.45499  0.67067  1.0000
  H   H1243     1.0  0.97010  0.47273  0.72357  1.0000
  C   C731      1.0  0.97703  0.17833  0.88442  1.0000
  Fe  Fe114     1.0  0.87795  0.03686  0.81978  1.0000
  S   S219      1.0  0.90564  0.00882  0.80217  1.0000
  S   S220      1.0  0.88483  0.06997  0.85333  1.0000
  Fe  Fe115     1.0  0.88559  0.01093  0.75174  1.0000
  S   S221      1.0  0.90602  0.00964  0.70153  1.0000
  S   S222      1.0  0.86039  0.04139  0.76821  1.0000
  H   H1244     1.0  0.93033  0.19116  0.92322  1.0000
  C   C732      1.0  0.94855  0.36373  0.73495  1.0000
  Fe  Fe116     1.0  0.65647  0.99717  0.69540  1.0000
  Fe  Fe117     1.0  0.94642  0.10074  0.56476  1.0000
  S   S223      1.0  0.91401  0.09978  0.60053  1.0000
  S   S224      1.0  0.96098  0.06787  0.53667  1.0000
  Fe  Fe118     1.0  0.83828  0.45745  0.71472  1.0000
  H   H1245     1.0  0.94470  0.34439  0.72813  1.0000
  Fe  Fe119     1.0  0.87193  0.43266  0.66171  1.0000
  S   S225      1.0  0.90147  0.45986  0.66896  1.0000
  S   S226      1.0  0.87581  0.40126  0.62413  1.0000
  Fe  Fe120     1.0  0.89394  0.45570  0.72487  1.0000
  S   S227      1.0  0.92697  0.45379  0.76009  1.0000
  S   S228      1.0  0.86616  0.42652  0.71786  1.0000
  H   H1246     1.0  0.95353  0.04276  0.71105  1.0000
  Fe  Fe121     1.0  0.97148  0.36630  0.90474  1.0000
  S   S229      1.0  0.94289  0.36524  0.86274  1.0000
  H   H1247     1.0  0.95406  0.15298  0.93862  1.0000
  S   S230      1.0  0.79413  0.02242  0.77332  1.0000
  S   S231      1.0  0.96004  0.35660  0.95819  1.0000
  C   C733      1.0  0.76679  0.01029  0.75516  1.0000
  H   H1248     1.0  0.93643  0.44520  0.53056  1.0000
  S   S232      1.0  0.97068  0.38829  0.53274  1.0000
  C   C734      1.0  0.77796  0.99948  0.65391  1.0000
  H   H1249     1.0  0.76879  0.39469  0.75498  1.0000
  C   C735      1.0  0.69252  0.41887  0.79288  1.0000
  H   H1250     1.0  0.97030  0.34939  0.77740  1.0000
  C   C736      1.0  0.72250  0.46600  0.72133  1.0000
  N   N54       1.0  0.70789  0.39699  0.78238  1.0000
  H   H1251     1.0  0.92455  0.36223  0.53358  1.0000
  C   C737      1.0  0.93054  0.42972  0.78972  1.0000
  C   C738      1.0  0.91317  0.41148  0.79254  1.0000
  C   C739      1.0  0.91718  0.39185  0.81509  1.0000
  C   C740      1.0  0.93840  0.39048  0.83533  1.0000
  C   C741      1.0  0.95563  0.40890  0.83290  1.0000
  C   C742      1.0  0.95173  0.42841  0.81007  1.0000
  H   H1252     1.0  0.89667  0.41240  0.77728  1.0000
  H   H1253     1.0  0.90375  0.37767  0.81691  1.0000
  H   H1254     1.0  0.97217  0.40787  0.84807  1.0000
  H   H1255     1.0  0.96530  0.44243  0.80795  1.0000
  C   C743      1.0  0.94411  0.39138  0.55771  1.0000
  C   C744      1.0  0.94324  0.40955  0.58303  1.0000
  C   C745      1.0  0.92227  0.41304  0.60303  1.0000
  C   C746      1.0  0.90216  0.39797  0.59851  1.0000
  C   C747      1.0  0.90316  0.37956  0.57347  1.0000
  C   C748      1.0  0.92399  0.37637  0.55292  1.0000
  H   H1256     1.0  0.95881  0.42112  0.58693  1.0000
  H   H1257     1.0  0.92178  0.42728  0.62199  1.0000
  H   H1258     1.0  0.88771  0.36778  0.56985  1.0000
  H   H1259     1.0  0.93630  0.07547  0.74160  1.0000
  C   C749      1.0  0.90797  0.06877  0.88471  1.0000
  C   C750      1.0  0.92884  0.05391  0.88069  1.0000
  C   C751      1.0  0.94724  0.05372  0.90588  1.0000
  C   C752      1.0  0.94506  0.06865  0.93493  1.0000
  C   C753      1.0  0.92419  0.08350  0.93898  1.0000
  C   C754      1.0  0.90567  0.08350  0.91395  1.0000
  H   H1260     1.0  0.93080  0.04257  0.85818  1.0000
  H   H1261     1.0  0.96334  0.04213  0.90273  1.0000
  H   H1262     1.0  0.92214  0.09464  0.96167  1.0000
  H   H1263     1.0  0.88940  0.09480  0.91739  1.0000
  C   C755      1.0  0.90654  0.03452  0.67295  1.0000
  C   C756      1.0  0.91974  0.03192  0.64253  1.0000
  C   C757      1.0  0.92224  0.05181  0.62027  1.0000
  C   C758      1.0  0.91096  0.07435  0.62778  1.0000
  C   C759      1.0  0.89696  0.07672  0.65758  1.0000
  C   C760      1.0  0.89496  0.05696  0.68031  1.0000
  H   H1264     1.0  0.92842  0.01452  0.63636  1.0000
  H   H1265     1.0  0.93280  0.04966  0.59723  1.0000
  H   H1266     1.0  0.88808  0.09408  0.66346  1.0000
  H   H1267     1.0  0.88472  0.05920  0.70362  1.0000
  H   H1268     1.0  0.96383  0.01329  0.67643  1.0000
  H   H1269     1.0  0.95586  0.18503  0.50646  1.0000
  N   N55       1.0  0.94227  0.14656  0.88614  1.0000
  H   H1270     1.0  0.92745  0.11276  0.83133  1.0000
  C   C761      1.0  0.93713  0.15122  0.92338  1.0000
  H   H1271     1.0  0.67914  0.38803  0.84456  1.0000
  C   C762      1.0  0.95324  0.16835  0.86895  1.0000
  H   H1272     1.0  0.78756  0.02861  0.61993  1.0000
  C   C763      1.0  0.85765  0.00251  0.93572  1.0000
  C   C764      1.0  0.90471  0.44061  0.97338  1.0000
  H   H1273     1.0  0.86211  0.02270  0.63534  1.0000
  S   S233      1.0  0.85066  0.00944  0.83651  1.0000
  H   H1274     1.0  0.83395  0.03346  0.92304  1.0000
  H   H1275     1.0  0.91932  0.17564  0.95963  1.0000
  C   C765      1.0  0.91914  0.13144  0.83219  1.0000
  H   H1276     1.0  0.85653  0.04067  0.95403  1.0000
  C   C766      1.0  0.92137  0.17419  0.93149  1.0000
  H   H1277     1.0  0.95756  0.16399  0.84192  1.0000
  H   H1278     1.0  0.93981  0.18388  0.86688  1.0000
  C   C767      1.0  0.98180  0.01586  0.66436  1.0000
  S   S234      1.0  0.80438  0.45839  0.74869  1.0000
  H   H1279     1.0  0.81419  0.00865  0.70889  1.0000
  H   H1280     1.0  0.98043  0.09224  0.66179  1.0000
  C   C768      1.0  0.93585  0.44429  0.91242  1.0000
  C   C769      1.0  0.88179  0.42936  0.92174  1.0000
  H   H1281     1.0  0.90019  0.02015  0.90909  1.0000
  H   H1282     1.0  0.84004  0.98887  0.64611  1.0000
  C   C770      1.0  0.68576  0.37242  0.82872  1.0000
  C   C771      1.0  0.90270  0.36897  0.69427  1.0000
  H   H1283     1.0  0.70486  0.36702  0.74606  1.0000
  H   H1284     1.0  0.92157  0.45387  0.89706  1.0000
  H   H1285     1.0  0.94266  0.45668  0.93271  1.0000
  C   C772      1.0  0.73955  0.45899  0.69626  1.0000
  H   H1286     1.0  0.90728  0.12854  0.88397  1.0000
  H   H1287     1.0  0.98076  0.00730  0.63864  1.0000
  H   H1288     1.0  0.91149  0.37187  0.92229  1.0000
  C   C773      1.0  0.76540  0.98627  0.74292  1.0000
  H   H1289     1.0  0.71078  0.42084  0.84397  1.0000
  H   H1290     1.0  0.85932  0.04797  0.60734  1.0000
  H   H1291     1.0  0.93377  0.36926  0.75300  1.0000
  Fe  Fe122     1.0  0.83454  0.01176  0.78345  1.0000
  H   H1292     1.0  0.96656  0.12335  0.85598  1.0000
  H   H1293     1.0  0.85027  0.99305  0.91268  1.0000
  H   H1294     1.0  0.74469  0.37758  0.73638  1.0000
  C   C774      1.0  0.85341  0.03016  0.93023  1.0000
  C   C775      1.0  0.74589  0.02568  0.75226  1.0000
  C   C776      1.0  0.92205  0.38901  0.69825  1.0000
  H   H1295     1.0  0.95084  0.37599  0.64855  1.0000
  H   H1296     1.0  0.73213  0.42061  0.75487  1.0000
  H   H1297     1.0  0.94472  0.34846  0.66997  1.0000
  H   H1298     1.0  0.88424  0.37776  0.69357  1.0000
  H   H1299     1.0  0.77751  0.45091  0.68470  1.0000
  C   C777      1.0  0.91801  0.14173  0.86893  1.0000
  N   N56       1.0  0.94802  0.37988  0.70351  1.0000
  H   H1300     1.0  0.97767  0.19838  0.87999  1.0000
  H   H1301     1.0  0.89334  0.35851  0.95420  1.0000
  C   C778      1.0  0.96418  0.42057  0.67960  1.0000
  H   H1302     1.0  0.97402  0.38125  0.77077  1.0000
  H   H1303     1.0  0.97949  0.03950  0.76154  1.0000
  H   H1304     1.0  0.77019  0.98742  0.63390  1.0000
  Fe  Fe123     1.0  0.98167  0.38929  0.97360  1.0000
  C   C779      1.0  0.83820  0.99017  0.67403  1.0000
  C   C780      1.0  0.84863  0.03371  0.62038  1.0000
  C   C781      1.0  0.89935  0.00024  0.91285  1.0000
  H   H1305     1.0  0.91220  0.39295  0.98089  1.0000
  H   H1306     1.0  0.97701  0.05055  0.63877  1.0000
  H   H1307     1.0  0.75485  0.37149  0.77977  1.0000
  C   C782      1.0  0.73089  0.47116  0.75428  1.0000
  H   H1308     1.0  0.68894  0.35677  0.84632  1.0000
  H   H1309     1.0  0.74665  0.04430  0.76154  1.0000
  H   H1310     1.0  0.95152  0.44026  0.89530  1.0000
  H   H1311     1.0  0.86424  0.03752  0.90898  1.0000
  H   H1312     1.0  0.87826  0.00383  0.99573  1.0000
  C   C783      1.0  0.69596  0.38503  0.75195  1.0000
  H   H1313     1.0  0.92795  0.13523  0.93475  1.0000
  H   H1314     1.0  0.76230  0.47264  0.78783  1.0000
  N   N57       1.0  0.90249  0.42170  0.94534  1.0000
  H   H1315     1.0  0.86390  0.42445  0.93293  1.0000
  C   C784      1.0  0.92688  0.42014  0.92772  1.0000
  C   C785      1.0  0.89754  0.39746  0.96197  1.0000
  H   H1316     1.0  0.80861  0.00406  0.62107  1.0000
  H   H1317     1.0  0.94398  0.46712  0.58007  1.0000
  C   C786      1.0  0.95847  0.12402  0.88195  1.0000
  N   N58       1.0  0.88354  0.99379  0.94274  1.0000
  H   H1318     1.0  0.92722  0.40646  0.90692  1.0000
  H   H1319     1.0  0.94124  0.41351  0.94594  1.0000
  C   C787      1.0  0.90393  0.02954  0.97587  1.0000
  H   H1320     1.0  0.87843  0.37650  0.92227  1.0000
  H   H1321     1.0  0.67114  0.36718  0.81060  1.0000
  H   H1322     1.0  0.74184  0.41404  0.79678  1.0000
  H   H1323     1.0  0.72329  0.38377  0.83051  1.0000
  C   C788      1.0  0.96378  0.40190  0.70897  1.0000
  S   S235      1.0  0.97303  0.18803  0.98366  1.0000
  H   H1324     1.0  0.97845  0.17639  0.91235  1.0000
  C   C789      1.0  0.95429  0.07964  0.73023  1.0000
  C   C790      1.0  0.75109  0.38593  0.76054  1.0000
  N   N59       1.0  0.81258  0.03028  0.66283  1.0000
  C   C791      1.0  0.79506  0.04678  0.68234  1.0000
  H   H1325     1.0  0.89000  0.43292  0.86700  1.0000
  C   C792      1.0  0.82972  0.04648  0.64366  1.0000
  C   C793      1.0  0.82646  0.01422  0.68790  1.0000
  C   C794      1.0  0.80662  0.06557  0.70669  1.0000
  S   S236      1.0  0.84152  0.46090  0.65776  1.0000
  H   H1326     1.0  0.90017  0.12966  0.82229  1.0000
  H   H1327     1.0  0.78571  0.98749  0.67414  1.0000
  H   H1328     1.0  0.78280  0.05725  0.66457  1.0000
  H   H1329     1.0  0.78275  0.03585  0.69844  1.0000
  H   H1330     1.0  0.90474  0.35901  0.66972  1.0000
  H   H1331     1.0  0.71737  0.36058  0.80068  1.0000
  H   H1332     1.0  0.81913  0.05983  0.62764  1.0000
  H   H1333     1.0  0.84079  0.05755  0.66166  1.0000
  H   H1334     1.0  0.84124  0.02469  0.70053  1.0000
  Fe  Fe124     1.0  0.65673  0.46845  0.74325  1.0000
  H   H1335     1.0  0.79206  0.07374  0.72305  1.0000
  H   H1336     1.0  0.82024  0.05698  0.72407  1.0000
  H   H1337     1.0  0.81490  0.08084  0.69260  1.0000
  H   H1338     1.0  0.84017  0.02256  0.60006  1.0000
  H   H1339     1.0  0.93656  0.99926  0.89375  1.0000
  H   H1340     1.0  0.88015  0.39824  0.97644  1.0000
  H   H1341     1.0  0.68451  0.41704  0.72115  1.0000
  H   H1342     1.0  0.90282  0.35584  0.71573  1.0000
  S   S237      1.0  0.94914  0.12583  0.51917  1.0000
  C   C795      1.0  0.97194  0.36352  0.75725  1.0000
  C   C796      1.0  0.95538  0.36551  0.67217  1.0000
  H   H1343     1.0  0.71322  0.44783  0.81848  1.0000
  H   H1344     1.0  0.71389  0.40405  0.70911  1.0000
  H   H1345     1.0  0.90270  0.17319  0.92057  1.0000
  H   H1346     1.0  0.94750  0.10720  0.88402  1.0000
  H   H1347     1.0  0.69189  0.43279  0.77224  1.0000
  H   H1348     1.0  0.68487  0.44022  0.83887  1.0000
  C   C797      1.0  0.70108  0.43261  0.82523  1.0000
  C   C798      1.0  0.89518  0.37514  0.93827  1.0000
  H   H1349     1.0  0.94660  0.43084  0.67747  1.0000
  H   H1350     1.0  0.89729  0.04153  0.95514  1.0000
  C   C799      1.0  0.72238  0.99313  0.72580  1.0000
  S   S238      1.0  0.96853  0.06791  0.96582  1.0000
  H   H1351     1.0  0.95260  0.09830  0.71922  1.0000
  C   C800      1.0  0.69541  0.39990  0.71856  1.0000
  S   S239      1.0  0.65215  0.47861  0.79863  1.0000
  H   H1352     1.0  0.67302  0.41405  0.79608  1.0000
  H   H1353     1.0  0.90681  0.45924  0.96254  1.0000
  C   C801      1.0  0.70988  0.37829  0.81059  1.0000
  C   C802      1.0  0.77305  0.46160  0.73715  1.0000
  H   H1354     1.0  0.90276  0.48364  0.58672  1.0000
  C   C803      1.0  0.88256  0.41920  0.88479  1.0000
  H   H1355     1.0  0.76238  0.01036  0.66442  1.0000
  C   C804      1.0  0.72390  0.01723  0.73766  1.0000
  C   C805      1.0  0.79736  0.01595  0.63786  1.0000
  S   S240      1.0  0.69107  0.46802  0.71005  1.0000
  H   H1356     1.0  0.89937  0.03912  0.00012  1.0000
  C   C806      1.0  0.76469  0.45677  0.70408  1.0000
  H   H1357     1.0  0.92154  0.43717  0.98885  1.0000
  H   H1358     1.0  0.91635  0.40114  0.71979  1.0000
  H   H1359     1.0  0.92027  0.40041  0.67494  1.0000
  H   H1360     1.0  0.97506  0.27282  0.94171  1.0000
  H   H1361     1.0  0.86356  0.41616  0.87581  1.0000
  H   H1362     1.0  0.70803  0.02931  0.73591  1.0000
  H   H1363     1.0  0.67660  0.38081  0.75759  1.0000
  H   H1364     1.0  0.90645  0.15869  0.86762  1.0000
  C   C807      1.0  0.92601  0.99055  0.91436  1.0000
  H   H1365     1.0  0.96397  0.22894  0.93933  1.0000
  H   H1366     1.0  0.95782  0.41204  0.73227  1.0000
  H   H1367     1.0  0.93512  0.99484  0.93890  1.0000
  H   H1368     1.0  0.96815  0.07962  0.75095  1.0000
  H   H1369     1.0  0.92878  0.14365  0.81454  1.0000
  H   H1370     1.0  0.89255  0.40162  0.88145  1.0000
  C   C808      1.0  0.73306  0.40567  0.77396  1.0000
  H   H1371     1.0  0.71803  0.47714  0.77355  1.0000
  H   H1372     1.0  0.90704  0.47725  0.54258  1.0000
  C   C809      1.0  0.89296  0.00370  0.97625  1.0000
  C   C810      1.0  0.75601  0.46875  0.76219  1.0000
  H   H1373     1.0  0.86530  0.44414  0.98545  1.0000
  C   C811      1.0  0.96022  0.06064  0.70213  1.0000
  H   H1374     1.0  0.92421  0.02839  0.97539  1.0000
  H   H1375     1.0  0.88119  0.44965  0.91906  1.0000
  H   H1376     1.0  0.94837  0.06554  0.67994  1.0000
  H   H1377     1.0  0.68633  0.38902  0.69833  1.0000
  H   H1378     1.0  0.97831  0.43431  0.68527  1.0000
  H   H1379     1.0  0.89117  0.99344  0.88865  1.0000
  H   H1380     1.0  0.90778  0.99137  0.98638  1.0000
  H   H1381     1.0  0.96897  0.41205  0.65479  1.0000
  C   C812      1.0  0.95105  0.45131  0.51335  1.0000
  H   H1382     1.0  0.84543  0.99776  0.95710  1.0000
  S   S241      1.0  0.98269  0.11109  0.58698  1.0000
  H   H1383     1.0  0.98410  0.46680  0.56424  1.0000
  C   C813      1.0  0.98140  0.21934  0.98707  1.0000
  H   H1384     1.0  0.97283  0.11647  0.93364  1.0000
  H   H1385     1.0  0.96888  0.44334  0.52177  1.0000
  C   C814      1.0  0.98063  0.26060  0.96209  1.0000
  H   H1386     1.0  0.85698  0.98801  0.68468  1.0000
  C   C815      1.0  0.97969  0.12026  0.90767  1.0000
  C   C816      1.0  0.96742  0.20080  0.50506  1.0000
  H   H1387     1.0  0.79343  0.48270  0.64482  1.0000
  C   C817      1.0  0.95165  0.47942  0.51054  1.0000
  C   C818      1.0  0.97440  0.23564  0.96080  1.0000
  C   C819      1.0  0.88324  0.44267  0.99862  1.0000
  C   C820      1.0  0.98241  0.35748  0.66998  1.0000
  H   H1388     1.0  0.98312  0.39646  0.71386  1.0000
  H   H1389     1.0  0.95680  0.58841  0.11719  1.0000
  H   H1390     1.0  0.88394  0.62148  0.12753  1.0000
  S   S242      1.0  0.95294  0.86470  0.40601  1.0000
  H   H1391     1.0  0.97197  0.74341  0.40689  1.0000
  H   H1392     1.0  0.82970  0.97622  0.20058  1.0000
  H   H1393     1.0  0.97493  0.93577  0.33679  1.0000
  S   S243      1.0  0.93078  0.95580  0.30855  1.0000
  S   S244      1.0  0.96119  0.56862  0.04784  1.0000
  H   H1394     1.0  0.96260  0.81140  0.39518  1.0000
  H   H1395     1.0  0.88790  0.60279  0.03009  1.0000
  C   C821      1.0  0.96652  0.51824  0.19900  1.0000
  C   C822      1.0  0.94273  0.65835  0.07997  1.0000
  H   H1396     1.0  0.96228  0.65751  0.08765  1.0000
  S   S245      1.0  0.89914  0.53527  0.17540  1.0000
  H   H1397     1.0  0.84231  0.95441  0.17160  1.0000
  S   S246      1.0  0.87417  0.97510  0.24497  1.0000
  H   H1398     1.0  0.97248  0.76306  0.45777  1.0000
  H   H1399     1.0  0.81706  0.48570  0.38992  1.0000
  C   C823      1.0  0.94591  0.55869  0.08474  1.0000
  C   C824      1.0  0.93197  0.53743  0.08262  1.0000
  C   C825      1.0  0.91823  0.52959  0.11060  1.0000
  C   C826      1.0  0.91768  0.54342  0.14062  1.0000
  C   C827      1.0  0.93166  0.56468  0.14281  1.0000
  C   C828      1.0  0.94605  0.57209  0.11518  1.0000
  H   H1400     1.0  0.93173  0.52699  0.05913  1.0000
  H   H1401     1.0  0.90750  0.51324  0.10857  1.0000
  H   H1402     1.0  0.93130  0.57547  0.16599  1.0000
  H   H1403     1.0  0.91591  0.76156  0.39962  1.0000
  H   H1404     1.0  0.87035  0.49857  0.37855  1.0000
  C   C829      1.0  0.81093  0.49218  0.32299  1.0000
  H   H1405     1.0  0.75981  0.94836  0.24275  1.0000
  H   H1406     1.0  0.89604  0.59842  0.09981  1.0000
  C   C830      1.0  0.94679  0.88998  0.37883  1.0000
  C   C831      1.0  0.92254  0.89582  0.36926  1.0000
  C   C832      1.0  0.91713  0.91604  0.34798  1.0000
  C   C833      1.0  0.93603  0.93036  0.33577  1.0000
  C   C834      1.0  0.96024  0.92449  0.34541  1.0000
  C   C835      1.0  0.96561  0.90449  0.36687  1.0000
  H   H1407     1.0  0.90785  0.88472  0.37845  1.0000
  H   H1408     1.0  0.89842  0.92034  0.34076  1.0000
  H   H1409     1.0  0.93212  0.66005  0.10384  1.0000
  H   H1410     1.0  0.95285  0.75148  0.37224  1.0000
  C   C836      1.0  0.89784  0.61784  0.10753  1.0000
  H   H1411     1.0  0.88095  0.98370  0.44000  1.0000
  H   H1412     1.0  0.93648  0.78459  0.48652  1.0000
  C   C837      1.0  0.92802  0.74086  0.44316  1.0000
  C   C838      1.0  0.92220  0.94176  0.43537  1.0000
  H   H1413     1.0  0.86144  0.48964  0.31713  1.0000
  H   H1414     1.0  0.94045  0.67516  0.06445  1.0000
  H   H1415     1.0  0.95373  0.53431  0.19679  1.0000
  H   H1416     1.0  0.93594  0.93502  0.41684  1.0000
  H   H1417     1.0  0.94273  0.61898  0.07497  1.0000
  H   H1418     1.0  0.97311  0.52266  0.12820  1.0000
  H   H1419     1.0  0.98189  0.79130  0.44132  1.0000
  H   H1420     1.0  0.91440  0.77821  0.43815  1.0000
  H   H1421     1.0  0.96422  0.52825  0.48277  1.0000
  H   H1422     1.0  0.93375  0.48590  0.49992  1.0000
  C   C839      1.0  0.73527  0.97613  0.22197  1.0000
  H   H1423     1.0  0.79945  0.50176  0.34242  1.0000
  H   H1424     1.0  0.72142  0.96326  0.21467  1.0000
  H   H1425     1.0  0.93694  0.81616  0.34871  1.0000
  H   H1426     1.0  0.81022  0.96073  0.17038  1.0000
  C   C840      1.0  0.85072  0.50395  0.38041  1.0000
  H   H1427     1.0  0.96111  0.94010  0.22342  1.0000
  C   C841      1.0  0.89314  0.63550  0.07742  1.0000
  H   H1428     1.0  0.96764  0.98054  0.41665  1.0000
  N   N60       1.0  0.95043  0.77663  0.41542  1.0000
  C   C842      1.0  0.90746  0.60767  0.03238  1.0000
  H   H1429     1.0  0.96181  0.51255  0.25469  1.0000
  C   C843      1.0  0.67378  0.97586  0.27329  1.0000
  H   H1430     1.0  0.84840  0.51116  0.40674  1.0000
  C   C844      1.0  0.75717  0.96771  0.23780  1.0000
  H   H1431     1.0  0.86604  0.66412  0.02225  1.0000
  C   C845      1.0  0.95835  0.50336  0.23000  1.0000
  H   H1432     1.0  0.93457  0.78394  0.34950  1.0000
  Fe  Fe125     1.0  0.88528  0.49662  0.18217  1.0000
  H   H1433     1.0  0.68514  0.97825  0.32652  1.0000
  H   H1434     1.0  0.87399  0.63252  0.06880  1.0000
  H   H1435     1.0  0.91597  0.62044  0.11962  1.0000
  S   S247      1.0  0.87557  0.48651  0.23595  1.0000
  H   H1436     1.0  0.93749  0.72633  0.42814  1.0000
  C   C846      1.0  0.92634  0.76528  0.42351  1.0000
  H   H1437     1.0  0.90359  0.94033  0.42424  1.0000
  H   H1438     1.0  0.92316  0.92916  0.45755  1.0000
  H   H1439     1.0  0.84594  0.51918  0.36313  1.0000
  H   H1440     1.0  0.67222  0.95612  0.27931  1.0000
  H   H1441     1.0  0.90926  0.73445  0.44814  1.0000
  C   C847      1.0  0.96471  0.75950  0.39233  1.0000
  H   H1442     1.0  0.91531  0.59334  0.04948  1.0000
  C   C848      1.0  0.90481  0.65267  0.02249  1.0000
  C   C849      1.0  0.94549  0.80107  0.39884  1.0000
  H   H1443     1.0  0.94534  0.96674  0.46150  1.0000
  H   H1444     1.0  0.98282  0.93245  0.27763  1.0000
  H   H1445     1.0  0.82875  0.50366  0.27551  1.0000
  H   H1446     1.0  0.80573  0.52420  0.29071  1.0000
  C   C850      1.0  0.93671  0.63503  0.05946  1.0000
  H   H1447     1.0  0.94915  0.63481  0.03719  1.0000
  H   H1448     1.0  0.83214  0.98036  0.12199  1.0000
  H   H1449     1.0  0.93460  0.81324  0.41599  1.0000
  C   C851      1.0  0.92758  0.96795  0.44753  1.0000
  C   C852      1.0  0.82107  0.51195  0.29909  1.0000
  H   H1450     1.0  0.96261  0.50647  0.17656  1.0000
  S   S248      1.0  0.80368  0.97205  0.26499  1.0000
  H   H1451     1.0  0.96544  0.79611  0.49836  1.0000
  H   H1452     1.0  0.98431  0.90030  0.37418  1.0000
  C   C853      1.0  0.82826  0.96925  0.17416  1.0000
  C   C854      1.0  0.95140  0.98277  0.39961  1.0000
  C   C855      1.0  0.95239  0.79449  0.47668  1.0000
  H   H1453     1.0  0.90660  0.67097  0.03459  1.0000
  Fe  Fe126     1.0  0.89593  0.97733  0.29378  1.0000
  C   C856      1.0  0.93112  0.80064  0.36481  1.0000
  N   N61       1.0  0.91049  0.63273  0.04793  1.0000
  H   H1454     1.0  0.98157  0.55801  0.22938  1.0000
  C   C857      1.0  0.96537  0.78070  0.44729  1.0000
  H   H1455     1.0  0.91116  0.80257  0.36944  1.0000
  H   H1456     1.0  0.91407  0.97295  0.46756  1.0000
  H   H1457     1.0  0.95039  0.96528  0.38532  1.0000
  H   H1458     1.0  0.89298  0.65453  0.08758  1.0000
  H   H1459     1.0  0.94681  0.81340  0.46946  1.0000
  H   H1460     1.0  0.93826  0.50097  0.22826  1.0000
  H   H1461     1.0  0.83489  0.52361  0.31118  1.0000
  C   C858      1.0  0.98141  0.93874  0.22351  1.0000
  H   H1462     1.0  0.93721  0.74272  0.46830  1.0000
  H   H1463     1.0  0.86815  0.97665  0.39974  1.0000
  C   C859      1.0  0.77588  0.98394  0.24663  1.0000
  H   H1464     1.0  0.65480  0.98267  0.26959  1.0000
  H   H1465     1.0  0.68366  0.97776  0.24881  1.0000
  H   H1466     1.0  0.90723  0.96852  0.38065  1.0000
  H   H1467     1.0  0.97953  0.90589  0.25296  1.0000
  H   H1468     1.0  0.98379  0.55754  0.16629  1.0000
  H   H1469     1.0  0.98146  0.78498  0.35597  1.0000
  H   H1470     1.0  0.87118  0.63429  0.00390  1.0000
  C   C860      1.0  0.87885  0.65274  0.00671  1.0000
  C   C861      1.0  0.80731  0.51576  0.69469  1.0000
  H   H1471     1.0  0.79065  0.56508  0.69933  1.0000
  C   C862      1.0  0.82026  0.56557  0.66384  1.0000
  N   N62       1.0  0.79021  0.53032  0.67176  1.0000
  H   H1472     1.0  0.87765  0.95819  0.91994  1.0000
  C   C863      1.0  0.76383  0.52530  0.67971  1.0000
  S   S249      1.0  0.88676  0.94934  0.85165  1.0000
  H   H1473     1.0  0.93640  0.52482  0.52769  1.0000
  H   H1474     1.0  0.80042  0.49698  0.69826  1.0000
  H   H1475     1.0  0.93947  0.79863  0.83215  1.0000
  H   H1476     1.0  0.74247  0.95911  0.71945  1.0000
  H   H1477     1.0  0.79949  0.54030  0.74006  1.0000
  N   N63       1.0  0.95775  0.49285  0.54300  1.0000
  S   S250      1.0  0.87224  0.52224  0.63705  1.0000
  H   H1478     1.0  0.82544  0.51324  0.68225  1.0000
  C   C864      1.0  0.78738  0.49632  0.62558  1.0000
  C   C865      1.0  0.93755  0.83442  0.91187  1.0000
  H   H1479     1.0  0.82338  0.56383  0.63598  1.0000
  C   C866      1.0  0.94828  0.55370  0.61972  1.0000
  C   C867      1.0  0.94471  0.53592  0.64483  1.0000
  C   C868      1.0  0.92151  0.52619  0.65019  1.0000
  C   C869      1.0  0.90153  0.53436  0.63065  1.0000
  C   C870      1.0  0.90499  0.55227  0.60558  1.0000
  C   C871      1.0  0.92835  0.56184  0.59996  1.0000
  H   H1480     1.0  0.96003  0.52955  0.66009  1.0000
  H   H1481     1.0  0.73495  0.52826  0.71708  1.0000
  H   H1482     1.0  0.88960  0.55872  0.59042  1.0000
  H   H1483     1.0  0.93093  0.57557  0.58055  1.0000
  C   C872      1.0  0.75484  0.53193  0.71573  1.0000
  H   H1484     1.0  0.82231  0.58521  0.67039  1.0000
  H   H1485     1.0  0.96414  0.91314  0.80882  1.0000
  H   H1486     1.0  0.78496  0.53511  0.61711  1.0000
  C   C873      1.0  0.95804  0.90320  0.86122  1.0000
  C   C874      1.0  0.95233  0.91554  0.83063  1.0000
  C   C875      1.0  0.93123  0.93070  0.82778  1.0000
  C   C876      1.0  0.91510  0.93297  0.85518  1.0000
  C   C877      1.0  0.92088  0.92072  0.88583  1.0000
  C   C878      1.0  0.94248  0.90636  0.88911  1.0000
  C   C879      1.0  0.88327  0.96620  0.94484  1.0000
  H   H1487     1.0  0.92693  0.93982  0.80397  1.0000
  H   H1488     1.0  0.90844  0.92210  0.90706  1.0000
  H   H1489     1.0  0.94664  0.89708  0.91281  1.0000
  C   C880      1.0  0.74336  0.97779  0.72845  1.0000
  C   C881      1.0  0.79476  0.52257  0.63522  1.0000
  H   H1490     1.0  0.76365  0.52001  0.73528  1.0000
  H   H1491     1.0  0.83483  0.55520  0.67764  1.0000
  Fe  Fe127     1.0  0.87110  0.48782  0.66892  1.0000
  H   H1492     1.0  0.76001  0.50551  0.67704  1.0000
  C   C882      1.0  0.96018  0.78582  0.91419  1.0000
  H   H1493     1.0  0.97340  0.83417  0.89160  1.0000
  C   C883      1.0  0.91380  0.78785  0.86931  1.0000
  C   C884      1.0  0.79437  0.55748  0.67367  1.0000
  H   H1494     1.0  0.81317  0.51147  0.74946  1.0000
  H   H1495     1.0  0.87025  0.93527  0.97366  1.0000
  H   H1496     1.0  0.90400  0.77268  0.85664  1.0000
  S   S251      1.0  0.98327  0.88218  0.86202  1.0000
  H   H1497     1.0  0.97915  0.89275  0.71922  1.0000
  C   C885      1.0  0.95580  0.82560  0.88443  1.0000
  C   C886      1.0  0.97221  0.53025  0.50872  1.0000
  C   C887      1.0  0.81278  0.52653  0.73050  1.0000
  C   C888      1.0  0.91308  0.48920  0.56376  1.0000
  H   H1498     1.0  0.78117  0.56748  0.65669  1.0000
  H   H1499     1.0  0.90406  0.80533  0.86309  1.0000
  S   S252      1.0  0.97826  0.56409  0.61354  1.0000
  H   H1500     1.0  0.91904  0.51260  0.66976  1.0000
  H   H1501     1.0  0.97821  0.51501  0.71268  1.0000
  H   H1502     1.0  0.95753  0.53081  0.55989  1.0000
  C   C889      1.0  0.95526  0.51990  0.53625  1.0000
  H   H1503     1.0  0.76731  0.49516  0.62180  1.0000
  H   H1504     1.0  0.94336  0.78939  0.92906  1.0000
  H   H1505     1.0  0.83137  0.53428  0.73132  1.0000
  H   H1506     1.0  0.78120  0.97413  0.74489  1.0000
  S   S253      1.0  0.86607  0.48647  0.72566  1.0000
  H   H1507     1.0  0.90187  0.95854  0.95032  1.0000
  H   H1508     1.0  0.94939  0.74858  0.89876  1.0000
  H   H1509     1.0  0.75699  0.55151  0.72211  1.0000
  H   H1510     1.0  0.97612  0.80335  0.80957  1.0000
  H   H1511     1.0  0.91940  0.82618  0.90937  1.0000
  N   N64       1.0  0.95944  0.79829  0.87989  1.0000
  H   H1512     1.0  0.82807  0.97413  0.68332  1.0000
  H   H1513     1.0  0.75151  0.53490  0.66110  1.0000
  H   H1514     1.0  0.79602  0.49107  0.60098  1.0000
  H   H1515     1.0  0.81452  0.52382  0.62885  1.0000
  H   H1516     1.0  0.84691  0.95750  0.96501  1.0000
  H   H1517     1.0  0.95008  0.83441  0.85997  1.0000
  H   H1518     1.0  0.90757  0.50846  0.55861  1.0000
  H   H1519     1.0  0.98148  0.48486  0.76232  1.0000
  H   H1520     1.0  0.91224  0.78410  0.89684  1.0000
  H   H1521     1.0  0.93477  0.85450  0.90936  1.0000
  H   H1522     1.0  0.94536  0.76919  0.84767  1.0000
  S   S254      1.0  0.69496  0.98113  0.70764  1.0000
  C   C890      1.0  0.94031  0.78804  0.85632  1.0000
  H   H1523     1.0  0.96327  0.75078  0.94005  1.0000
  H   H1524     1.0  0.97499  0.79356  0.93034  1.0000
  C   C891      1.0  0.96394  0.75777  0.91348  1.0000
  H   H1525     1.0  0.94498  0.83115  0.93793  1.0000
  C   C892      1.0  0.86649  0.95530  0.97212  1.0000
  H   H1526     1.0  0.94417  0.49776  0.59436  1.0000
  H   H1527     1.0  0.92715  0.97059  0.90942  1.0000
  S   S255      1.0  0.98153  0.60605  0.52328  1.0000
  H   H1528     1.0  0.98217  0.75224  0.90360  1.0000
  H   H1529     1.0  0.97506  0.54999  0.51387  1.0000
  C   C893      1.0  0.98407  0.79387  0.86352  1.0000
  S   S256      1.0  0.85907  0.98113  0.76395  1.0000
  H   H1530     1.0  0.86983  0.96301  0.99785  1.0000
  H   H1531     1.0  0.91853  0.65294  0.00161  1.0000
  Fe  Fe128     1.0  0.87753  0.98124  0.81583  1.0000
  C   C894      1.0  0.94067  0.48630  0.57147  1.0000
  H   H1532     1.0  0.90993  0.61451  0.97699  1.0000
  H   H1533     1.0  0.87947  0.66031  0.98046  1.0000
  C   C895      1.0  0.91929  0.60360  0.99717  1.0000
  H   H1534     1.0  0.93904  0.60757  0.99750  1.0000
  H   H1535     1.0  0.91772  0.58401  0.98998  1.0000
  C   C896      1.0  0.98343  0.48577  0.55395  1.0000
  H   H1536     1.0  0.98355  0.50372  0.60470  1.0000
