data_image0
_chemical_formula_structural       H2CH6C2H4CH2FeHCHSC3HCHCHSHFeCNHCH3FeHC3HCH2CH3CH3FeHCSH4SFeHS2CHCHC2FeNH4FeSCHSCSH2CHCH3SCH2CHC2FeCH2C2SCNH2SH2CHCH7SCH3CH2CSCSC2HCHC2NH2SFeHC5SH10CH2C3SCHC2HCH3CH3C2H2CH3CHFeH3CHFeHSH3CSFeHFeHSHCFeHFeSC2NSHCS2HC2H2CH9SC2HCH3C2H5C3SH4NHCH4C2HC2H6CSH4C2NCHCH4S2H4CHC2H4C2FeHCHCHCH3C3H3CH7CHCHCH3NH5FeH4CH2SNCH5C4HCH3SHSH5C3HCSH2CH5C2SH2C2H2CHCHNHCH6NSH3CSCSH2FeCFeH2C2HSHCHFeSCHNHCHCSH4SFeC2H2SFeC3HNCHFeC4H2C4HCHCHC2HFeC3H4C2S2C3HCFeS3CH2CHCHC2HCHNHC4H2CH3CH2SHSH3C3HSC3HFeH6CH4CHSC2H2SCHCFeHC2H3C2H2CH4CH3C2H2NH2CH4S2CFeHCHCH2C2HC4HC2HC3NSHCH4CHFeCSHFeCH6SC3H6CH2SCS2H2CFeH5C2HCS2HCHCHC2HFeH2CH3CHSHSFeH3CHS2CH3SH7C2HNH3CHCH6CHC2H2CSCHSCH2CFeH2SFeH3CHFeSHSCFeHFeHCH2CH2Fe2HCS2CSCHSHCSH5C2HCH2SC2SC3H2CH3CSC3HCHCH4CHCHCH3C3H2CH3CHNH4CH2CH2NHCH2C2H4CHCHNHCH4CFeS2H5C2H2SH4NHC2H6CHCH3CHCH10CH3NCHCH4CFeSCHCFeH6SHCH3CH2C2H4CHNFeCHCFeSC2HSFeCSCSHC2HCSHCHFeSCHFeH4NHCHCSHSCHCH4CH2SCNC3HC3HCH2C2H2CSCH3CHC5H5FeS2FeS2FeSFeS3FeS2CHFeS2C7H5C6H4C6H2CHCH2CH2NC8H22CH4C2H6CNSC2H2CH2SHSHCH2C3H3CH2CH9CH3CH2FeS2FeS2FeSFeHS2FeS2HCFeS2H2C7H3C6H4C6H5C2NSHC3NHNC2H3C4H3SCH2CNH3CH2CNC8H29CH4CH3CHCH2FeH2CH10CHCH3CH3CH3CH5CH2C2HCH8C2H2SHFeHSHSHFeSH2CSHCHSFeS2FeS2FeSFeS3CHC2HC6H5CH2FeC6H4C6H5C4FeCHSHC6HNCH2CH2SH5CH6CHCH4SH2CH2CHFeC2H7CHC2H3NH5CH4CH2SC2SC2H2SC2H4CH2CH4CH4CHC3HSHFeHCH4CH4CH2SHNC7H7CH3NH9CH2FeSC3H5NSCHFeHSHS2FeSHCFeSH3SFeS2FeS2FeSFeS3HC3HC6H4FeHCHC7H4C6H4C4H6CH3NC2H6FeNC8H21C3H5SH4NH2CHCH2C2NC2H3NCHCHSHC3H7CH2CH2CH3CH2CHCHCHC2H3CH2C2H3CNH2C3H3SH4C2HC2HCHCH2CH4SC2HC2HSCH3SH2FeS2FeHSHFeHS2FeSHFe2SH4C6H2CH2C4H4NCH3CHCH6CNH2SH2CH4CHNC3H4CH2CHC2H5C2HCH2C2HCHC2HCH3CH2CH2C3SHFeHC2H3SC2H12SH2CFeS2FeS2Fe2HS2FeS2HFeSH2SHC6H4SHC5H2C2HC2HCHCSH4NH3FeSH6C2H2FeCHCHCHNHCH2C3H3C2HCH2CHCH9CH
_chemical_formula_sum              "H1152 C672 Fe96 S192 N48"
_cell_length_a       50.9309
_cell_length_b       50.9372
_cell_length_c       40.9202
_cell_angle_alpha    90.2017
_cell_angle_beta     89.7929
_cell_angle_gamma    120.211

_space_group_name_H-M_alt    "P 1"
_space_group_IT_number       1

loop_
  _space_group_symop_operation_xyz
  'x, y, z'

loop_
  _atom_site_type_symbol
  _atom_site_label
  _atom_site_symmetry_multiplicity
  _atom_site_fract_x
  _atom_site_fract_y
  _atom_site_fract_z
  _atom_site_occupancy
  H   H1        1.0  0.09133  0.28969  0.03303  1.0000
  H   H2        1.0  0.07187  0.31010  0.02653  1.0000
  C   C1        1.0  0.09248  0.31167  0.03771  1.0000
  H   H3        1.0  0.09082  0.31499  0.06428  1.0000
  H   H4        1.0  0.06962  0.33509  0.37074  1.0000
  H   H5        1.0  0.48516  0.17603  0.48740  1.0000
  H   H6        1.0  0.39657  0.17488  0.29873  1.0000
  H   H7        1.0  0.35327  0.24745  0.33817  1.0000
  H   H8        1.0  0.42697  0.24909  0.11256  1.0000
  C   C2        1.0  0.38402  0.04166  0.23595  1.0000
  C   C3        1.0  0.47757  0.15160  0.48601  1.0000
  H   H9        1.0  0.18569  0.32999  0.08184  1.0000
  H   H10       1.0  0.48099  0.01778  0.16837  1.0000
  H   H11       1.0  0.39476  0.06578  0.24077  1.0000
  H   H12       1.0  0.49410  0.24139  0.12426  1.0000
  C   C4        1.0  0.33849  0.25349  0.25114  1.0000
  H   H13       1.0  0.50351  0.09253  0.21147  1.0000
  H   H14       1.0  0.49322  0.31381  0.03194  1.0000
  Fe  Fe1       1.0  0.41142  0.31796  0.38708  1.0000
  H   H15       1.0  0.50227  0.06584  0.24011  1.0000
  C   C5        1.0  0.45565  0.21254  0.00356  1.0000
  H   H16       1.0  0.41630  0.17100  0.24435  1.0000
  S   S1        1.0  0.39249  0.26951  0.40414  1.0000
  C   C6        1.0  0.18371  0.31720  0.01805  1.0000
  C   C7        1.0  0.44164  0.19910  0.03351  1.0000
  C   C8        1.0  0.49229  0.03757  0.18501  1.0000
  H   H17       1.0  0.48467  0.14656  0.46223  1.0000
  C   C9        1.0  0.45636  0.05681  0.17522  1.0000
  H   H18       1.0  0.37396  0.28779  0.33746  1.0000
  C   C10       1.0  0.35969  0.26742  0.32228  1.0000
  H   H19       1.0  0.48280  0.27251  0.15828  1.0000
  S   S2        1.0  0.48665  0.18449  0.13652  1.0000
  H   H20       1.0  0.44200  0.05035  0.12443  1.0000
  Fe  Fe2       1.0  0.48685  0.14254  0.15158  1.0000
  C   C11       1.0  0.44582  0.01874  0.21889  1.0000
  N   N1        1.0  0.47013  0.04554  0.20014  1.0000
  H   H21       1.0  0.47623  0.26768  0.24404  1.0000
  C   C12       1.0  0.42968  0.24180  0.00175  1.0000
  H   H22       1.0  0.43833  0.22580  0.47050  1.0000
  H   H23       1.0  0.39672  0.26378  0.30152  1.0000
  H   H24       1.0  0.47335  0.07955  0.16560  1.0000
  Fe  Fe3       1.0  0.42646  0.26881  0.36914  1.0000
  H   H25       1.0  0.18431  0.30039  0.03481  1.0000
  C   C13       1.0  0.41519  0.22789  0.03136  1.0000
  C   C14       1.0  0.37586  0.03094  0.20389  1.0000
  C   C15       1.0  0.47251  0.27532  0.13547  1.0000
  H   H26       1.0  0.34766  0.27849  0.25262  1.0000
  C   C16       1.0  0.48767  0.07102  0.22428  1.0000
  H   H27       1.0  0.45511  0.06024  0.26515  1.0000
  H   H28       1.0  0.42482  0.28963  0.24656  1.0000
  C   C17       1.0  0.48016  0.28865  0.07760  1.0000
  H   H29       1.0  0.14177  0.30774  0.99502  1.0000
  H   H30       1.0  0.31731  0.16544  0.27227  1.0000
  H   H31       1.0  0.40997  0.19654  0.07002  1.0000
  C   C18       1.0  0.44003  0.03603  0.14575  1.0000
  H   H32       1.0  0.45308  0.08434  0.23416  1.0000
  H   H33       1.0  0.43931  0.06125  0.18693  1.0000
  H   H34       1.0  0.46944  0.29517  0.13985  1.0000
  Fe  Fe4       1.0  0.47664  0.33081  0.39196  1.0000
  H   H35       1.0  0.47253  0.23455  0.08805  1.0000
  C   C19       1.0  0.15216  0.31480  0.01976  1.0000
  S   S3        1.0  0.40916  0.22539  0.33984  1.0000
  H   H36       1.0  0.47384  0.30602  0.08402  1.0000
  H   H37       1.0  0.31092  0.24962  0.20892  1.0000
  H   H38       1.0  0.32098  0.22078  0.20957  1.0000
  H   H39       1.0  0.30526  0.18648  0.24846  1.0000
  S   S4        1.0  0.45011  0.17252  0.05223  1.0000
  Fe  Fe5       1.0  0.44655  0.15489  0.10485  1.0000
  H   H40       1.0  0.42754  0.24593  0.15596  1.0000
  S   S5        1.0  0.44927  0.11294  0.11721  1.0000
  S   S6        1.0  0.46073  0.21760  0.20094  1.0000
  C   C20       1.0  0.37828  0.26746  0.29237  1.0000
  H   H41       1.0  0.33920  0.26842  0.31528  1.0000
  C   C21       1.0  0.37728  0.02106  0.26208  1.0000
  H   H42       1.0  0.34862  0.25916  0.19828  1.0000
  C   C22       1.0  0.40658  0.27731  0.22822  1.0000
  C   C23       1.0  0.46850  0.07878  0.24750  1.0000
  Fe  Fe6       1.0  0.43048  0.28643  0.44109  1.0000
  N   N2        1.0  0.36048  0.24497  0.26564  1.0000
  H   H43       1.0  0.38307  0.02969  0.28679  1.0000
  H   H44       1.0  0.45815  0.26880  0.07040  1.0000
  H   H45       1.0  0.36003  0.20928  0.29464  1.0000
  H   H46       1.0  0.13768  0.29515  0.03589  1.0000
  Fe  Fe7       1.0  0.45224  0.17383  0.17634  1.0000
  S   S7        1.0  0.38160  0.05565  0.17018  1.0000
  C   C24       1.0  0.32947  0.24500  0.21499  1.0000
  H   H47       1.0  0.39932  0.23361  0.04223  1.0000
  S   S8        1.0  0.45610  0.13425  0.19482  1.0000
  C   C25       1.0  0.42551  0.22346  0.30246  1.0000
  S   S9        1.0  0.46316  0.28319  0.40687  1.0000
  H   H48       1.0  0.48401  0.09922  0.26206  1.0000
  H   H49       1.0  0.31706  0.24335  0.26566  1.0000
  C   C26       1.0  0.38291  0.24558  0.24100  1.0000
  H   H50       1.0  0.37142  0.23121  0.21938  1.0000
  C   C27       1.0  0.44757  0.21904  0.24051  1.0000
  H   H51       1.0  0.33970  0.18550  0.23791  1.0000
  H   H52       1.0  0.38994  0.29114  0.28290  1.0000
  H   H53       1.0  0.39619  0.29122  0.22188  1.0000
  S   S10       1.0  0.41172  0.14511  0.14424  1.0000
  C   C28       1.0  0.42524  0.19290  0.25614  1.0000
  H   H54       1.0  0.32706  0.21242  0.29958  1.0000
  H   H55       1.0  0.41769  0.27474  0.20599  1.0000
  C   C29       1.0  0.41412  0.19516  0.28692  1.0000
  H   H56       1.0  0.39576  0.23532  0.25157  1.0000
  C   C30       1.0  0.34380  0.21386  0.28109  1.0000
  C   C31       1.0  0.44010  0.24739  0.13315  1.0000
  Fe  Fe8       1.0  0.41809  0.10572  0.16001  1.0000
  C   C32       1.0  0.42129  0.20693  0.04730  1.0000
  H   H57       1.0  0.45701  0.27150  0.29878  1.0000
  H   H58       1.0  0.44026  0.22572  0.13143  1.0000
  C   C33       1.0  0.44812  0.24960  0.28702  1.0000
  C   C34       1.0  0.45891  0.24738  0.25601  1.0000
  S   S11       1.0  0.44324  0.31611  0.35023  1.0000
  C   C35       1.0  0.32571  0.18672  0.25800  1.0000
  N   N3        1.0  0.49312  0.28069  0.10648  1.0000
  H   H59       1.0  0.13632  0.32575  0.08021  1.0000
  H   H60       1.0  0.45231  0.13910  0.48631  1.0000
  S   S12       1.0  0.44594  0.33516  0.42796  1.0000
  H   H61       1.0  0.45004  0.02238  0.13733  1.0000
  H   H62       1.0  0.47123  0.20653  0.99248  1.0000
  C   C36       1.0  0.49365  0.25170  0.10048  1.0000
  H   H63       1.0  0.49295  0.31116  0.47435  1.0000
  C   C37       1.0  0.49921  0.29891  0.04596  1.0000
  H   H64       1.0  0.49412  0.27907  0.03030  1.0000
  H   H65       1.0  0.50266  0.03030  0.20434  1.0000
  H   H66       1.0  0.42648  0.02228  0.22464  1.0000
  H   H67       1.0  0.41549  0.02092  0.15107  1.0000
  H   H68       1.0  0.45476  0.01658  0.24297  1.0000
  H   H69       1.0  0.18780  0.31147  0.99302  1.0000
  H   H70       1.0  0.11701  0.33618  0.99542  1.0000
  S   S13       1.0  0.42874  0.27462  0.49563  1.0000
  C   C38       1.0  0.36407  0.30919  0.73092  1.0000
  H   H71       1.0  0.48235  0.11669  0.50867  1.0000
  H   H72       1.0  0.48795  0.10839  0.56708  1.0000
  H   H73       1.0  0.42758  0.28915  0.79826  1.0000
  C   C39       1.0  0.43847  0.22521  0.49692  1.0000
  H   H74       1.0  0.30250  0.32358  0.78010  1.0000
  H   H75       1.0  0.47495  0.13897  0.53649  1.0000
  C   C40       1.0  0.47771  0.24157  0.75563  1.0000
  S   S14       1.0  0.42245  0.26962  0.98407  1.0000
  C   C41       1.0  0.43835  0.22263  0.56554  1.0000
  S   S15       1.0  0.42756  0.18876  0.73247  1.0000
  C   C42       1.0  0.39192  0.31801  0.75263  1.0000
  C   C43       1.0  0.44524  0.24666  0.80850  1.0000
  H   H76       1.0  0.43064  0.26065  0.56344  1.0000
  C   C44       1.0  0.48900  0.14060  0.51479  1.0000
  H   H77       1.0  0.46334  0.02111  0.74753  1.0000
  C   C45       1.0  0.43403  0.24611  0.51484  1.0000
  C   C46       1.0  0.36847  0.27030  0.78403  1.0000
  N   N4        1.0  0.39626  0.29255  0.76499  1.0000
  H   H78       1.0  0.33136  0.06323  0.72073  1.0000
  H   H79       1.0  0.35847  0.08356  0.68963  1.0000
  S   S16       1.0  0.41172  0.13956  0.65773  1.0000
  Fe  Fe9       1.0  0.49420  0.15589  0.66613  1.0000
  H   H80       1.0  0.47728  0.03468  0.69447  1.0000
  C   C47       1.0  0.43111  0.22203  0.78663  1.0000
  C   C48       1.0  0.34340  0.06641  0.82256  1.0000
  C   C49       1.0  0.43410  0.24469  0.54925  1.0000
  C   C50       1.0  0.38272  0.01786  0.76846  1.0000
  C   C51       1.0  0.38366  0.02887  0.71028  1.0000
  S   S17       1.0  0.48742  0.32464  0.92030  1.0000
  H   H81       1.0  0.34229  0.29359  0.74322  1.0000
  H   H82       1.0  0.40787  0.14489  0.78302  1.0000
  H   H83       1.0  0.38769  0.08983  0.73666  1.0000
  H   H84       1.0  0.43272  0.24818  0.82910  1.0000
  H   H85       1.0  0.33850  0.10033  0.70720  1.0000
  H   H86       1.0  0.35676  0.13957  0.82257  1.0000
  H   H87       1.0  0.39042  0.02585  0.79304  1.0000
  H   H88       1.0  0.32761  0.10839  0.75731  1.0000
  H   H89       1.0  0.36291  0.28242  0.80302  1.0000
  H   H90       1.0  0.42819  0.11213  0.77034  1.0000
  C   C52       1.0  0.45263  0.01793  0.69661  1.0000
  H   H91       1.0  0.37256  0.22954  0.72657  1.0000
  H   H92       1.0  0.34778  0.22713  0.80985  1.0000
  C   C53       1.0  0.33782  0.12631  0.80538  1.0000
  C   C54       1.0  0.44231  0.20141  0.54760  1.0000
  C   C55       1.0  0.44235  0.20296  0.51320  1.0000
  S   S18       1.0  0.37556  0.32214  0.85564  1.0000
  C   C56       1.0  0.34857  0.12062  0.77228  1.0000
  H   H93       1.0  0.32206  0.06175  0.77563  1.0000
  C   C57       1.0  0.34894  0.08634  0.71299  1.0000
  C   C58       1.0  0.39429  0.12130  0.79259  1.0000
  H   H94       1.0  0.46111  0.24411  0.96506  1.0000
  C   C59       1.0  0.37492  0.10211  0.73811  1.0000
  H   H95       1.0  0.32024  0.10479  0.81663  1.0000
  H   H96       1.0  0.38963  0.12443  0.81827  1.0000
  H   H97       1.0  0.42401  0.00470  0.73952  1.0000
  C   C60       1.0  0.34563  0.07136  0.78509  1.0000
  H   H98       1.0  0.41124  0.06196  0.74634  1.0000
  H   H99       1.0  0.32684  0.14011  0.80110  1.0000
  H   H100      1.0  0.36278  0.14323  0.76042  1.0000
  C   C61       1.0  0.44721  0.21940  0.76005  1.0000
  C   C62       1.0  0.41557  0.10801  0.79364  1.0000
  H   H101      1.0  0.34898  0.08657  0.83761  1.0000
  H   H102      1.0  0.34788  0.25910  0.76865  1.0000
  C   C63       1.0  0.49177  0.26642  0.77735  1.0000
  H   H103      1.0  0.35758  0.05663  0.83036  1.0000
  H   H104      1.0  0.40336  0.08343  0.79930  1.0000
  H   H105      1.0  0.31971  0.04891  0.82895  1.0000
  C   C64       1.0  0.37073  0.24470  0.80137  1.0000
  H   H106      1.0  0.38404  0.25352  0.69207  1.0000
  Fe  Fe10      1.0  0.41702  0.32507  0.88153  1.0000
  H   H107      1.0  0.39080  0.12529  0.72873  1.0000
  H   H108      1.0  0.40761  0.20480  0.79043  1.0000
  H   H109      1.0  0.49032  0.23981  0.73523  1.0000
  C   C65       1.0  0.33559  0.32447  0.81329  1.0000
  H   H110      1.0  0.38514  0.25334  0.82352  1.0000
  Fe  Fe11      1.0  0.44720  0.17062  0.69413  1.0000
  H   H111      1.0  0.37952  0.23349  0.78505  1.0000
  S   S19       1.0  0.46132  0.12417  0.62898  1.0000
  H   H112      1.0  0.36601  0.29998  0.70705  1.0000
  H   H113      1.0  0.35599  0.25305  0.71830  1.0000
  H   H114      1.0  0.41712  0.26729  0.74717  1.0000
  C   C66       1.0  0.37722  0.25221  0.71812  1.0000
  S   S20       1.0  0.44763  0.17278  0.56657  1.0000
  Fe  Fe12      1.0  0.42703  0.10608  0.66993  1.0000
  H   H115      1.0  0.44108  0.03121  0.69228  1.0000
  Fe  Fe13      1.0  0.43858  0.29823  0.93694  1.0000
  H   H116      1.0  0.43291  0.11982  0.81297  1.0000
  S   S21       1.0  0.39552  0.05435  0.67625  1.0000
  H   H117      1.0  0.32259  0.30023  0.81751  1.0000
  C   C67       1.0  0.40404  0.27776  0.73746  1.0000
  Fe  Fe14      1.0  0.44949  0.16089  0.62053  1.0000
  H   H118      1.0  0.35385  0.05637  0.77508  1.0000
  Fe  Fe15      1.0  0.46817  0.31090  0.86943  1.0000
  S   S22       1.0  0.41977  0.28214  0.88613  1.0000
  C   C68       1.0  0.45306  0.33207  0.77478  1.0000
  C   C69       1.0  0.39419  0.03856  0.74209  1.0000
  N   N5        1.0  0.36557  0.10346  0.77290  1.0000
  S   S23       1.0  0.46050  0.13602  0.70768  1.0000
  H   H119      1.0  0.43817  0.22182  0.59195  1.0000
  C   C70       1.0  0.47556  0.26919  0.80374  1.0000
  S   S24       1.0  0.48435  0.19372  0.65619  1.0000
  S   S25       1.0  0.49375  0.30130  0.82984  1.0000
  H   H120      1.0  0.48793  0.30268  0.53214  1.0000
  C   C71       1.0  0.44471  0.00440  0.73152  1.0000
  C   C72       1.0  0.44988  0.23383  0.98786  1.0000
  H   H121      1.0  0.44487  0.18650  0.49893  1.0000
  H   H122      1.0  0.41689  0.31588  0.81041  1.0000
  C   C73       1.0  0.42261  0.30652  0.78861  1.0000
  H   H123      1.0  0.41938  0.29514  0.71947  1.0000
  H   H124      1.0  0.47167  0.33485  0.53756  1.0000
  H   H125      1.0  0.27632  0.33372  0.85995  1.0000
  H   H126      1.0  0.45983  0.32526  0.75195  1.0000
  H   H127      1.0  0.41184  0.33443  0.73790  1.0000
  H   H128      1.0  0.36317  0.33010  0.72545  1.0000
  H   H129      1.0  0.39044  0.33127  0.77359  1.0000
  H   H130      1.0  0.50239  0.01324  0.72498  1.0000
  H   H131      1.0  0.50388  0.20860  0.53073  1.0000
  S   S26       1.0  0.05686  0.38605  0.44774  1.0000
  C   C74       1.0  0.02928  0.38240  0.41848  1.0000
  C   C75       1.0  0.03638  0.40320  0.39304  1.0000
  H   H132      1.0  0.05905  0.42260  0.39127  1.0000
  C   C76       1.0  0.05294  0.48009  0.41177  1.0000
  H   H133      1.0  0.02075  0.55711  0.17605  1.0000
  H   H134      1.0  0.03337  0.59405  0.15942  1.0000
  H   H135      1.0  0.02011  0.41461  0.34965  1.0000
  C   C77       1.0  0.01421  0.39858  0.36947  1.0000
  C   C78       1.0  0.02408  0.65420  0.11855  1.0000
  H   H136      1.0  0.06597  0.50174  0.39811  1.0000
  H   H137      1.0  0.01431  0.59579  0.21139  1.0000
  H   H138      1.0  0.03431  0.46404  0.39559  1.0000
  H   H139      1.0  0.05647  0.35981  0.25868  1.0000
  H   H140      1.0  0.00686  0.55366  0.24016  1.0000
  C   C79       1.0  0.01329  0.66058  0.17531  1.0000
  C   C80       1.0  0.01293  0.57259  0.16732  1.0000
  C   C81       1.0  0.04135  0.48652  0.44402  1.0000
  S   S27       1.0  0.04916  0.66264  0.08438  1.0000
  H   H141      1.0  0.02920  0.49891  0.43793  1.0000
  H   H142      1.0  0.06204  0.50333  0.45738  1.0000
  H   H143      1.0  0.05387  0.47554  0.02048  1.0000
  H   H144      1.0  0.06000  0.35766  0.31764  1.0000
  N   N6        1.0  0.02198  0.45928  0.46521  1.0000
  H   H145      1.0  0.04932  0.43838  0.45666  1.0000
  C   C82       1.0  0.03432  0.66647  0.14973  1.0000
  H   H146      1.0  0.06882  0.47166  0.41631  1.0000
  H   H147      1.0  0.07041  0.39704  0.27490  1.0000
  H   H148      1.0  0.06871  0.36954  0.37599  1.0000
  H   H149      1.0  0.07606  0.40527  0.34122  1.0000
  C   C83       1.0  0.07622  0.37898  0.27111  1.0000
  C   C84       1.0  0.04129  0.44665  0.47736  1.0000
  H   H150      1.0  0.06247  0.46467  0.48902  1.0000
  C   C85       1.0  0.04937  0.47286  0.99377  1.0000
  C   C86       1.0  0.19183  0.38949  0.49006  1.0000
  H   H151      1.0  0.16164  0.62187  0.99397  1.0000
  H   H152      1.0  0.50387  0.38684  0.44080  1.0000
  H   H153      1.0  0.47871  0.37629  0.30299  1.0000
  H   H154      1.0  0.50256  0.45973  0.32906  1.0000
  H   H155      1.0  0.26300  0.41294  0.48412  1.0000
  H   H156      1.0  0.23423  0.65577  0.06236  1.0000
  C   C87       1.0  0.49633  0.61741  0.30282  1.0000
  S   S28       1.0  0.26700  0.39305  0.23289  1.0000
  H   H157      1.0  0.39278  0.33892  0.30587  1.0000
  H   H158      1.0  0.21489  0.46088  0.46721  1.0000
  H   H159      1.0  0.19354  0.66483  0.18413  1.0000
  H   H160      1.0  0.36226  0.57640  0.16691  1.0000
  C   C88       1.0  0.22915  0.64909  0.46697  1.0000
  C   C89       1.0  0.22717  0.62828  0.17581  1.0000
  N   N7        1.0  0.15133  0.34258  0.03105  1.0000
  C   C90       1.0  0.20426  0.65624  0.47724  1.0000
  H   H161      1.0  0.11989  0.35958  0.02919  1.0000
  C   C91       1.0  0.15451  0.34618  0.06771  1.0000
  H   H162      1.0  0.18969  0.65877  0.08736  1.0000
  H   H163      1.0  0.49678  0.47176  0.36757  1.0000
  H   H164      1.0  0.42099  0.40831  0.36705  1.0000
  H   H165      1.0  0.18421  0.35618  0.10943  1.0000
  S   S29       1.0  0.20496  0.48997  0.40521  1.0000
  S   S30       1.0  0.35692  0.53002  0.24489  1.0000
  H   H166      1.0  0.50310  0.59498  0.20286  1.0000
  H   H167      1.0  0.17136  0.36934  0.47996  1.0000
  H   H168      1.0  0.36722  0.48734  0.11586  1.0000
  H   H169      1.0  0.14115  0.64905  0.48270  1.0000
  C   C92       1.0  0.23092  0.45892  0.48414  1.0000
  H   H170      1.0  0.37698  0.35807  0.25830  1.0000
  C   C93       1.0  0.34687  0.38029  0.31900  1.0000
  C   C94       1.0  0.48723  0.39379  0.32259  1.0000
  H   H171      1.0  0.08493  0.34784  0.29843  1.0000
  H   H172      1.0  0.15152  0.36540  0.07577  1.0000
  H   H173      1.0  0.38815  0.58306  0.13329  1.0000
  H   H174      1.0  0.15458  0.66493  0.44285  1.0000
  C   C95       1.0  0.45054  0.55145  0.28540  1.0000
  C   C96       1.0  0.42734  0.59577  0.19285  1.0000
  Fe  Fe16      1.0  0.13393  0.49217  0.48914  1.0000
  H   H175      1.0  0.17650  0.42441  0.39861  1.0000
  C   C97       1.0  0.08179  0.36754  0.30375  1.0000
  H   H176      1.0  0.09584  0.38712  0.25421  1.0000
  C   C98       1.0  0.30259  0.50929  0.10030  1.0000
  H   H177      1.0  0.37109  0.60592  0.13801  1.0000
  C   C99       1.0  0.44257  0.42937  0.36065  1.0000
  H   H178      1.0  0.22184  0.61367  0.10054  1.0000
  H   H179      1.0  0.31490  0.54705  0.19606  1.0000
  H   H180      1.0  0.23283  0.65092  0.44016  1.0000
  C   C100      1.0  0.45685  0.58022  0.26650  1.0000
  C   C101      1.0  0.46749  0.40616  0.38933  1.0000
  C   C102      1.0  0.18358  0.42254  0.11982  1.0000
  H   H181      1.0  0.15193  0.37225  0.30778  1.0000
  H   H182      1.0  0.28543  0.45285  0.48951  1.0000
  H   H183      1.0  0.29442  0.48465  0.10253  1.0000
  C   C103      1.0  0.39706  0.53223  0.19784  1.0000
  H   H184      1.0  0.26658  0.50452  0.46839  1.0000
  H   H185      1.0  0.47820  0.62091  0.31360  1.0000
  H   H186      1.0  0.13632  0.42077  0.28520  1.0000
  H   H187      1.0  0.10306  0.43025  0.31302  1.0000
  H   H188      1.0  0.36339  0.53077  0.09180  1.0000
  H   H189      1.0  0.27823  0.53527  0.10164  1.0000
  H   H190      1.0  0.20498  0.37034  0.07275  1.0000
  C   C104      1.0  0.11135  0.37542  0.35334  1.0000
  H   H191      1.0  0.24445  0.41403  0.40379  1.0000
  C   C105      1.0  0.27375  0.51171  0.10367  1.0000
  H   H192      1.0  0.33724  0.52220  0.17462  1.0000
  C   C106      1.0  0.46309  0.40275  0.32965  1.0000
  H   H193      1.0  0.13001  0.36888  0.27147  1.0000
  H   H194      1.0  0.48663  0.40171  0.39042  1.0000
  H   H195      1.0  0.49194  0.38359  0.34393  1.0000
  N   N8        1.0  0.10758  0.39106  0.32407  1.0000
  H   H196      1.0  0.21387  0.43713  0.04344  1.0000
  H   H197      1.0  0.48426  0.62298  0.22078  1.0000
  H   H198      1.0  0.13169  0.39111  0.36788  1.0000
  H   H199      1.0  0.42626  0.53383  0.28194  1.0000
  H   H200      1.0  0.49692  0.59985  0.31835  1.0000
  Fe  Fe17      1.0  0.10295  0.42675  0.46280  1.0000
  H   H201      1.0  0.25803  0.49878  0.08338  1.0000
  H   H202      1.0  0.47664  0.66411  0.23801  1.0000
  H   H203      1.0  0.24627  0.50455  0.35157  1.0000
  H   H204      1.0  0.33405  0.39171  0.32288  1.0000
  C   C107      1.0  0.49812  0.45294  0.35523  1.0000
  H   H205      1.0  0.18305  0.63938  0.46456  1.0000
  H   H206      1.0  0.26132  0.50091  0.12659  1.0000
  S   S31       1.0  0.11404  0.45276  0.00185  1.0000
  N   N9        1.0  0.48896  0.60659  0.26795  1.0000
  C   C108      1.0  0.21287  0.40780  0.46157  1.0000
  H   H207      1.0  0.34975  0.37251  0.37043  1.0000
  H   H208      1.0  0.44681  0.38322  0.38928  1.0000
  H   H209      1.0  0.33389  0.47627  0.13964  1.0000
  H   H210      1.0  0.48037  0.65845  0.28020  1.0000
  H   H211      1.0  0.16310  0.41782  0.13277  1.0000
  C   C109      1.0  0.37235  0.35415  0.34168  1.0000
  C   C110      1.0  0.26498  0.43212  0.41625  1.0000
  C   C111      1.0  0.14394  0.58703  0.03079  1.0000
  C   C112      1.0  0.14681  0.38489  0.28928  1.0000
  H   H212      1.0  0.19819  0.37942  0.02378  1.0000
  C   C113      1.0  0.47291  0.64654  0.25641  1.0000
  H   H213      1.0  0.32222  0.56706  0.12227  1.0000
  H   H214      1.0  0.46162  0.41350  0.30668  1.0000
  H   H215      1.0  0.46426  0.54167  0.27616  1.0000
  S   S32       1.0  0.46794  0.59735  0.14641  1.0000
  H   H216      1.0  0.45747  0.46156  0.31912  1.0000
  S   S33       1.0  0.38377  0.34174  0.37709  1.0000
  H   H217      1.0  0.19873  0.41133  0.44338  1.0000
  H   H218      1.0  0.48387  0.44610  0.42222  1.0000
  H   H219      1.0  0.45002  0.57331  0.24078  1.0000
  H   H220      1.0  0.45422  0.55569  0.31201  1.0000
  H   H221      1.0  0.16792  0.61159  0.16023  1.0000
  C   C114      1.0  0.49148  0.63150  0.24605  1.0000
  C   C115      1.0  0.37994  0.35027  0.30978  1.0000
  C   C116      1.0  0.36685  0.58241  0.14074  1.0000
  H   H222      1.0  0.44632  0.44582  0.38059  1.0000
  C   C117      1.0  0.33988  0.56076  0.11893  1.0000
  S   S34       1.0  0.14630  0.42490  0.46569  1.0000
  H   H223      1.0  0.27923  0.47310  0.44312  1.0000
  H   H224      1.0  0.43867  0.62024  0.19063  1.0000
  C   C118      1.0  0.08367  0.35967  0.37660  1.0000
  H   H225      1.0  0.09162  0.36215  0.40230  1.0000
  H   H226      1.0  0.34735  0.56695  0.09305  1.0000
  H   H227      1.0  0.15356  0.64746  0.17806  1.0000
  H   H228      1.0  0.20785  0.62320  0.19225  1.0000
  H   H229      1.0  0.20317  0.33971  0.02432  1.0000
  C   C119      1.0  0.13699  0.40620  0.30502  1.0000
  C   C120      1.0  0.35581  0.36929  0.34598  1.0000
  S   S35       1.0  0.34368  0.38970  0.25190  1.0000
  H   H230      1.0  0.17891  0.56323  0.10200  1.0000
  H   H231      1.0  0.24401  0.45928  0.42316  1.0000
  C   C121      1.0  0.17501  0.37144  0.01462  1.0000
  C   C122      1.0  0.22194  0.43042  0.33386  1.0000
  H   H232      1.0  0.22515  0.60700  0.16622  1.0000
  H   H233      1.0  0.11619  0.35734  0.34554  1.0000
  C   C123      1.0  0.17721  0.58016  0.11772  1.0000
  H   H234      1.0  0.15340  0.57527  0.11575  1.0000
  C   C124      1.0  0.23305  0.48004  0.35339  1.0000
  H   H235      1.0  0.18166  0.57631  0.14314  1.0000
  N   N10       1.0  0.24069  0.43778  0.46990  1.0000
  H   H236      1.0  0.42084  0.45114  0.33574  1.0000
  C   C125      1.0  0.10032  0.41528  0.33408  1.0000
  H   H237      1.0  0.37253  0.53360  0.13395  1.0000
  H   H238      1.0  0.11483  0.42422  0.38564  1.0000
  H   H239      1.0  0.14449  0.44772  0.35677  1.0000
  H   H240      1.0  0.15568  0.62387  0.12621  1.0000
  H   H241      1.0  0.28056  0.44648  0.39645  1.0000
  H   H242      1.0  0.48309  0.55863  0.22305  1.0000
  N   N11       1.0  0.20374  0.63915  0.12536  1.0000
  S   S36       1.0  0.22762  0.40696  0.30637  1.0000
  H   H243      1.0  0.28035  0.51270  0.18964  1.0000
  H   H244      1.0  0.27655  0.42203  0.42981  1.0000
  H   H245      1.0  0.44049  0.58670  0.27622  1.0000
  C   C126      1.0  0.21192  0.43317  0.06951  1.0000
  S   S37       1.0  0.15241  0.42274  0.06460  1.0000
  C   C127      1.0  0.30034  0.53104  0.17666  1.0000
  S   S38       1.0  0.26510  0.42791  0.14125  1.0000
  H   H246      1.0  0.25614  0.47269  0.31297  1.0000
  H   H247      1.0  0.19098  0.61285  0.08017  1.0000
  Fe  Fe18      1.0  0.16888  0.47198  0.44481  1.0000
  C   C128      1.0  0.18422  0.35094  0.08302  1.0000
  Fe  Fe19      1.0  0.32482  0.47888  0.24197  1.0000
  H   H248      1.0  0.44085  0.38133  0.33231  1.0000
  H   H249      1.0  0.38572  0.50779  0.19974  1.0000
  C   C129      1.0  0.34580  0.48807  0.11695  1.0000
  C   C130      1.0  0.43640  0.44248  0.32956  1.0000
  H   H250      1.0  0.44404  0.41796  0.42673  1.0000
  S   S39       1.0  0.32928  0.44910  0.20472  1.0000
  H   H251      1.0  0.31104  0.51560  0.07473  1.0000
  C   C131      1.0  0.13842  0.55795  0.03910  1.0000
  H   H252      1.0  0.17100  0.39050  0.02053  1.0000
  Fe  Fe20      1.0  0.27909  0.43014  0.19549  1.0000
  S   S40       1.0  0.12522  0.47221  0.43847  1.0000
  C   C132      1.0  0.11981  0.43648  0.36201  1.0000
  H   H253      1.0  0.33211  0.47522  0.09543  1.0000
  N   N12       1.0  0.46860  0.42314  0.35878  1.0000
  H   H254      1.0  0.42441  0.42453  0.31080  1.0000
  C   C133      1.0  0.25724  0.45197  0.43831  1.0000
  H   H255      1.0  0.25599  0.43697  0.07376  1.0000
  C   C134      1.0  0.31744  0.51712  0.15892  1.0000
  S   S41       1.0  0.13428  0.60685  0.05940  1.0000
  H   H256      1.0  0.16831  0.39892  0.27555  1.0000
  H   H257      1.0  0.15613  0.42216  0.32086  1.0000
  H   H258      1.0  0.18663  0.39241  0.36025  1.0000
  H   H259      1.0  0.44817  0.63024  0.25697  1.0000
  S   S42       1.0  0.27539  0.46165  0.23133  1.0000
  Fe  Fe21      1.0  0.26637  0.42621  0.26934  1.0000
  C   C135      1.0  0.23878  0.46206  0.33159  1.0000
  C   C136      1.0  0.40275  0.58038  0.21463  1.0000
  H   H260      1.0  0.29151  0.54235  0.16092  1.0000
  H   H261      1.0  0.20611  0.41966  0.16347  1.0000
  S   S43       1.0  0.31550  0.44643  0.28368  1.0000
  Fe  Fe22      1.0  0.13883  0.65345  0.05423  1.0000
  C   C137      1.0  0.19965  0.61240  0.10500  1.0000
  C   C138      1.0  0.18524  0.42724  0.08576  1.0000
  C   C139      1.0  0.42169  0.54760  0.17624  1.0000
  H   H262      1.0  0.39531  0.59313  0.22933  1.0000
  N   N13       1.0  0.32785  0.52729  0.12427  1.0000
  C   C140      1.0  0.19372  0.43490  0.37990  1.0000
  H   H263      1.0  0.47233  0.41067  0.44235  1.0000
  Fe  Fe23      1.0  0.14365  0.43216  0.01165  1.0000
  C   C141      1.0  0.23595  0.43328  0.08689  1.0000
  C   C142      1.0  0.35355  0.52153  0.11635  1.0000
  C   C143      1.0  0.19953  0.41690  0.35823  1.0000
  C   C144      1.0  0.37099  0.36125  0.28279  1.0000
  H   H264      1.0  0.42900  0.53477  0.16147  1.0000
  H   H265      1.0  0.30262  0.49197  0.15992  1.0000
  C   C145      1.0  0.21045  0.46654  0.37749  1.0000
  C   C146      1.0  0.38752  0.54855  0.21719  1.0000
  C   C147      1.0  0.43708  0.57939  0.17383  1.0000
  C   C148      1.0  0.35430  0.37629  0.28710  1.0000
  H   H266      1.0  0.21927  0.39206  0.44993  1.0000
  C   C149      1.0  0.23426  0.42850  0.12096  1.0000
  H   H267      1.0  0.14135  0.51881  0.02404  1.0000
  C   C150      1.0  0.17488  0.63122  0.14370  1.0000
  H   H268      1.0  0.11420  0.45477  0.36520  1.0000
  C   C151      1.0  0.20797  0.42351  0.13736  1.0000
  C   C152      1.0  0.46705  0.42146  0.42183  1.0000
  H   H269      1.0  0.12811  0.54815  0.06240  1.0000
  Fe  Fe24      1.0  0.31689  0.41505  0.24576  1.0000
  C   C153      1.0  0.14585  0.54123  0.01739  1.0000
  C   C154      1.0  0.15717  0.59944  0.00056  1.0000
  C   C155      1.0  0.12080  0.33883  0.02225  1.0000
  H   H270      1.0  0.22165  0.62523  0.47382  1.0000
  H   H271      1.0  0.25093  0.66370  0.47974  1.0000
  H   H272      1.0  0.24802  0.63933  0.19108  1.0000
  H   H273      1.0  0.25125  0.65455  0.13425  1.0000
  C   C156      1.0  0.23052  0.65001  0.14802  1.0000
  C   C157      1.0  0.17567  0.65662  0.16513  1.0000
  S   S44       1.0  0.10886  0.66566  0.02587  1.0000
  S   S45       1.0  0.12878  0.66776  0.10249  1.0000
  C   C158      1.0  0.25677  0.49155  0.49128  1.0000
  C   C159      1.0  0.21016  0.66481  0.10238  1.0000
  C   C160      1.0  0.26183  0.43330  0.49194  1.0000
  H   H274      1.0  0.00686  0.39933  0.48961  1.0000
  C   C161      1.0  0.08764  0.56202  0.94465  1.0000
  Fe  Fe25      1.0  0.09193  0.41900  0.96043  1.0000
  S   S46       1.0  0.12650  0.44941  0.92341  1.0000
  S   S47       1.0  0.04010  0.39883  0.95338  1.0000
  S   S48       1.0  0.10944  0.44642  0.51353  1.0000
  C   C162      1.0  0.13213  0.60478  0.53614  1.0000
  H   H275      1.0  0.04226  0.37106  0.89048  1.0000
  H   H276      1.0  0.12036  0.61746  0.53733  1.0000
  C   C163      1.0  0.11918  0.57701  0.51905  1.0000
  H   H277      1.0  0.09114  0.53881  0.90274  1.0000
  C   C164      1.0  0.09173  0.53642  0.92971  1.0000
  H   H278      1.0  0.03981  0.50679  0.90382  1.0000
  C   C165      1.0  0.03792  0.49640  0.92827  1.0000
  C   C166      1.0  0.07995  0.48403  0.92653  1.0000
  H   H279      1.0  0.11537  0.54194  0.93529  1.0000
  C   C167      1.0  0.13397  0.56001  0.51750  1.0000
  H   H280      1.0  0.10238  0.49009  0.93725  1.0000
  N   N14       1.0  0.06908  0.50440  0.94034  1.0000
  H   H281      1.0  0.06504  0.46003  0.93338  1.0000
  C   C168      1.0  0.08350  0.48473  0.88903  1.0000
  C   C169      1.0  0.02494  0.65212  0.63060  1.0000
  C   C170      1.0  0.02048  0.36983  0.89241  1.0000
  C   C171      1.0  0.01407  0.38212  0.91990  1.0000
  H   H282      1.0  0.04795  0.61074  0.68052  1.0000
  H   H283      1.0  0.03836  0.58547  0.71422  1.0000
  C   C172      1.0  0.06987  0.50363  0.97716  1.0000
  H   H284      1.0  0.08557  0.46494  0.88113  1.0000
  H   H285      1.0  0.06376  0.48327  0.87610  1.0000
  H   H286      1.0  0.06403  0.55744  0.94236  1.0000
  C   C173      1.0  0.02909  0.59561  0.69722  1.0000
  H   H287      1.0  0.02266  0.61061  0.71036  1.0000
  H   H288      1.0  0.02768  0.50634  0.94470  1.0000
  S   S49       1.0  0.04845  0.65774  0.59562  1.0000
  H   H289      1.0  0.10269  0.58357  0.93155  1.0000
  S   S50       1.0  0.11808  0.39557  0.97378  1.0000
  H   H290      1.0  0.10465  0.50543  0.88114  1.0000
  H   H291      1.0  0.04460  0.48032  0.53146  1.0000
  H   H292      1.0  0.01743  0.42561  0.52385  1.0000
  C   C174      1.0  0.02563  0.41977  0.50142  1.0000
  C   C175      1.0  0.01706  0.66036  0.68782  1.0000
  C   C176      1.0  0.01439  0.46217  0.92401  1.0000
  H   H293      1.0  0.05108  0.51237  0.50681  1.0000
  S   S51       1.0  0.11638  0.52513  0.49574  1.0000
  C   C177      1.0  0.43351  0.64707  0.74049  1.0000
  C   C178      1.0  0.03341  0.49102  0.51825  1.0000
  C   C179      1.0  0.03670  0.66595  0.66086  1.0000
  H   H294      1.0  0.09750  0.56862  0.50709  1.0000
  Fe  Fe26      1.0  0.14970  0.48178  0.96533  1.0000
  H   H295      1.0  0.01796  0.44658  0.93956  1.0000
  H   H296      1.0  0.04234  0.41318  0.50931  1.0000
  H   H297      1.0  0.06310  0.51932  0.98821  1.0000
  H   H298      1.0  0.05425  0.45504  0.98561  1.0000
  H   H299      1.0  0.09485  0.56620  0.97064  1.0000
  H   H300      1.0  0.09343  0.51160  0.98551  1.0000
  C   C180      1.0  0.00970  0.46920  0.49327  1.0000
  H   H301      1.0  0.01305  0.45515  0.89805  1.0000
  H   H302      1.0  0.01205  0.56198  0.65901  1.0000
  H   H303      1.0  0.02182  0.49746  0.53697  1.0000
  H   H304      1.0  0.41445  0.49876  0.59159  1.0000
  C   C181      1.0  0.22593  0.43086  0.62919  1.0000
  H   H305      1.0  0.47134  0.33743  0.79280  1.0000
  S   S52       1.0  0.43169  0.33886  0.93369  1.0000
  C   C182      1.0  0.40003  0.49792  0.61239  1.0000
  C   C183      1.0  0.17682  0.37020  0.97700  1.0000
  H   H306      1.0  0.43903  0.65521  0.71491  1.0000
  H   H307      1.0  0.26734  0.37523  0.91187  1.0000
  S   S53       1.0  0.32447  0.50307  0.72486  1.0000
  C   C184      1.0  0.25632  0.37382  0.84782  1.0000
  H   H308      1.0  0.48105  0.37082  0.52112  1.0000
  C   C185      1.0  0.36352  0.34194  0.82909  1.0000
  Fe  Fe27      1.0  0.15401  0.42820  0.93873  1.0000
  H   H309      1.0  0.19502  0.39268  0.96808  1.0000
  C   C186      1.0  0.20842  0.41770  0.84842  1.0000
  C   C187      1.0  0.16435  0.58254  0.97866  1.0000
  H   H310      1.0  0.42584  0.48367  0.64227  1.0000
  H   H311      1.0  0.30777  0.42363  0.82271  1.0000
  H   H312      1.0  0.18342  0.40232  0.50420  1.0000
  C   C188      1.0  0.32411  0.33779  0.79199  1.0000
  C   C189      1.0  0.22277  0.46156  0.88278  1.0000
  H   H313      1.0  0.15568  0.36595  0.96480  1.0000
  H   H314      1.0  0.24730  0.50387  0.50483  1.0000
  C   C190      1.0  0.41633  0.55308  0.60913  1.0000
  H   H315      1.0  0.45045  0.65939  0.78968  1.0000
  H   H316      1.0  0.45991  0.58496  0.58800  1.0000
  H   H317      1.0  0.31631  0.38498  0.83761  1.0000
  H   H318      1.0  0.21785  0.45018  0.50707  1.0000
  C   C191      1.0  0.48435  0.35103  0.51757  1.0000
  H   H319      1.0  0.27488  0.49195  0.50655  1.0000
  H   H320      1.0  0.18277  0.35317  0.96858  1.0000
  H   H321      1.0  0.48241  0.47466  0.99050  1.0000
  C   C192      1.0  0.16011  0.61592  0.55182  1.0000
  C   C193      1.0  0.15841  0.55325  0.98684  1.0000
  H   H322      1.0  0.45252  0.35335  0.77100  1.0000
  H   H323      1.0  0.41093  0.64432  0.74623  1.0000
  N   N15       1.0  0.28584  0.39512  0.86467  1.0000
  H   H324      1.0  0.37988  0.47449  0.61216  1.0000
  H   H325      1.0  0.32841  0.39796  0.87774  1.0000
  C   C194      1.0  0.45717  0.66967  0.76486  1.0000
  H   H326      1.0  0.49826  0.61594  0.67055  1.0000
  H   H327      1.0  0.19937  0.65065  0.50356  1.0000
  H   H328      1.0  0.47407  0.34079  0.49372  1.0000
  H   H329      1.0  0.33664  0.47249  0.84940  1.0000
  S   S54       1.0  0.18067  0.46335  0.97716  1.0000
  S   S55       1.0  0.16549  0.53181  0.95772  1.0000
  C   C195      1.0  0.33977  0.36916  0.78636  1.0000
  Fe  Fe28      1.0  0.47943  0.36390  0.91388  1.0000
  H   H330      1.0  0.23586  0.34997  0.80247  1.0000
  C   C196      1.0  0.46138  0.57900  0.69665  1.0000
  H   H331      1.0  0.20282  0.38059  0.50645  1.0000
  C   C197      1.0  0.20306  0.43080  0.87609  1.0000
  H   H332      1.0  0.28340  0.43288  0.84391  1.0000
  H   H333      1.0  0.38025  0.41143  0.79822  1.0000
  C   C198      1.0  0.32799  0.45179  0.86475  1.0000
  C   C199      1.0  0.25371  0.46569  0.83503  1.0000
  H   H334      1.0  0.23544  0.39706  0.89786  1.0000
  C   C200      1.0  0.25897  0.36569  0.81208  1.0000
  C   C201      1.0  0.41274  0.57645  0.69385  1.0000
  C   C202      1.0  0.27924  0.39794  0.90004  1.0000
  C   C203      1.0  0.24806  0.47883  0.86244  1.0000
  H   H335      1.0  0.47906  0.63425  0.73920  1.0000
  C   C204      1.0  0.23346  0.43512  0.82775  1.0000
  C   C205      1.0  0.29561  0.35060  0.87486  1.0000
  H   H336      1.0  0.33820  0.53054  0.61519  1.0000
  C   C206      1.0  0.45684  0.61720  0.66586  1.0000
  C   C207      1.0  0.20017  0.42338  0.60973  1.0000
  C   C208      1.0  0.49151  0.64988  0.75982  1.0000
  N   N16       1.0  0.38987  0.52096  0.60862  1.0000
  S   S56       1.0  0.17306  0.40755  0.90313  1.0000
  H   H337      1.0  0.26352  0.50249  0.86816  1.0000
  C   C209      1.0  0.25496  0.47631  0.59722  1.0000
  H   H338      1.0  0.40435  0.49543  0.66591  1.0000
  H   H339      1.0  0.35155  0.49305  0.63992  1.0000
  H   H340      1.0  0.26822  0.43489  0.89533  1.0000
  H   H341      1.0  0.37237  0.47717  0.55267  1.0000
  C   C210      1.0  0.47457  0.60533  0.67728  1.0000
  H   H342      1.0  0.38892  0.56549  0.70034  1.0000
  Fe  Fe29      1.0  0.30259  0.45986  0.69493  1.0000
  C   C211      1.0  0.36781  0.38715  0.80227  1.0000
  S   S57       1.0  0.28020  0.42963  0.73898  1.0000
  H   H343      1.0  0.19673  0.60751  0.56208  1.0000
  Fe  Fe30      1.0  0.30456  0.47258  0.76875  1.0000
  C   C212      1.0  0.44145  0.56115  0.58361  1.0000
  H   H344      1.0  0.22450  0.41570  0.64846  1.0000
  H   H345      1.0  0.23033  0.48434  0.55915  1.0000
  H   H346      1.0  0.43312  0.56043  0.55851  1.0000
  H   H347      1.0  0.41210  0.61190  0.66566  1.0000
  H   H348      1.0  0.37000  0.56107  0.63680  1.0000
  H   H349      1.0  0.17907  0.40256  0.61452  1.0000
  S   S58       1.0  0.28819  0.46536  0.64289  1.0000
  C   C213      1.0  0.41834  0.50069  0.64349  1.0000
  C   C214      1.0  0.37941  0.50135  0.54826  1.0000
  C   C215      1.0  0.37985  0.37350  0.82330  1.0000
  H   H350      1.0  0.25873  0.41230  0.53935  1.0000
  H   H351      1.0  0.31401  0.34502  0.87229  1.0000
  H   H352      1.0  0.19312  0.39397  0.84295  1.0000
  H   H353      1.0  0.37157  0.53576  0.56950  1.0000
  H   H354      1.0  0.43914  0.52326  0.64591  1.0000
  H   H355      1.0  0.45192  0.54672  0.58568  1.0000
  C   C216      1.0  0.35370  0.53634  0.63635  1.0000
  H   H356      1.0  0.23737  0.42484  0.80651  1.0000
  H   H357      1.0  0.40863  0.56978  0.60562  1.0000
  S   S59       1.0  0.34378  0.45400  0.69869  1.0000
  C   C217      1.0  0.43035  0.56419  0.70459  1.0000
  S   S60       1.0  0.46416  0.35234  0.86175  1.0000
  S   S61       1.0  0.41458  0.53010  0.72710  1.0000
  H   H358      1.0  0.42745  0.55840  0.63340  1.0000
  H   H359      1.0  0.43093  0.62418  0.74258  1.0000
  C   C218      1.0  0.25476  0.43016  0.52905  1.0000
  Fe  Fe31      1.0  0.15501  0.44880  0.51458  1.0000
  H   H360      1.0  0.47513  0.56963  0.70491  1.0000
  H   H361      1.0  0.48015  0.63688  0.78244  1.0000
  H   H362      1.0  0.32203  0.45763  0.88870  1.0000
  H   H363      1.0  0.28917  0.34781  0.90103  1.0000
  H   H364      1.0  0.30068  0.41121  0.91410  1.0000
  C   C219      1.0  0.30018  0.42544  0.84768  1.0000
  C   C220      1.0  0.42593  0.60275  0.67431  1.0000
  H   H365      1.0  0.24328  0.35224  0.86168  1.0000
  C   C221      1.0  0.20149  0.44229  0.58394  1.0000
  S   S62       1.0  0.34645  0.46926  0.77695  1.0000
  S   S63       1.0  0.32204  0.38342  0.75966  1.0000
  H   H366      1.0  0.33930  0.53124  0.65851  1.0000
  C   C222      1.0  0.37119  0.51477  0.57785  1.0000
  H   H367      1.0  0.27622  0.49678  0.59198  1.0000
  C   C223      1.0  0.17503  0.59904  0.55008  1.0000
  H   H368      1.0  0.17421  0.59205  0.95510  1.0000
  C   C224      1.0  0.25906  0.41210  0.90644  1.0000
  C   C225      1.0  0.36962  0.51727  0.63735  1.0000
  H   H369      1.0  0.27216  0.35391  0.80967  1.0000
  Fe  Fe32      1.0  0.36403  0.49574  0.73041  1.0000
  H   H370      1.0  0.26897  0.38595  0.79605  1.0000
  H   H371      1.0  0.17365  0.55831  0.53207  1.0000
  C   C226      1.0  0.25370  0.45721  0.62280  1.0000
  H   H372      1.0  0.36666  0.50183  0.52651  1.0000
  H   H373      1.0  0.24128  0.38379  0.84715  1.0000
  H   H374      1.0  0.40141  0.38741  0.83536  1.0000
  C   C227      1.0  0.22900  0.46919  0.57829  1.0000
  H   H375      1.0  0.34683  0.44706  0.86772  1.0000
  S   S64       1.0  0.17789  0.65145  0.57233  1.0000
  H   H376      1.0  0.27081  0.45141  0.54210  1.0000
  S   S65       1.0  0.16873  0.43021  0.55859  1.0000
  Fe  Fe33      1.0  0.32369  0.42790  0.74531  1.0000
  H   H377      1.0  0.34674  0.49797  0.58270  1.0000
  H   H378      1.0  0.38238  0.52309  0.66067  1.0000
  H   H379      1.0  0.40382  0.51398  0.54195  1.0000
  C   C228      1.0  0.30777  0.38345  0.86296  1.0000
  H   H380      1.0  0.23132  0.42376  0.53586  1.0000
  S   S66       1.0  0.47236  0.64946  0.64038  1.0000
  S   S67       1.0  0.28735  0.48787  0.81206  1.0000
  C   C229      1.0  0.16204  0.57118  0.53303  1.0000
  H   H381      1.0  0.21891  0.47192  0.90399  1.0000
  H   H382      1.0  0.25764  0.41501  0.93318  1.0000
  H   H383      1.0  0.02498  0.46537  0.99070  1.0000
  S   S68       1.0  0.17994  0.49610  0.49354  1.0000
  H   H384      1.0  0.02155  0.67079  0.19905  1.0000
  H   H385      1.0  0.48917  0.87320  0.28819  1.0000
  H   H386      1.0  0.17828  0.67601  0.15043  1.0000
  H   H387      1.0  0.19049  0.71533  0.48330  1.0000
  H   H388      1.0  0.19706  0.67392  0.42026  1.0000
  H   H389      1.0  0.44478  0.83825  0.22835  1.0000
  H   H390      1.0  0.05839  0.68121  0.15389  1.0000
  C   C230      1.0  0.21471  0.69373  0.43418  1.0000
  C   C231      1.0  0.49415  0.96342  0.42259  1.0000
  H   H391      1.0  0.48624  0.78455  0.23589  1.0000
  N   N17       1.0  0.49457  0.82148  0.26893  1.0000
  H   H392      1.0  0.23846  0.69267  0.06233  1.0000
  H   H393      1.0  0.25911  0.68446  0.09152  1.0000
  H   H394      1.0  0.48500  0.96315  0.44738  1.0000
  C   C232      1.0  0.20328  0.81918  0.05604  1.0000
  H   H395      1.0  0.27131  0.86798  0.11924  1.0000
  C   C233      1.0  0.23709  0.67455  0.07853  1.0000
  H   H396      1.0  0.23656  0.69613  0.42549  1.0000
  H   H397      1.0  0.29870  0.87429  0.03418  1.0000
  H   H398      1.0  0.48295  0.93918  0.41471  1.0000
  H   H399      1.0  0.45335  0.82338  0.27816  1.0000
  H   H400      1.0  0.42269  0.98580  0.17851  1.0000
  H   H401      1.0  0.19206  0.72058  0.42639  1.0000
  C   C234      1.0  0.46413  0.83398  0.22699  1.0000
  H   H402      1.0  0.27781  0.99104  0.19413  1.0000
  C   C235      1.0  0.46441  0.81737  0.25828  1.0000
  C   C236      1.0  0.21442  0.72230  0.42229  1.0000
  H   H403      1.0  0.20189  0.83016  0.47828  1.0000
  H   H404      1.0  0.44624  0.76358  0.29441  1.0000
  C   C237      1.0  0.43218  0.98703  0.20303  1.0000
  S   S69       1.0  0.33942  0.88899  0.33632  1.0000
  C   C238      1.0  0.24428  0.95652  0.22819  1.0000
  H   H405      1.0  0.16438  0.81315  0.02792  1.0000
  S   S70       1.0  0.27523  0.84377  0.40017  1.0000
  C   C239      1.0  0.18461  0.83571  0.48672  1.0000
  H   H406      1.0  0.26237  0.96826  0.29398  1.0000
  H   H407      1.0  0.29412  0.84824  0.00288  1.0000
  C   C240      1.0  0.46985  0.77129  0.30217  1.0000
  Fe  Fe34      1.0  0.27554  0.85138  0.27229  1.0000
  H   H408      1.0  0.47944  0.81479  0.31953  1.0000
  H   H409      1.0  0.17155  0.78279  0.02280  1.0000
  S   S71       1.0  0.15823  0.74887  0.48312  1.0000
  Fe  Fe35      1.0  0.16843  0.71398  0.09127  1.0000
  H   H410      1.0  0.22632  0.94651  0.20904  1.0000
  H   H411      1.0  0.30099  0.97141  0.25232  1.0000
  H   H412      1.0  0.22315  0.89067  0.21875  1.0000
  C   C241      1.0  0.27170  0.95277  0.29385  1.0000
  H   H413      1.0  0.45667  0.96619  0.40111  1.0000
  Fe  Fe36      1.0  0.10026  0.68188  0.07414  1.0000
  S   S72       1.0  0.13957  0.72995  0.06620  1.0000
  H   H414      1.0  0.21094  0.91436  0.28299  1.0000
  S   S73       1.0  0.36592  0.83700  0.29156  1.0000
  C   C242      1.0  0.25152  0.83772  0.02653  1.0000
  Fe  Fe37      1.0  0.33393  0.85575  0.29718  1.0000
  H   H415      1.0  0.41304  0.97044  0.21854  1.0000
  Fe  Fe38      1.0  0.32700  0.91211  0.29710  1.0000
  H   H416      1.0  0.47954  0.76000  0.28719  1.0000
  C   C243      1.0  0.36151  0.99934  0.19844  1.0000
  H   H417      1.0  0.26467  0.78889  0.02664  1.0000
  H   H418      1.0  0.26877  0.81646  0.46336  1.0000
  C   C244      1.0  0.20509  0.90018  0.26074  1.0000
  H   H419      1.0  0.46125  0.81999  0.20495  1.0000
  H   H420      1.0  0.35514  0.99070  0.17381  1.0000
  Fe  Fe39      1.0  0.28917  0.85763  0.34615  1.0000
  Fe  Fe40      1.0  0.15043  0.71246  0.02012  1.0000
  H   H421      1.0  0.16526  0.77137  0.41735  1.0000
  C   C245      1.0  0.19617  0.77550  0.16152  1.0000
  S   S74       1.0  0.23616  0.83521  0.23650  1.0000
  S   S75       1.0  0.35302  0.96444  0.29099  1.0000
  C   C246      1.0  0.20259  0.79711  0.18640  1.0000
  S   S76       1.0  0.28443  0.82339  0.30827  1.0000
  C   C247      1.0  0.26681  0.98962  0.21801  1.0000
  H   H422      1.0  0.26037  0.71269  0.47455  1.0000
  S   S77       1.0  0.48747  0.89495  0.37526  1.0000
  H   H423      1.0  0.24299  0.82534  0.00291  1.0000
  C   C248      1.0  0.24619  0.80634  0.45306  1.0000
  S   S78       1.0  0.32451  0.88046  0.25731  1.0000
  H   H424      1.0  0.23537  0.86170  0.10590  1.0000
  H   H425      1.0  0.25540  0.93060  0.30484  1.0000
  H   H426      1.0  0.26945  0.80581  0.21394  1.0000
  H   H427      1.0  0.34465  0.95471  0.21973  1.0000
  H   H428      1.0  0.23617  0.67217  0.15933  1.0000
  C   C249      1.0  0.24907  0.79751  0.19939  1.0000
  C   C250      1.0  0.41360  0.83580  0.32158  1.0000
  H   H429      1.0  0.17568  0.76701  0.14715  1.0000
  C   C251      1.0  0.24262  0.81472  0.42126  1.0000
  H   H430      1.0  0.24022  0.75369  0.04575  1.0000
  H   H431      1.0  0.44894  0.97920  0.20205  1.0000
  S   S79       1.0  0.27728  0.88413  0.31081  1.0000
  C   C252      1.0  0.41156  0.88185  0.32907  1.0000
  C   C253      1.0  0.45314  0.87757  0.35293  1.0000
  S   S80       1.0  0.18073  0.69857  0.04496  1.0000
  C   C254      1.0  0.21322  0.80128  0.40835  1.0000
  C   C255      1.0  0.18787  0.78077  0.42737  1.0000
  C   C256      1.0  0.48998  0.80627  0.30178  1.0000
  H   H432      1.0  0.46856  0.76326  0.32766  1.0000
  H   H433      1.0  0.23256  0.74329  0.43388  1.0000
  C   C257      1.0  0.22894  0.80803  0.20557  1.0000
  H   H434      1.0  0.23266  0.95803  0.25050  1.0000
  H   H435      1.0  0.19027  0.90496  0.24501  1.0000
  H   H436      1.0  0.48839  0.97964  0.37428  1.0000
  C   C258      1.0  0.35535  0.97881  0.22448  1.0000
  S   S81       1.0  0.20999  0.73848  0.12402  1.0000
  C   C259      1.0  0.23303  0.90426  0.24144  1.0000
  C   C260      1.0  0.44040  0.84810  0.34034  1.0000
  C   C261      1.0  0.48192  0.97925  0.40025  1.0000
  H   H437      1.0  0.20991  0.80746  0.38408  1.0000
  C   C262      1.0  0.24282  0.77616  0.17434  1.0000
  H   H438      1.0  0.20815  0.84283  0.05989  1.0000
  C   C263      1.0  0.28159  0.91072  0.19884  1.0000
  H   H439      1.0  0.28438  0.00207  0.23688  1.0000
  H   H440      1.0  0.44822  0.91708  0.35696  1.0000
  H   H441      1.0  0.40380  0.81304  0.31178  1.0000
  H   H442      1.0  0.49966  0.93957  0.48140  1.0000
  C   C264      1.0  0.21630  0.76492  0.15547  1.0000
  H   H443      1.0  0.29413  0.95769  0.19764  1.0000
  C   C265      1.0  0.39901  0.85260  0.31599  1.0000
  H   H444      1.0  0.24266  0.89218  0.25509  1.0000
  C   C266      1.0  0.28613  0.84975  0.02780  1.0000
  H   H445      1.0  0.24908  0.85820  0.02442  1.0000
  H   H446      1.0  0.14051  0.68249  0.46917  1.0000
  H   H447      1.0  0.25792  0.93254  0.18050  1.0000
  C   C267      1.0  0.36265  0.98945  0.25667  1.0000
  C   C268      1.0  0.19141  0.77285  0.45935  1.0000
  C   C269      1.0  0.22378  0.78544  0.04946  1.0000
  H   H448      1.0  0.26345  0.78500  0.07115  1.0000
  H   H449      1.0  0.18906  0.80579  0.07727  1.0000
  C   C270      1.0  0.24758  0.82856  0.08749  1.0000
  H   H450      1.0  0.29270  0.90855  0.22100  1.0000
  H   H451      1.0  0.25857  0.76818  0.16974  1.0000
  H   H452      1.0  0.26761  0.87780  0.07816  1.0000
  C   C271      1.0  0.18290  0.80777  0.02536  1.0000
  H   H453      1.0  0.29194  0.96313  0.31009  1.0000
  N   N18       1.0  0.25772  0.93636  0.23340  1.0000
  H   H454      1.0  0.45104  0.83480  0.34524  1.0000
  H   H455      1.0  0.29779  0.91629  0.17822  1.0000
  H   H456      1.0  0.21869  0.72485  0.39553  1.0000
  H   H457      1.0  0.20779  0.77098  0.06894  1.0000
  C   C272      1.0  0.27283  0.93566  0.20179  1.0000
  H   H458      1.0  0.19135  0.87607  0.26857  1.0000
  H   H459      1.0  0.24332  0.73453  0.48442  1.0000
  C   C273      1.0  0.28177  0.94890  0.25960  1.0000
  H   H460      1.0  0.21129  0.77652  0.02618  1.0000
  H   H461      1.0  0.26152  0.88825  0.19319  1.0000
  N   N19       1.0  0.23241  0.81813  0.05460  1.0000
  H   H462      1.0  0.23271  0.81284  0.10703  1.0000
  C   C274      1.0  0.22092  0.78516  0.47172  1.0000
  H   H463      1.0  0.40072  0.89509  0.32468  1.0000
  H   H464      1.0  0.29337  0.83744  0.04420  1.0000
  C   C275      1.0  0.25583  0.86096  0.09783  1.0000
  C   C276      1.0  0.24997  0.77856  0.04834  1.0000
  H   H465      1.0  0.29194  0.93427  0.26280  1.0000
  H   H466      1.0  0.25412  0.00194  0.21512  1.0000
  H   H467      1.0  0.26866  0.82747  0.08929  1.0000
  H   H468      1.0  0.44787  0.79296  0.25369  1.0000
  C   C277      1.0  0.43858  0.89431  0.34727  1.0000
  H   H469      1.0  0.18687  0.80510  0.19110  1.0000
  C   C278      1.0  0.18535  0.69138  0.48412  1.0000
  H   H470      1.0  0.19534  0.81869  0.00253  1.0000
  N   N20       1.0  0.21111  0.68813  0.47056  1.0000
  H   H471      1.0  0.48438  0.85674  0.22406  1.0000
  C   C279      1.0  0.24021  0.71137  0.48686  1.0000
  H   H472      1.0  0.48906  0.00260  0.40866  1.0000
  H   H473      1.0  0.19310  0.86032  0.48366  1.0000
  H   H474      1.0  0.21525  0.68572  0.11606  1.0000
  H   H475      1.0  0.16489  0.82349  0.47002  1.0000
  C   C280      1.0  0.15377  0.67059  0.46876  1.0000
  Fe  Fe41      1.0  0.10012  0.68672  0.58667  1.0000
  S   S82       1.0  0.12594  0.73687  0.57559  1.0000
  S   S83       1.0  0.12026  0.67684  0.54200  1.0000
  H   H476      1.0  0.06093  0.68103  0.66348  1.0000
  H   H477      1.0  0.47145  0.77449  0.82567  1.0000
  H   H478      1.0  0.16005  0.80009  0.52193  1.0000
  H   H479      1.0  0.26497  0.89277  0.53823  1.0000
  H   H480      1.0  0.49486  0.84152  0.84248  1.0000
  C   C281      1.0  0.49286  0.71656  0.71277  1.0000
  C   C282      1.0  0.49623  0.98907  0.72396  1.0000
  H   H481      1.0  0.24242  0.68509  0.52891  1.0000
  H   H482      1.0  0.47051  0.80152  0.87515  1.0000
  S   S84       1.0  0.13551  0.68864  0.62102  1.0000
  H   H483      1.0  0.43925  0.76379  0.87433  1.0000
  H   H484      1.0  0.42123  0.99091  0.79348  1.0000
  H   H485      1.0  0.47888  0.72142  0.72953  1.0000
  H   H486      1.0  0.24564  0.90926  0.51925  1.0000
  N   N21       1.0  0.48972  0.67860  0.75776  1.0000
  H   H487      1.0  0.48606  0.72452  0.79807  1.0000
  C   C283      1.0  0.20210  0.80506  0.82090  1.0000
  C   C284      1.0  0.49471  0.79673  0.76199  1.0000
  H   H488      1.0  0.47601  0.90549  0.94995  1.0000
  H   H489      1.0  0.43262  0.97192  0.82190  1.0000
  H   H490      1.0  0.26525  0.72529  0.53259  1.0000
  H   H491      1.0  0.44522  0.94740  0.77578  1.0000
  H   H492      1.0  0.45369  0.68936  0.76587  1.0000
  H   H493      1.0  0.13691  0.81841  0.57642  1.0000
  C   C285      1.0  0.46225  0.96765  0.71642  1.0000
  H   H494      1.0  0.43350  0.76338  0.81579  1.0000
  C   C286      1.0  0.44591  0.96940  0.77186  1.0000
  H   H495      1.0  0.49952  0.75583  0.51861  1.0000
  H   H496      1.0  0.15769  0.83352  0.52716  1.0000
  H   H497      1.0  0.16638  0.85653  0.58814  1.0000
  C   C287      1.0  0.43603  0.88351  0.84712  1.0000
  H   H498      1.0  0.25451  0.85196  0.57571  1.0000
  C   C288      1.0  0.50007  0.69188  0.72406  1.0000
  H   H499      1.0  0.39629  0.96765  0.68659  1.0000
  H   H500      1.0  0.18915  0.79807  0.84413  1.0000
  H   H501      1.0  0.26851  0.77857  0.82302  1.0000
  H   H502      1.0  0.23073  0.75221  0.77771  1.0000
  H   H503      1.0  0.22612  0.75404  0.98210  1.0000
  H   H504      1.0  0.46898  0.98738  0.77959  1.0000
  H   H505      1.0  0.15225  0.82569  0.61653  1.0000
  H   H506      1.0  0.21140  0.71888  0.80118  1.0000
  H   H507      1.0  0.23025  0.82999  0.51803  1.0000
  H   H508      1.0  0.39169  0.95153  0.74349  1.0000
  C   C289      1.0  0.18256  0.71248  0.86058  1.0000
  H   H509      1.0  0.50274  0.98274  0.74723  1.0000
  H   H510      1.0  0.25459  0.83945  0.72970  1.0000
  H   H511      1.0  0.45744  0.94393  0.72008  1.0000
  N   N22       1.0  0.20448  0.75559  0.81749  1.0000
  C   C290      1.0  0.36291  0.99779  0.70508  1.0000
  H   H512      1.0  0.18636  0.80045  0.80018  1.0000
  C   C291      1.0  0.22414  0.74408  0.80329  1.0000
  H   H513      1.0  0.41163  0.94336  0.67496  1.0000
  H   H514      1.0  0.27486  0.79311  0.95711  1.0000
  H   H515      1.0  0.40498  0.92594  0.73445  1.0000
  H   H516      1.0  0.48082  0.70983  0.68890  1.0000
  C   C292      1.0  0.48212  0.88611  0.86805  1.0000
  Fe  Fe42      1.0  0.15694  0.68170  0.57578  1.0000
  S   S85       1.0  0.18350  0.77905  0.64255  1.0000
  C   C293      1.0  0.42380  0.97074  0.79682  1.0000
  H   H517      1.0  0.17898  0.70935  0.88745  1.0000
  C   C294      1.0  0.19886  0.78432  0.92741  1.0000
  Fe  Fe43      1.0  0.16242  0.73835  0.60808  1.0000
  H   H518      1.0  0.40118  0.94980  0.79614  1.0000
  H   H519      1.0  0.40068  0.78180  0.81529  1.0000
  H   H520      1.0  0.49595  0.78047  0.77888  1.0000
  H   H521      1.0  0.19745  0.70332  0.85361  1.0000
  H   H522      1.0  0.49201  0.78741  0.73685  1.0000
  H   H523      1.0  0.24144  0.87515  0.50272  1.0000
  S   S86       1.0  0.18751  0.73191  0.56632  1.0000
  H   H524      1.0  0.35469  0.98985  0.68061  1.0000
  C   C295      1.0  0.39766  0.94725  0.69295  1.0000
  H   H525      1.0  0.22599  0.87771  0.57476  1.0000
  H   H526      1.0  0.16361  0.71667  0.79909  1.0000
  H   H527      1.0  0.22534  0.70790  0.53832  1.0000
  C   C296      1.0  0.25392  0.75357  0.82181  1.0000
  H   H528      1.0  0.44679  0.78036  0.76319  1.0000
  H   H529      1.0  0.26702  0.74494  0.80830  1.0000
  C   C297      1.0  0.17387  0.82543  0.52201  1.0000
  C   C298      1.0  0.17868  0.74986  0.76144  1.0000
  H   H530      1.0  0.21519  0.82829  0.68758  1.0000
  H   H531      1.0  0.21737  0.83008  0.82203  1.0000
  H   H532      1.0  0.45796  0.92336  0.93087  1.0000
  H   H533      1.0  0.45940  0.96919  0.68984  1.0000
  C   C299      1.0  0.15824  0.83195  0.59043  1.0000
  H   H534      1.0  0.20089  0.87997  0.54628  1.0000
  N   N23       1.0  0.19819  0.83619  0.54789  1.0000
  Fe  Fe44      1.0  0.36864  0.88013  0.81916  1.0000
  C   C300      1.0  0.21776  0.82225  0.54141  1.0000
  H   H535      1.0  0.23365  0.79817  0.79208  1.0000
  C   C301      1.0  0.17535  0.74189  0.79824  1.0000
  Fe  Fe45      1.0  0.30856  0.85938  0.85718  1.0000
  S   S87       1.0  0.35025  0.88867  0.77308  1.0000
  C   C302      1.0  0.24331  0.88706  0.52595  1.0000
  C   C303      1.0  0.40833  0.94876  0.72839  1.0000
  H   H536      1.0  0.43261  0.79419  0.86571  1.0000
  S   S88       1.0  0.34661  0.96212  0.79773  1.0000
  Fe  Fe46      1.0  0.33245  0.91183  0.80551  1.0000
  C   C304      1.0  0.22644  0.80586  0.91236  1.0000
  S   S89       1.0  0.35225  0.90444  0.85152  1.0000
  C   C305      1.0  0.25412  0.80931  0.92298  1.0000
  S   S90       1.0  0.28675  0.86876  0.81414  1.0000
  H   H537      1.0  0.15991  0.69881  0.84914  1.0000
  C   C306      1.0  0.18261  0.82394  0.58033  1.0000
  C   C307      1.0  0.47757  0.92783  0.94656  1.0000
  H   H538      1.0  0.40917  0.79183  0.77241  1.0000
  C   C308      1.0  0.19844  0.76581  0.95317  1.0000
  S   S91       1.0  0.28349  0.80503  0.75037  1.0000
  H   H539      1.0  0.15852  0.74714  0.80937  1.0000
  C   C309      1.0  0.25604  0.79861  0.72028  1.0000
  H   H540      1.0  0.22640  0.82053  0.89336  1.0000
  Fe  Fe47      1.0  0.30684  0.84556  0.78459  1.0000
  S   S92       1.0  0.28989  0.83881  0.90803  1.0000
  C   C310      1.0  0.22604  0.76871  0.96314  1.0000
  H   H541      1.0  0.21270  0.74502  0.66307  1.0000
  Fe  Fe48      1.0  0.14984  0.72747  0.53449  1.0000
  H   H542      1.0  0.23067  0.81325  0.58961  1.0000
  H   H543      1.0  0.17772  0.78237  0.91942  1.0000
  H   H544      1.0  0.25195  0.75609  0.70524  1.0000
  H   H545      1.0  0.46885  0.81883  0.75234  1.0000
  N   N24       1.0  0.46614  0.81057  0.80481  1.0000
  H   H546      1.0  0.44524  0.83233  0.83106  1.0000
  C   C311      1.0  0.25365  0.79063  0.94856  1.0000
  H   H547      1.0  0.15783  0.74938  0.75260  1.0000
  C   C312      1.0  0.24555  0.81890  0.71525  1.0000
  S   S93       1.0  0.16293  0.73968  0.97191  1.0000
  H   H548      1.0  0.24983  0.74395  0.84680  1.0000
  S   S94       1.0  0.32707  0.83489  0.82779  1.0000
  C   C313      1.0  0.43380  0.85348  0.89419  1.0000
  H   H549      1.0  0.23983  0.79983  0.83443  1.0000
  C   C314      1.0  0.22323  0.81251  0.69138  1.0000
  H   H550      1.0  0.25795  0.82153  0.55811  1.0000
  H   H551      1.0  0.48075  0.91168  0.82682  1.0000
  H   H552      1.0  0.18233  0.73351  0.74687  1.0000
  H   H553      1.0  0.17157  0.79877  0.58081  1.0000
  C   C315      1.0  0.49677  0.83458  0.81720  1.0000
  H   H554      1.0  0.19749  0.77300  0.75603  1.0000
  H   H555      1.0  0.20322  0.79713  0.53860  1.0000
  S   S95       1.0  0.48243  0.85111  0.91937  1.0000
  C   C316      1.0  0.44501  0.82316  0.80639  1.0000
  N   N25       1.0  0.44042  0.97308  0.73631  1.0000
  C   C317      1.0  0.24301  0.70672  0.52367  1.0000
  C   C318      1.0  0.46758  0.89547  0.84568  1.0000
  C   C319      1.0  0.35230  0.97684  0.73126  1.0000
  H   H556      1.0  0.39487  0.85350  0.87312  1.0000
  C   C320      1.0  0.22174  0.76559  0.67752  1.0000
  C   C321      1.0  0.46521  0.86469  0.89206  1.0000
  C   C322      1.0  0.45486  0.78261  0.82580  1.0000
  H   H557      1.0  0.33597  0.95315  0.72678  1.0000
  C   C323      1.0  0.46789  0.80175  0.76994  1.0000
  H   H558      1.0  0.19939  0.83221  0.60066  1.0000
  H   H559      1.0  0.45291  0.84302  0.78976  1.0000
  C   C324      1.0  0.21132  0.78591  0.67236  1.0000
  C   C325      1.0  0.24397  0.77193  0.70143  1.0000
  H   H560      1.0  0.18101  0.75360  0.86251  1.0000
  H   H561      1.0  0.42058  0.83707  0.91288  1.0000
  C   C326      1.0  0.22146  0.78986  0.81575  1.0000
  S   S96       1.0  0.41857  0.89392  0.81665  1.0000
  C   C327      1.0  0.36176  0.98681  0.76327  1.0000
  H   H562      1.0  0.37414  0.92764  0.69076  1.0000
  H   H563      1.0  0.39871  0.81310  0.79881  1.0000
  H   H564      1.0  0.21767  0.75884  0.86843  1.0000
  C   C328      1.0  0.21615  0.87045  0.54982  1.0000
  H   H565      1.0  0.49060  0.67365  0.70521  1.0000
  C   C329      1.0  0.24152  0.82787  0.56792  1.0000
  C   C330      1.0  0.19703  0.74663  0.85289  1.0000
  C   C331      1.0  0.44907  0.78624  0.86213  1.0000
  C   C332      1.0  0.41920  0.86277  0.87173  1.0000
  C   C333      1.0  0.41159  0.80079  0.79761  1.0000
  H   H566      1.0  0.47442  0.93670  0.97008  1.0000
  H   H567      1.0  0.22429  0.77894  0.49591  1.0000
  H   H568      1.0  0.18235  0.68601  0.51066  1.0000
  H   H569      1.0  0.44559  0.00132  0.67646  1.0000
  H   H570      1.0  0.02650  0.67124  0.71101  1.0000
  Fe  Fe49      1.0  0.68640  0.10130  0.05687  1.0000
  S   S97       1.0  0.68443  0.13375  0.02100  1.0000
  S   S98       1.0  0.66686  0.04991  0.04703  1.0000
  Fe  Fe50      1.0  0.71150  0.15038  0.11271  1.0000
  S   S99       1.0  0.70981  0.18457  0.07981  1.0000
  S   S100      1.0  0.72246  0.16553  0.16659  1.0000
  Fe  Fe51      1.0  0.66458  0.14713  0.06282  1.0000
  S   S101      1.0  0.62567  0.15557  0.05192  1.0000
  Fe  Fe52      1.0  0.73006  0.16856  0.04123  1.0000
  S   S102      1.0  0.77086  0.20866  0.01679  1.0000
  S   S103      1.0  0.66426  0.11335  0.09789  1.0000
  S   S104      1.0  0.73392  0.13557  0.07492  1.0000
  Fe  Fe53      1.0  0.85496  0.28584  0.28856  1.0000
  S   S105      1.0  0.82180  0.30068  0.30133  1.0000
  S   S106      1.0  0.84271  0.24755  0.25123  1.0000
  C   C334      1.0  0.64851  0.03493  0.48144  1.0000
  H   H571      1.0  0.53255  0.29935  0.13781  1.0000
  Fe  Fe54      1.0  0.84013  0.30660  0.35239  1.0000
  S   S107      1.0  0.80484  0.29275  0.39278  1.0000
  S   S108      1.0  0.87164  0.28876  0.34064  1.0000
  C   C335      1.0  0.71126  0.23887  0.02514  1.0000
  C   C336      1.0  0.54170  0.00821  0.43905  1.0000
  C   C337      1.0  0.77230  0.21202  0.46291  1.0000
  C   C338      1.0  0.79891  0.22165  0.44440  1.0000
  C   C339      1.0  0.80946  0.24662  0.42310  1.0000
  C   C340      1.0  0.79336  0.26206  0.42012  1.0000
  C   C341      1.0  0.76704  0.25269  0.43902  1.0000
  H   H572      1.0  0.69037  0.22485  0.03972  1.0000
  H   H573      1.0  0.54150  0.30977  0.09659  1.0000
  H   H574      1.0  0.82997  0.25392  0.40897  1.0000
  H   H575      1.0  0.75455  0.26462  0.43692  1.0000
  H   H576      1.0  0.65279  0.20791  0.00395  1.0000
  C   C342      1.0  0.75663  0.18973  0.18845  1.0000
  C   C343      1.0  0.75466  0.20264  0.21821  1.0000
  C   C344      1.0  0.78080  0.22119  0.23706  1.0000
  C   C345      1.0  0.80932  0.22635  0.22700  1.0000
  C   C346      1.0  0.81129  0.21330  0.19735  1.0000
  C   C347      1.0  0.78526  0.19554  0.17792  1.0000
  H   H577      1.0  0.73266  0.19824  0.22668  1.0000
  H   H578      1.0  0.77873  0.23112  0.25955  1.0000
  H   H579      1.0  0.83311  0.21687  0.18931  1.0000
  H   H580      1.0  0.78720  0.18557  0.15530  1.0000
  C   C348      1.0  0.59861  0.15030  0.08238  1.0000
  C   C349      1.0  0.60148  0.14292  0.11455  1.0000
  C   C350      1.0  0.57982  0.13932  0.13828  1.0000
  C   C351      1.0  0.55503  0.14291  0.13009  1.0000
  C   C352      1.0  0.55204  0.15014  0.09788  1.0000
  C   C353      1.0  0.57381  0.15389  0.07416  1.0000
  H   H581      1.0  0.62053  0.14023  0.12122  1.0000
  H   H582      1.0  0.58244  0.13391  0.16315  1.0000
  C   C354      1.0  0.64470  0.01362  0.45694  1.0000
  H   H583      1.0  0.57139  0.15958  0.04935  1.0000
  C   C355      1.0  0.65444  0.02576  0.01168  1.0000
  H   H584      1.0  0.79600  0.25869  0.17831  1.0000
  H   H585      1.0  0.73601  0.22054  0.47450  1.0000
  C   C356      1.0  0.51849  0.06308  0.16519  1.0000
  H   H586      1.0  0.53734  0.02367  0.42390  1.0000
  H   H587      1.0  0.74215  0.25135  0.17238  1.0000
  N   N26       1.0  0.76975  0.18986  0.34428  1.0000
  C   C357      1.0  0.77914  0.22241  0.33651  1.0000
  C   C358      1.0  0.79827  0.18925  0.35273  1.0000
  C   C359      1.0  0.74841  0.18004  0.37333  1.0000
  C   C360      1.0  0.75402  0.17087  0.31457  1.0000
  C   C361      1.0  0.75301  0.22920  0.33187  1.0000
  C   C362      1.0  0.82210  0.19878  0.32520  1.0000
  C   C363      1.0  0.74604  0.15400  0.39468  1.0000
  C   C364      1.0  0.74484  0.13708  0.31559  1.0000
  H   H588      1.0  0.79409  0.23793  0.35604  1.0000
  H   H589      1.0  0.79302  0.23014  0.31381  1.0000
  H   H590      1.0  0.79334  0.16647  0.36076  1.0000
  H   H591      1.0  0.80968  0.20432  0.37411  1.0000
  H   H592      1.0  0.75518  0.19936  0.39059  1.0000
  H   H593      1.0  0.72492  0.17327  0.36545  1.0000
  H   H594      1.0  0.73257  0.17093  0.30977  1.0000
  H   H595      1.0  0.76745  0.18097  0.29185  1.0000
  H   H596      1.0  0.73870  0.21720  0.31042  1.0000
  H   H597      1.0  0.73871  0.22414  0.35407  1.0000
  H   H598      1.0  0.76290  0.25389  0.32737  1.0000
  H   H599      1.0  0.84107  0.19572  0.33374  1.0000
  H   H600      1.0  0.81276  0.18471  0.30288  1.0000
  H   H601      1.0  0.83231  0.22312  0.31893  1.0000
  H   H602      1.0  0.74041  0.13332  0.38055  1.0000
  H   H603      1.0  0.72767  0.14766  0.41305  1.0000
  H   H604      1.0  0.76719  0.16142  0.40885  1.0000
  H   H605      1.0  0.72218  0.12320  0.32717  1.0000
  H   H606      1.0  0.76157  0.13276  0.32786  1.0000
  H   H607      1.0  0.74372  0.12883  0.29015  1.0000
  H   H608      1.0  0.58701  0.19602  0.47238  1.0000
  H   H609      1.0  0.58281  0.04653  0.45863  1.0000
  C   C365      1.0  0.51760  0.32851  0.47459  1.0000
  H   H610      1.0  0.51554  0.23036  0.07508  1.0000
  H   H611      1.0  0.84819  0.28637  0.17780  1.0000
  H   H612      1.0  0.80598  0.27948  0.14132  1.0000
  H   H613      1.0  0.52417  0.26549  0.05709  1.0000
  C   C366      1.0  0.71143  0.22278  0.99318  1.0000
  C   C367      1.0  0.83625  0.32276  0.18057  1.0000
  H   H614      1.0  0.71436  0.26171  0.02101  1.0000
  H   H615      1.0  0.51007  0.07103  0.14470  1.0000
  H   H616      1.0  0.58915  0.03166  0.42190  1.0000
  H   H617      1.0  0.73069  0.24215  0.04042  1.0000
  H   H618      1.0  0.85110  0.30219  0.21827  1.0000
  H   H619      1.0  0.54177  0.26472  0.09523  1.0000
  C   C368      1.0  0.79383  0.29715  0.21867  1.0000
  N   N27       1.0  0.80202  0.30380  0.18303  1.0000
  S   S109      1.0  0.75931  0.17983  0.48827  1.0000
  C   C369      1.0  0.85411  0.30730  0.19180  1.0000
  C   C370      1.0  0.75650  0.22775  0.46034  1.0000
  H   H620      1.0  0.53304  0.15294  0.09128  1.0000
  H   H621      1.0  0.74926  0.25665  0.22778  1.0000
  C   C371      1.0  0.52049  0.25380  0.08072  1.0000
  H   H622      1.0  0.75433  0.26918  0.13262  1.0000
  H   H623      1.0  0.95457  0.33339  0.39876  1.0000
  S   S110      1.0  0.89244  0.33332  0.27695  1.0000
  H   H624      1.0  0.53501  0.18209  0.47555  1.0000
  S   S111      1.0  0.52836  0.13799  0.16086  1.0000
  H   H625      1.0  0.81129  0.20962  0.44636  1.0000
  C   C372      1.0  0.79203  0.27482  0.16393  1.0000
  H   H626      1.0  0.75421  0.23499  0.14169  1.0000
  H   H627      1.0  0.53253  0.05426  0.15423  1.0000
  C   C373      1.0  0.75871  0.25699  0.15236  1.0000
  C   C374      1.0  0.75992  0.28175  0.22803  1.0000
  C   C375      1.0  0.53454  0.31517  0.45539  1.0000
  H   H628      1.0  0.54816  0.30835  0.47017  1.0000
  H   H629      1.0  0.75796  0.28891  0.25318  1.0000
  H   H630      1.0  0.80194  0.28216  0.22837  1.0000
  C   C376      1.0  0.57616  0.02514  0.44508  1.0000
  H   H631      1.0  0.74648  0.28844  0.21270  1.0000
  H   H632      1.0  0.51770  0.29437  0.44226  1.0000
  C   C377      1.0  0.52443  0.30588  0.11567  1.0000
  H   H633      1.0  0.53634  0.14835  0.47697  1.0000
  H   H634      1.0  0.65892  0.02125  0.43535  1.0000
  H   H635      1.0  0.52394  0.31274  0.05001  1.0000
  H   H636      1.0  0.66548  0.05864  0.47852  1.0000
  H   H637      1.0  0.76417  0.30885  0.16631  1.0000
  H   H638      1.0  0.58312  0.01188  0.46040  1.0000
  H   H639      1.0  0.79701  0.32749  0.14197  1.0000
  H   H640      1.0  0.80632  0.31794  0.23391  1.0000
  H   H641      1.0  0.53391  0.08264  0.18079  1.0000
  C   C378      1.0  0.78928  0.32198  0.16785  1.0000
  H   H642      1.0  0.54909  0.33124  0.43603  1.0000
  H   H643      1.0  0.87877  0.32323  0.18797  1.0000
  H   H644      1.0  0.84339  0.33050  0.15494  1.0000
  C   C379      1.0  0.54118  0.16871  0.49181  1.0000
  H   H645      1.0  0.53054  0.00657  0.46300  1.0000
  H   H646      1.0  0.70850  0.20049  0.00062  1.0000
  Fe  Fe55      1.0  0.66596  0.10281  0.54775  1.0000
  S   S112      1.0  0.66902  0.13753  0.51168  1.0000
  S   S113      1.0  0.63377  0.05135  0.54127  1.0000
  Fe  Fe56      1.0  0.70955  0.15366  0.59681  1.0000
  S   S114      1.0  0.71495  0.19087  0.56360  1.0000
  S   S115      1.0  0.73279  0.16316  0.64692  1.0000
  Fe  Fe57      1.0  0.66433  0.16175  0.55579  1.0000
  S   S116      1.0  0.63473  0.18356  0.55717  1.0000
  Fe  Fe58      1.0  0.71914  0.16308  0.52319  1.0000
  H   H647      1.0  0.85171  0.26027  0.89613  1.0000
  S   S117      1.0  0.65858  0.12596  0.59139  1.0000
  S   S118      1.0  0.71631  0.12689  0.55701  1.0000
  Fe  Fe59      1.0  0.84513  0.29984  0.76897  1.0000
  S   S119      1.0  0.81178  0.30329  0.80190  1.0000
  S   S120      1.0  0.83018  0.28814  0.71517  1.0000
  H   H648      1.0  0.71787  0.21853  0.92982  1.0000
  C   C380      1.0  0.88942  0.30843  0.94239  1.0000
  Fe  Fe60      1.0  0.82634  0.28210  0.84053  1.0000
  S   S121      1.0  0.78940  0.23925  0.86508  1.0000
  S   S122      1.0  0.85816  0.27644  0.80675  1.0000
  H   H649      1.0  0.89946  0.22447  0.90955  1.0000
  H   H650      1.0  0.86757  0.27743  0.58752  1.0000
  C   C381      1.0  0.84573  0.20847  0.94327  1.0000
  C   C382      1.0  0.79529  0.24670  0.96429  1.0000
  C   C383      1.0  0.79971  0.25407  0.93084  1.0000
  C   C384      1.0  0.78497  0.23130  0.90737  1.0000
  C   C385      1.0  0.76565  0.20123  0.91761  1.0000
  C   C386      1.0  0.76121  0.19388  0.95105  1.0000
  C   C387      1.0  0.77593  0.21661  0.97452  1.0000
  H   H651      1.0  0.81426  0.27736  0.92322  1.0000
  H   H652      1.0  0.75424  0.18347  0.89956  1.0000
  H   H653      1.0  0.78065  0.17825  0.55500  1.0000
  C   C388      1.0  0.75972  0.19825  0.66540  1.0000
  C   C389      1.0  0.77123  0.22612  0.64930  1.0000
  C   C390      1.0  0.79276  0.25329  0.66488  1.0000
  C   C391      1.0  0.80240  0.25317  0.69710  1.0000
  C   C392      1.0  0.79023  0.22539  0.71350  1.0000
  C   C393      1.0  0.76931  0.19813  0.69760  1.0000
  H   H654      1.0  0.76368  0.22673  0.62482  1.0000
  H   H655      1.0  0.80211  0.27456  0.65182  1.0000
  H   H656      1.0  0.79746  0.22482  0.73820  1.0000
  H   H657      1.0  0.76055  0.17677  0.71040  1.0000
  C   C394      1.0  0.60775  0.17542  0.58865  1.0000
  C   C395      1.0  0.59649  0.19524  0.59373  1.0000
  C   C396      1.0  0.57454  0.18925  0.61807  1.0000
  C   C397      1.0  0.56381  0.16344  0.63774  1.0000
  C   C398      1.0  0.57502  0.14358  0.63260  1.0000
  C   C399      1.0  0.59684  0.14948  0.60814  1.0000
  H   H658      1.0  0.60499  0.21548  0.57893  1.0000
  H   H659      1.0  0.56653  0.20504  0.62225  1.0000
  H   H660      1.0  0.56691  0.12361  0.64776  1.0000
  H   H661      1.0  0.60502  0.13381  0.60425  1.0000
  H   H662      1.0  0.80895  0.33163  0.73460  1.0000
  C   C400      1.0  0.91101  0.24875  0.91648  1.0000
  C   C401      1.0  0.84440  0.20338  0.55466  1.0000
  N   N28       1.0  0.52248  0.15904  0.52277  1.0000
  S   S123      1.0  0.53957  0.15754  0.67144  1.0000
  H   H663      1.0  0.94809  0.25328  0.88560  1.0000
  C   C402      1.0  0.65113  0.01695  0.95270  1.0000
  C   C403      1.0  0.63006  0.18974  0.95878  1.0000
  C   C404      1.0  0.72290  0.27450  0.95029  1.0000
  N   N29       1.0  0.88900  0.26009  0.92120  1.0000
  H   H664      1.0  0.51980  0.32152  0.55844  1.0000
  N   N30       1.0  0.82488  0.21414  0.57094  1.0000
  C   C405      1.0  0.86732  0.24270  0.94864  1.0000
  C   C406      1.0  0.87210  0.25850  0.89031  1.0000
  H   H665      1.0  0.92289  0.29555  0.95243  1.0000
  H   H666      1.0  0.54303  0.29344  0.52859  1.0000
  H   H667      1.0  0.74672  0.17056  0.95868  1.0000
  C   C407      1.0  0.86168  0.23016  0.86826  1.0000
  C   C408      1.0  0.82212  0.23586  0.54820  1.0000
  C   C409      1.0  0.69062  0.24856  0.95945  1.0000
  C   C410      1.0  0.69359  0.20537  0.93734  1.0000
  H   H668      1.0  0.84424  0.21413  0.61805  1.0000
  H   H669      1.0  0.80290  0.16900  0.62227  1.0000
  H   H670      1.0  0.50718  0.26971  0.54755  1.0000
  S   S124      1.0  0.86244  0.32704  0.86083  1.0000
  C   C411      1.0  0.66041  0.03708  0.97972  1.0000
  H   H671      1.0  0.52090  0.10925  0.58320  1.0000
  H   H672      1.0  0.80672  0.26442  0.98237  1.0000
  C   C412      1.0  0.93630  0.26617  0.89090  1.0000
  N   N31       1.0  0.68813  0.21862  0.96795  1.0000
  H   H673      1.0  0.84727  0.17708  0.51421  1.0000
  H   H674      1.0  0.75114  0.32678  0.76504  1.0000
  H   H675      1.0  0.78099  0.23500  0.56649  1.0000
  C   C413      1.0  0.79225  0.16153  0.59790  1.0000
  H   H676      1.0  0.83890  0.22334  0.85813  1.0000
  H   H677      1.0  0.52898  0.12005  0.52484  1.0000
  C   C414      1.0  0.83949  0.22932  0.60283  1.0000
  N   N32       1.0  0.67603  0.18864  0.69688  1.0000
  C   C415      1.0  0.70505  0.21759  0.70551  1.0000
  C   C416      1.0  0.67307  0.18779  0.66012  1.0000
  C   C417      1.0  0.67891  0.16208  0.70868  1.0000
  C   C418      1.0  0.65017  0.18955  0.71385  1.0000
  C   C419      1.0  0.71627  0.22049  0.74113  1.0000
  C   C420      1.0  0.66930  0.21333  0.64487  1.0000
  C   C421      1.0  0.65891  0.13098  0.69207  1.0000
  C   C422      1.0  0.61780  0.16339  0.70656  1.0000
  H   H678      1.0  0.72406  0.22052  0.68959  1.0000
  H   H679      1.0  0.70282  0.23790  0.70108  1.0000
  H   H680      1.0  0.65358  0.16623  0.65119  1.0000
  H   H681      1.0  0.69326  0.18859  0.64847  1.0000
  H   H682      1.0  0.70261  0.16683  0.70527  1.0000
  H   H683      1.0  0.67444  0.15866  0.73544  1.0000
  H   H684      1.0  0.65271  0.18948  0.74081  1.0000
  H   H685      1.0  0.65068  0.21133  0.70918  1.0000
  H   H686      1.0  0.73720  0.24299  0.74421  1.0000
  H   H687      1.0  0.69945  0.21932  0.75917  1.0000
  H   H688      1.0  0.72279  0.20329  0.74708  1.0000
  H   H689      1.0  0.66830  0.21061  0.61790  1.0000
  H   H690      1.0  0.64769  0.21187  0.65260  1.0000
  H   H691      1.0  0.68881  0.23624  0.64991  1.0000
  H   H692      1.0  0.63442  0.12322  0.69280  1.0000
  H   H693      1.0  0.66204  0.11361  0.70502  1.0000
  H   H694      1.0  0.66621  0.13108  0.66645  1.0000
  H   H695      1.0  0.61079  0.14455  0.72430  1.0000
  H   H696      1.0  0.61501  0.15432  0.68158  1.0000
  H   H697      1.0  0.60154  0.17189  0.70826  1.0000
  H   H698      1.0  0.87692  0.23585  0.84671  1.0000
  H   H699      1.0  0.72121  0.28812  0.93011  1.0000
  H   H700      1.0  0.69308  0.16573  0.91662  1.0000
  H   H701      1.0  0.80922  0.16301  0.52768  1.0000
  H   H702      1.0  0.85945  0.20982  0.88034  1.0000
  H   H703      1.0  0.82380  0.23358  0.61791  1.0000
  H   H704      1.0  0.92248  0.24982  0.94002  1.0000
  H   H705      1.0  0.81580  0.26476  0.58454  1.0000
  H   H706      1.0  0.88775  0.25654  0.58808  1.0000
  C   C423      1.0  0.51867  0.28650  0.52762  1.0000
  H   H707      1.0  0.92736  0.26923  0.86745  1.0000
  H   H708      1.0  0.82882  0.20428  0.92394  1.0000
  H   H709      1.0  0.68079  0.20708  0.91625  1.0000
  H   H710      1.0  0.92259  0.30707  0.91164  1.0000
  C   C424      1.0  0.68570  0.17194  0.93952  1.0000
  H   H711      1.0  0.68233  0.25668  0.98021  1.0000
  H   H712      1.0  0.88011  0.24548  0.97168  1.0000
  H   H713      1.0  0.80591  0.26776  0.54343  1.0000
  C   C425      1.0  0.51301  0.31320  0.53291  1.0000
  H   H714      1.0  0.87818  0.26816  0.62525  1.0000
  C   C426      1.0  0.90749  0.29293  0.93180  1.0000
  H   H715      1.0  0.51528  0.28365  0.77357  1.0000
  H   H716      1.0  0.76113  0.31786  0.71501  1.0000
  Fe  Fe61      1.0  0.89396  0.32302  0.82509  1.0000
  H   H717      1.0  0.66094  0.15602  0.94204  1.0000
  H   H718      1.0  0.80258  0.14997  0.58459  1.0000
  C   C427      1.0  0.63048  0.02547  0.50967  1.0000
  H   H719      1.0  0.60877  0.17264  0.97112  1.0000
  H   H720      1.0  0.69767  0.16823  0.95984  1.0000
  H   H721      1.0  0.77993  0.19560  0.59206  1.0000
  H   H722      1.0  0.87919  0.30081  0.96699  1.0000
  H   H723      1.0  0.67548  0.24577  0.93855  1.0000
  H   H724      1.0  0.63161  0.17955  0.93544  1.0000
  H   H725      1.0  0.84994  0.19003  0.57194  1.0000
  H   H726      1.0  0.62762  0.20980  0.95385  1.0000
  H   H727      1.0  0.75927  0.31437  0.65215  1.0000
  H   H728      1.0  0.58647  0.01016  0.98486  1.0000
  C   C428      1.0  0.80528  0.25157  0.56199  1.0000
  H   H729      1.0  0.55511  0.15135  0.54890  1.0000
  C   C429      1.0  0.86992  0.25953  0.60018  1.0000
  H   H730      1.0  0.73329  0.29051  0.97109  1.0000
  H   H731      1.0  0.65640  0.02613  0.92820  1.0000
  H   H732      1.0  0.85787  0.19598  0.93814  1.0000
  C   C430      1.0  0.79353  0.18788  0.57803  1.0000
  H   H733      1.0  0.58533  0.17396  0.50671  1.0000
  H   H734      1.0  0.80961  0.22396  0.52570  1.0000
  H   H735      1.0  0.84484  0.25381  0.53938  1.0000
  C   C431      1.0  0.65698  0.19777  0.98183  1.0000
  H   H736      1.0  0.88657  0.27846  0.87448  1.0000
  H   H737      1.0  0.65509  0.17618  0.99048  1.0000
  H   H738      1.0  0.76813  0.14412  0.60236  1.0000
  C   C432      1.0  0.53099  0.13864  0.54101  1.0000
  H   H739      1.0  0.95385  0.28878  0.90022  1.0000
  H   H740      1.0  0.85199  0.25176  0.95388  1.0000
  H   H741      1.0  0.86673  0.22303  0.54743  1.0000
  H   H742      1.0  0.67272  0.06138  0.97583  1.0000
  H   H743      1.0  0.53554  0.21752  0.50394  1.0000
  C   C433      1.0  0.83118  0.18413  0.52335  1.0000
  H   H744      1.0  0.54246  0.23336  0.54326  1.0000
  H   H745      1.0  0.55125  0.19495  0.55683  1.0000
  C   C434      1.0  0.57595  0.18771  0.49656  1.0000
  C   C435      1.0  0.52885  0.18550  0.54466  1.0000
  H   H746      1.0  0.90522  0.33334  0.94416  1.0000
  C   C436      1.0  0.52726  0.21233  0.52936  1.0000
  H   H747      1.0  0.58282  0.20797  0.51215  1.0000
  H   H748      1.0  0.50816  0.27423  0.50455  1.0000
  H   H749      1.0  0.56125  0.00369  0.92131  1.0000
  H   H750      1.0  0.83238  0.19864  0.96604  1.0000
  H   H751      1.0  0.73864  0.26687  0.94180  1.0000
  H   H752      1.0  0.82842  0.19724  0.50343  1.0000
  H   H753      1.0  0.87161  0.30476  0.92455  1.0000
  H   H754      1.0  0.78911  0.31200  0.67338  1.0000
  C   C437      1.0  0.51247  0.12353  0.57217  1.0000
  C   C438      1.0  0.77996  0.32713  0.66741  1.0000
  H   H755      1.0  0.51560  0.14064  0.59084  1.0000
  H   H756      1.0  0.73478  0.23564  0.98301  1.0000
  S   S125      1.0  0.94175  0.33177  0.83873  1.0000
  H   H757      1.0  0.51258  0.17778  0.56556  1.0000
  Fe  Fe62      1.0  0.70246  0.55085  0.44856  1.0000
  H   H758      1.0  0.51193  0.49836  0.03840  1.0000
  S   S126      1.0  0.72006  0.54819  0.39715  1.0000
  H   H759      1.0  0.95730  0.42464  0.41500  1.0000
  S   S127      1.0  0.68006  0.55860  0.03556  1.0000
  H   H760      1.0  0.96773  0.49672  0.26106  1.0000
  Fe  Fe63      1.0  0.72959  0.58009  0.02223  1.0000
  S   S128      1.0  0.77066  0.60149  0.05589  1.0000
  H   H761      1.0  0.58776  0.56623  0.04908  1.0000
  H   H762      1.0  0.61106  0.51145  0.02232  1.0000
  C   C439      1.0  0.58067  0.38303  0.49116  1.0000
  S   S129      1.0  0.66137  0.55656  0.45434  1.0000
  H   H763      1.0  0.79730  0.52966  0.35083  1.0000
  C   C440      1.0  0.60868  0.64987  0.06256  1.0000
  H   H764      1.0  0.58933  0.41593  0.99471  1.0000
  S   S130      1.0  0.84938  0.37618  0.25717  1.0000
  Fe  Fe64      1.0  0.85217  0.58791  0.26179  1.0000
  S   S131      1.0  0.82664  0.53850  0.24916  1.0000
  S   S132      1.0  0.83640  0.60836  0.30221  1.0000
  Fe  Fe65      1.0  0.90615  0.60028  0.21428  1.0000
  S   S133      1.0  0.88321  0.55113  0.19911  1.0000
  S   S134      1.0  0.95639  0.63525  0.20384  1.0000
  Fe  Fe66      1.0  0.84061  0.55436  0.19725  1.0000
  S   S135      1.0  0.80408  0.53004  0.15899  1.0000
  Fe  Fe67      1.0  0.87140  0.54002  0.25221  1.0000
  S   S136      1.0  0.88243  0.51194  0.28639  1.0000
  S   S137      1.0  0.86391  0.60426  0.20946  1.0000
  S   S138      1.0  0.89645  0.58881  0.26773  1.0000
  C   C441      1.0  0.74830  0.59966  0.22764  1.0000
  H   H765      1.0  0.60496  0.38934  0.49161  1.0000
  C   C442      1.0  0.98174  0.64189  0.17041  1.0000
  C   C443      1.0  0.80877  0.48561  0.32593  1.0000
  H   H766      1.0  0.53444  0.61767  0.25376  1.0000
  C   C444      1.0  0.85831  0.41373  0.26598  1.0000
  C   C445      1.0  0.87434  0.42886  0.29412  1.0000
  C   C446      1.0  0.88142  0.45893  0.30011  1.0000
  C   C447      1.0  0.87245  0.47402  0.27811  1.0000
  C   C448      1.0  0.85624  0.45887  0.25007  1.0000
  C   C449      1.0  0.84932  0.42885  0.24399  1.0000
  H   H767      1.0  0.88140  0.41741  0.31117  1.0000
  H   H768      1.0  0.89400  0.47055  0.32184  1.0000
  H   H769      1.0  0.84912  0.47027  0.23305  1.0000
  H   H770      1.0  0.83685  0.41727  0.22220  1.0000
  H   H771      1.0  0.78236  0.51224  0.42197  1.0000
  C   C450      1.0  0.98446  0.37342  0.37125  1.0000
  H   H772      1.0  0.86034  0.63967  0.04669  1.0000
  H   H773      1.0  0.80475  0.46286  0.31851  1.0000
  Fe  Fe68      1.0  0.50626  0.64666  0.14895  1.0000
  C   C451      1.0  0.78007  0.58094  0.08346  1.0000
  C   C452      1.0  0.76217  0.54942  0.08665  1.0000
  C   C453      1.0  0.77025  0.53399  0.10934  1.0000
  C   C454      1.0  0.79619  0.54993  0.12899  1.0000
  C   C455      1.0  0.81435  0.58140  0.12542  1.0000
  C   C456      1.0  0.80623  0.59683  0.10282  1.0000
  H   H774      1.0  0.74202  0.53697  0.07180  1.0000
  H   H775      1.0  0.75611  0.50962  0.11197  1.0000
  H   H776      1.0  0.83451  0.59385  0.14020  1.0000
  H   H777      1.0  0.82024  0.62122  0.10036  1.0000
  C   C457      1.0  0.75330  0.56488  0.37199  1.0000
  C   C458      1.0  0.78002  0.59150  0.38067  1.0000
  C   C459      1.0  0.80515  0.60445  0.35908  1.0000
  C   C460      1.0  0.80436  0.59052  0.32898  1.0000
  C   C461      1.0  0.77787  0.56359  0.32059  1.0000
  C   C462      1.0  0.75249  0.55107  0.34181  1.0000
  H   H778      1.0  0.78120  0.60222  0.40387  1.0000
  H   H779      1.0  0.82547  0.62532  0.36585  1.0000
  H   H780      1.0  0.77677  0.55256  0.29762  1.0000
  H   H781      1.0  0.73200  0.53045  0.33480  1.0000
  H   H782      1.0  0.52731  0.45422  0.39600  1.0000
  C   C463      1.0  0.62144  0.65284  0.09359  1.0000
  C   C464      1.0  0.65089  0.63035  0.07157  1.0000
  C   C465      1.0  0.63859  0.62797  0.04042  1.0000
  C   C466      1.0  0.61735  0.63773  0.03622  1.0000
  Fe  Fe69      1.0  0.85977  0.34829  0.29252  1.0000
  C   C467      1.0  0.50431  0.58102  0.22280  1.0000
  H   H783      1.0  0.66727  0.62308  0.07536  1.0000
  S   S139      1.0  0.95785  0.36859  0.34013  1.0000
  H   H784      1.0  0.61410  0.46023  0.42831  1.0000
  C   C468      1.0  0.54403  0.39853  0.41279  1.0000
  C   C469      1.0  0.57521  0.41945  0.40938  1.0000
  C   C470      1.0  0.58998  0.44441  0.43082  1.0000
  C   C471      1.0  0.57349  0.44872  0.45557  1.0000
  C   C472      1.0  0.54226  0.42807  0.45858  1.0000
  C   C473      1.0  0.52768  0.40294  0.43755  1.0000
  H   H785      1.0  0.75145  0.61933  0.27588  1.0000
  N   N33       1.0  0.76799  0.59394  0.20438  1.0000
  C   C474      1.0  0.97155  0.62887  0.13952  1.0000
  H   H786      1.0  0.73330  0.54009  0.24001  1.0000
  H   H787      1.0  0.78042  0.61021  0.27006  1.0000
  C   C475      1.0  0.97723  0.35292  0.39706  1.0000
  H   H788      1.0  0.75822  0.50307  0.38677  1.0000
  H   H789      1.0  0.82194  0.36903  0.18356  1.0000
  S   S140      1.0  0.63929  0.47737  0.99416  1.0000
  H   H790      1.0  0.82057  0.56476  0.99862  1.0000
  H   H791      1.0  0.54733  0.47622  0.36136  1.0000
  H   H792      1.0  0.78459  0.55743  0.01301  1.0000
  H   H793      1.0  0.76217  0.57132  0.15773  1.0000
  H   H794      1.0  0.96416  0.45277  0.44520  1.0000
  C   C476      1.0  0.60240  0.52721  0.02716  1.0000
  H   H795      1.0  0.99788  0.48106  0.48407  1.0000
  H   H796      1.0  0.82181  0.50126  0.30582  1.0000
  H   H797      1.0  0.99867  0.56313  0.14515  1.0000
  H   H798      1.0  0.74163  0.62966  0.38846  1.0000
  H   H799      1.0  0.72429  0.58072  0.22602  1.0000
  H   H800      1.0  0.76781  0.64161  0.46218  1.0000
  C   C477      1.0  0.79584  0.62330  0.19446  1.0000
  H   H801      1.0  0.74790  0.62052  0.22039  1.0000
  C   C478      1.0  0.77780  0.57275  0.21813  1.0000
  H   H802      1.0  0.74154  0.58078  0.27732  1.0000
  H   H803      1.0  0.53084  0.43602  0.35997  1.0000
  H   H804      1.0  0.60773  0.63621  0.01229  1.0000
  H   H805      1.0  0.88713  0.58711  0.38023  1.0000
  S   S141      1.0  0.52623  0.36703  0.38601  1.0000
  H   H806      1.0  0.59262  0.65755  0.05870  1.0000
  H   H807      1.0  0.74270  0.52686  0.20289  1.0000
  C   C479      1.0  0.74987  0.57915  0.17378  1.0000
  H   H808      1.0  0.78623  0.48382  0.32830  1.0000
  H   H809      1.0  0.72801  0.55828  0.17980  1.0000
  C   C480      1.0  0.99254  0.63525  0.11378  1.0000
  H   H810      1.0  0.52941  0.43129  0.47770  1.0000
  Fe  Fe70      1.0  0.67826  0.59079  0.99935  1.0000
  C   C481      1.0  0.95624  0.56603  0.23429  1.0000
  C   C482      1.0  0.74147  0.59876  0.15242  1.0000
  H   H811      1.0  0.80909  0.61881  0.17575  1.0000
  H   H812      1.0  0.00344  0.42386  0.42823  1.0000
  H   H813      1.0  0.94033  0.54626  0.17208  1.0000
  H   H814      1.0  0.52367  0.55661  0.05791  1.0000
  H   H815      1.0  0.55674  0.53553  0.06965  1.0000
  H   H816      1.0  0.87057  0.61815  0.02091  1.0000
  H   H817      1.0  0.74212  0.64399  0.48884  1.0000
  C   C483      1.0  0.56278  0.55028  0.04760  1.0000
  H   H818      1.0  0.82619  0.62942  0.23621  1.0000
  C   C484      1.0  0.79738  0.35204  0.18531  1.0000
  C   C485      1.0  0.72727  0.62003  0.41052  1.0000
  H   H819      1.0  0.61574  0.54774  0.01207  1.0000
  H   H820      1.0  0.98782  0.52201  0.21341  1.0000
  H   H821      1.0  0.78946  0.63897  0.18278  1.0000
  N   N34       1.0  0.55474  0.53146  0.01669  1.0000
  H   H822      1.0  0.56486  0.49784  0.99657  1.0000
  H   H823      1.0  0.99208  0.61222  0.24771  1.0000
  H   H824      1.0  0.97999  0.41595  0.46279  1.0000
  H   H825      1.0  0.55923  0.58617  0.07257  1.0000
  H   H826      1.0  0.65272  0.64515  0.12156  1.0000
  C   C486      1.0  0.52059  0.51187  0.01547  1.0000
  H   H827      1.0  0.70497  0.60145  0.40168  1.0000
  H   H828      1.0  0.97536  0.52967  0.28327  1.0000
  H   H829      1.0  0.90408  0.49311  0.17855  1.0000
  H   H830      1.0  0.55168  0.35399  0.12698  1.0000
  C   C487      1.0  0.98403  0.53695  0.23036  1.0000
  H   H831      1.0  0.94603  0.57692  0.21957  1.0000
  H   H832      1.0  0.51963  0.34757  0.45951  1.0000
  S   S142      1.0  0.68025  0.50659  0.47623  1.0000
  C   C488      1.0  0.94821  0.53311  0.18677  1.0000
  C   C489      1.0  0.84396  0.63650  0.99723  1.0000
  S   S143      1.0  0.59067  0.47894  0.48382  1.0000
  C   C490      1.0  0.85202  0.62284  0.02640  1.0000
  C   C491      1.0  0.81797  0.64224  0.22191  1.0000
  H   H833      1.0  0.98763  0.59381  0.18232  1.0000
  H   H834      1.0  0.99159  0.58264  0.27277  1.0000
  S   S144      1.0  0.64862  0.61292  0.00598  1.0000
  C   C492      1.0  0.64254  0.64289  0.09781  1.0000
  C   C493      1.0  0.51131  0.59738  0.25623  1.0000
  H   H835      1.0  0.83183  0.60241  0.03618  1.0000
  H   H836      1.0  0.84518  0.34377  0.19558  1.0000
  H   H837      1.0  0.52830  0.66675  0.29610  1.0000
  H   H838      1.0  0.72458  0.58400  0.13378  1.0000
  C   C494      1.0  0.54817  0.57031  0.05173  1.0000
  H   H839      1.0  0.60670  0.53363  0.05337  1.0000
  H   H840      1.0  0.52305  0.57675  0.21632  1.0000
  C   C495      1.0  0.72229  0.64374  0.42855  1.0000
  H   H841      1.0  0.90682  0.50965  0.21750  1.0000
  H   H842      1.0  0.93688  0.54813  0.24812  1.0000
  H   H843      1.0  0.94746  0.61444  0.13520  1.0000
  H   H844      1.0  0.98426  0.62567  0.08981  1.0000
  C   C496      1.0  0.56822  0.51108  0.01927  1.0000
  H   H845      1.0  0.85449  0.58958  0.36715  1.0000
  H   H846      1.0  0.79348  0.57056  0.20075  1.0000
  H   H847      1.0  0.55639  0.49363  0.03863  1.0000
  H   H848      1.0  0.58809  0.41621  0.39031  1.0000
  C   C497      1.0  0.91974  0.50447  0.19939  1.0000
  H   H849      1.0  0.77622  0.48194  0.39404  1.0000
  C   C498      1.0  0.75643  0.60251  0.26443  1.0000
  C   C499      1.0  0.96558  0.51736  0.26000  1.0000
  C   C500      1.0  0.75190  0.54026  0.22571  1.0000
  H   H850      1.0  0.94098  0.50918  0.25967  1.0000
  S   S145      1.0  0.53482  0.66742  0.10391  1.0000
  H   H851      1.0  0.51554  0.64988  0.24355  1.0000
  Fe  Fe71      1.0  0.90640  0.33813  0.33010  1.0000
  H   H852      1.0  0.53013  0.65203  0.33484  1.0000
  C   C501      1.0  0.99957  0.35727  0.42029  1.0000
  H   H853      1.0  0.84426  0.48696  0.41950  1.0000
  H   H854      1.0  0.83843  0.66165  0.21075  1.0000
  H   H855      1.0  0.95874  0.52447  0.16913  1.0000
  H   H856      1.0  0.70399  0.63134  0.44699  1.0000
  C   C502      1.0  0.97739  0.58985  0.25949  1.0000
  H   H857      1.0  0.81433  0.49357  0.43362  1.0000
  H   H858      1.0  0.88461  0.59775  0.33951  1.0000
  H   H859      1.0  0.57322  0.37888  0.46533  1.0000
  H   H860      1.0  0.79132  0.58164  0.24076  1.0000
  C   C503      1.0  0.52717  0.45443  0.36891  1.0000
  H   H861      1.0  0.96331  0.59343  0.27780  1.0000
  H   H862      1.0  0.76106  0.52832  0.24028  1.0000
  S   S146      1.0  0.87536  0.35593  0.34474  1.0000
  H   H863      1.0  0.85089  0.51289  0.45202  1.0000
  N   N35       1.0  0.83407  0.52545  0.37195  1.0000
  C   C504      1.0  0.85554  0.54925  0.34802  1.0000
  C   C505      1.0  0.82649  0.49483  0.35838  1.0000
  C   C506      1.0  0.85044  0.53117  0.40424  1.0000
  C   C507      1.0  0.80641  0.52884  0.37519  1.0000
  C   C508      1.0  0.87104  0.58260  0.35992  1.0000
  C   C509      1.0  0.83886  0.50435  0.42835  1.0000
  C   C510      1.0  0.77971  0.50511  0.39593  1.0000
  H   H864      1.0  0.87419  0.54495  0.34085  1.0000
  H   H865      1.0  0.84368  0.54842  0.32491  1.0000
  H   H866      1.0  0.81278  0.47612  0.37564  1.0000
  H   H867      1.0  0.84771  0.49389  0.35454  1.0000
  H   H868      1.0  0.87483  0.53843  0.40006  1.0000
  H   H869      1.0  0.85038  0.55027  0.41756  1.0000
  H   H870      1.0  0.81253  0.55118  0.38619  1.0000
  C   C511      1.0  0.97552  0.44467  0.42813  1.0000
  H   H871      1.0  0.82696  0.64216  0.00704  1.0000
  H   H872      1.0  0.52010  0.34534  0.10127  1.0000
  H   H873      1.0  0.92540  0.48772  0.20941  1.0000
  N   N36       1.0  0.97095  0.55343  0.21206  1.0000
  H   H874      1.0  0.80786  0.65217  0.23832  1.0000
  H   H875      1.0  0.51372  0.58253  0.27440  1.0000
  H   H876      1.0  0.76144  0.61606  0.13846  1.0000
  H   H877      1.0  0.54657  0.64433  0.30021  1.0000
  H   H878      1.0  0.73118  0.60977  0.16681  1.0000
  H   H879      1.0  0.50853  0.41336  0.31320  1.0000
  H   H880      1.0  0.73651  0.60916  0.42651  1.0000
  H   H881      1.0  0.78514  0.36227  0.17327  1.0000
  H   H882      1.0  0.99380  0.34091  0.43974  1.0000
  C   C512      1.0  0.52712  0.64679  0.30829  1.0000
  H   H883      1.0  0.55143  0.58443  0.02985  1.0000
  H   H884      1.0  0.50969  0.52605  0.01406  1.0000
  Fe  Fe72      1.0  0.64107  0.51413  0.48464  1.0000
  S   S147      1.0  0.54616  0.65861  0.18129  1.0000
  C   C513      1.0  0.99633  0.58010  0.19416  1.0000
  C   C514      1.0  0.76092  0.65770  0.47135  1.0000
  C   C515      1.0  0.99559  0.43475  0.44632  1.0000
  H   H885      1.0  0.78778  0.65273  0.41444  1.0000
  H   H886      1.0  0.98829  0.46219  0.40935  1.0000
  H   H887      1.0  0.79028  0.34853  0.21134  1.0000
  H   H888      1.0  0.71247  0.65201  0.40980  1.0000
  H   H889      1.0  0.58705  0.57455  0.99420  1.0000
  N   N37       1.0  0.74976  0.66984  0.44448  1.0000
  S   S148      1.0  0.61276  0.66957  0.12757  1.0000
  C   C516      1.0  0.52739  0.33707  0.12246  1.0000
  H   H890      1.0  0.51476  0.33675  0.14471  1.0000
  Fe  Fe73      1.0  0.71876  0.57989  0.94871  1.0000
  H   H891      1.0  0.61890  0.41473  0.90198  1.0000
  S   S149      1.0  0.74495  0.59639  0.89995  1.0000
  H   H892      1.0  0.50986  0.50161  0.96331  1.0000
  S   S150      1.0  0.65954  0.53900  0.53222  1.0000
  S   S151      1.0  0.68105  0.62499  0.51300  1.0000
  Fe  Fe74      1.0  0.70077  0.53500  0.52141  1.0000
  S   S152      1.0  0.71974  0.51497  0.55773  1.0000
  H   H893      1.0  0.61103  0.50068  0.95021  1.0000
  C   C517      1.0  0.56660  0.41556  0.85022  1.0000
  Fe  Fe75      1.0  0.67210  0.52837  0.99175  1.0000
  S   S153      1.0  0.66807  0.55937  0.95587  1.0000
  H   H894      1.0  0.93539  0.54336  0.71781  1.0000
  H   H895      1.0  0.53909  0.39051  0.96675  1.0000
  H   H896      1.0  0.00159  0.54253  0.73421  1.0000
  S   S154      1.0  0.84348  0.38808  0.82482  1.0000
  Fe  Fe76      1.0  0.85316  0.56566  0.77087  1.0000
  S   S155      1.0  0.82641  0.53134  0.73170  1.0000
  S   S156      1.0  0.82821  0.55638  0.82040  1.0000
  Fe  Fe77      1.0  0.91105  0.59724  0.72548  1.0000
  S   S157      1.0  0.88674  0.56508  0.68437  1.0000
  S   S158      1.0  0.96173  0.63326  0.72039  1.0000
  Fe  Fe78      1.0  0.84712  0.57117  0.69727  1.0000
  S   S159      1.0  0.82286  0.58757  0.66360  1.0000
  Fe  Fe79      1.0  0.86876  0.52873  0.72322  1.0000
  S   S160      1.0  0.87410  0.48737  0.71524  1.0000
  S   S161      1.0  0.87243  0.60576  0.73679  1.0000
  S   S162      1.0  0.89456  0.56056  0.76407  1.0000
  H   H897      1.0  0.96997  0.49156  0.74910  1.0000
  C   C518      1.0  0.97369  0.62697  0.65483  1.0000
  C   C519      1.0  0.98543  0.64068  0.68513  1.0000
  C   C520      1.0  0.98537  0.37999  0.92173  1.0000
  H   H898      1.0  0.94946  0.61215  0.65206  1.0000
  C   C521      1.0  0.85611  0.41850  0.79668  1.0000
  C   C522      1.0  0.84532  0.43893  0.79976  1.0000
  C   C523      1.0  0.85195  0.46121  0.77577  1.0000
  C   C524      1.0  0.86932  0.46311  0.74839  1.0000
  C   C525      1.0  0.88119  0.44354  0.74601  1.0000
  C   C526      1.0  0.87494  0.42158  0.77023  1.0000
  H   H899      1.0  0.83104  0.43699  0.82033  1.0000
  H   H900      1.0  0.84277  0.47625  0.77796  1.0000
  H   H901      1.0  0.89462  0.44482  0.72492  1.0000
  H   H902      1.0  0.88388  0.40638  0.76789  1.0000
  Fe  Fe80      1.0  0.85104  0.34794  0.81843  1.0000
  H   H903      1.0  0.52184  0.63149  0.75610  1.0000
  C   C527      1.0  0.96357  0.36602  0.89657  1.0000
  H   H904      1.0  0.59085  0.35759  0.89853  1.0000
  C   C528      1.0  0.98612  0.52887  0.71411  1.0000
  C   C529      1.0  0.74870  0.53562  0.58674  1.0000
  C   C530      1.0  0.75908  0.52003  0.60629  1.0000
  C   C531      1.0  0.78208  0.53559  0.62969  1.0000
  C   C532      1.0  0.79478  0.56691  0.63379  1.0000
  C   C533      1.0  0.78421  0.58246  0.61447  1.0000
  C   C534      1.0  0.76133  0.56693  0.59098  1.0000
  H   H905      1.0  0.74936  0.49579  0.60315  1.0000
  H   H906      1.0  0.78995  0.52339  0.64451  1.0000
  H   H907      1.0  0.79389  0.60669  0.61759  1.0000
  H   H908      1.0  0.75347  0.57914  0.57615  1.0000
  C   C535      1.0  0.76765  0.58461  0.87792  1.0000
  C   C536      1.0  0.76771  0.55784  0.88531  1.0000
  C   C537      1.0  0.78607  0.54951  0.86717  1.0000
  C   C538      1.0  0.80454  0.56761  0.84127  1.0000
  C   C539      1.0  0.80448  0.59438  0.83384  1.0000
  C   C540      1.0  0.78619  0.60279  0.85206  1.0000
  H   H909      1.0  0.75357  0.54349  0.90497  1.0000
  H   H910      1.0  0.78605  0.52885  0.87333  1.0000
  H   H911      1.0  0.81905  0.60892  0.81453  1.0000
  H   H912      1.0  0.78658  0.62369  0.84625  1.0000
  C   C541      1.0  0.62389  0.64235  0.58972  1.0000
  C   C542      1.0  0.62600  0.61583  0.59115  1.0000
  C   C543      1.0  0.64269  0.60981  0.56756  1.0000
  C   C544      1.0  0.65813  0.63058  0.54242  1.0000
  H   H913      1.0  0.86254  0.38786  0.70213  1.0000
  H   H914      1.0  0.64010  0.45168  0.85248  1.0000
  H   H915      1.0  0.61453  0.59968  0.61061  1.0000
  H   H916      1.0  0.64392  0.58926  0.56912  1.0000
  H   H917      1.0  0.54587  0.38149  0.90206  1.0000
  H   H918      1.0  0.61947  0.46910  0.86967  1.0000
  C   C545      1.0  0.54659  0.43128  0.94278  1.0000
  H   H919      1.0  0.99142  0.45824  0.93011  1.0000
  H   H920      1.0  0.82051  0.64720  0.74371  1.0000
  H   H921      1.0  0.52899  0.40781  0.81904  1.0000
  N   N38       1.0  0.52799  0.33924  0.50910  1.0000
  C   C546      1.0  0.55469  0.41452  0.96316  1.0000
  C   C547      1.0  0.79884  0.56242  0.99069  1.0000
  H   H922      1.0  0.92254  0.52312  0.63084  1.0000
  H   H923      1.0  0.58298  0.43615  0.83644  1.0000
  H   H924      1.0  0.57982  0.40314  0.50035  1.0000
  H   H925      1.0  0.85243  0.65538  0.93318  1.0000
  H   H926      1.0  0.67334  0.65896  0.71587  1.0000
  H   H927      1.0  0.83966  0.35182  0.68124  1.0000
  Fe  Fe81      1.0  0.68213  0.58118  0.50164  1.0000
  N   N39       1.0  0.75508  0.57481  0.73780  1.0000
  C   C548      1.0  0.77543  0.60733  0.74867  1.0000
  C   C549      1.0  0.72590  0.56264  0.75703  1.0000
  C   C550      1.0  0.74839  0.57535  0.70199  1.0000
  C   C551      1.0  0.77142  0.55737  0.74348  1.0000
  C   C552      1.0  0.80611  0.62544  0.73061  1.0000
  C   C553      1.0  0.72906  0.56172  0.79446  1.0000
  C   C554      1.0  0.72827  0.54442  0.68529  1.0000
  C   C555      1.0  0.75165  0.52235  0.74652  1.0000
  H   H928      1.0  0.76351  0.62055  0.74644  1.0000
  H   H929      1.0  0.78133  0.60831  0.77495  1.0000
  H   H930      1.0  0.70856  0.53952  0.74925  1.0000
  H   H931      1.0  0.71501  0.57651  0.75214  1.0000
  H   H932      1.0  0.73766  0.58948  0.69790  1.0000
  H   H933      1.0  0.76964  0.58614  0.68740  1.0000
  H   H934      1.0  0.78824  0.56224  0.72360  1.0000
  H   H935      1.0  0.78522  0.56541  0.76628  1.0000
  H   H936      1.0  0.83096  0.36809  0.75138  1.0000
  H   H937      1.0  0.57101  0.33946  0.50896  1.0000
  H   H938      1.0  0.86014  0.59630  0.97329  1.0000
  H   H939      1.0  0.74324  0.55191  0.80182  1.0000
  H   H940      1.0  0.73848  0.58470  0.80535  1.0000
  H   H941      1.0  0.70623  0.54746  0.80556  1.0000
  H   H942      1.0  0.73975  0.53084  0.68430  1.0000
  H   H943      1.0  0.72470  0.54847  0.65941  1.0000
  H   H944      1.0  0.70545  0.53127  0.69648  1.0000
  H   H945      1.0  0.76178  0.51159  0.73133  1.0000
  H   H946      1.0  0.72793  0.51220  0.73828  1.0000
  H   H947      1.0  0.75205  0.51519  0.77206  1.0000
  H   H948      1.0  0.95011  0.48095  0.71106  1.0000
  C   C556      1.0  0.55945  0.37444  0.88681  1.0000
  C   C557      1.0  0.84546  0.58872  0.92358  1.0000
  C   C558      1.0  0.81014  0.65117  0.94888  1.0000
  H   H949      1.0  0.58040  0.55780  0.93667  1.0000
  H   H950      1.0  0.55617  0.42353  0.86894  1.0000
  H   H951      1.0  0.56094  0.47546  0.92249  1.0000
  H   H952      1.0  0.96468  0.54922  0.76678  1.0000
  H   H953      1.0  0.96157  0.58220  0.76130  1.0000
  S   S163      1.0  0.72203  0.54677  0.98202  1.0000
  H   H954      1.0  0.51662  0.47405  0.98433  1.0000
  H   H955      1.0  0.78846  0.58152  0.94929  1.0000
  H   H956      1.0  0.86229  0.58136  0.91878  1.0000
  H   H957      1.0  0.77277  0.38701  0.66733  1.0000
  N   N40       1.0  0.58241  0.40082  0.86662  1.0000
  H   H958      1.0  0.65838  0.66007  0.65879  1.0000
  H   H959      1.0  0.56844  0.36262  0.53891  1.0000
  C   C559      1.0  0.60567  0.42389  0.88984  1.0000
  H   H960      1.0  0.58993  0.63697  0.73993  1.0000
  C   C560      1.0  0.59853  0.39171  0.84191  1.0000
  H   H961      1.0  0.99209  0.44922  0.50704  1.0000
  H   H962      1.0  0.81929  0.62304  0.91792  1.0000
  C   C561      1.0  0.97183  0.56926  0.75084  1.0000
  C   C562      1.0  0.60752  0.66148  0.73998  1.0000
  N   N41       1.0  0.83205  0.61719  0.96683  1.0000
  C   C563      1.0  0.56204  0.35495  0.51312  1.0000
  C   C564      1.0  0.63905  0.66300  0.56437  1.0000
  H   H963      1.0  0.53561  0.66344  0.78295  1.0000
  H   H964      1.0  0.62253  0.66571  0.76125  1.0000
  H   H965      1.0  0.60738  0.40821  0.82132  1.0000
  N   N42       1.0  0.79736  0.36463  0.71629  1.0000
  C   C565      1.0  0.79195  0.40439  0.68198  1.0000
  H   H966      1.0  0.57522  0.34152  0.84483  1.0000
  C   C566      1.0  0.81253  0.39268  0.69511  1.0000
  H   H967      1.0  0.59428  0.42912  0.90990  1.0000
  S   S164      1.0  0.88417  0.34619  0.78353  1.0000
  H   H968      1.0  0.83114  0.41177  0.70892  1.0000
  C   C567      1.0  0.82952  0.63656  0.94049  1.0000
  C   C568      1.0  0.99328  0.63269  0.62785  1.0000
  C   C569      1.0  0.00253  0.57191  0.67648  1.0000
  H   H969      1.0  0.86106  0.35440  0.71668  1.0000
  H   H970      1.0  0.55845  0.35496  0.81566  1.0000
  H   H971      1.0  0.52482  0.37344  0.83472  1.0000
  H   H972      1.0  0.52686  0.37123  0.54360  1.0000
  H   H973      1.0  0.53783  0.66869  0.73914  1.0000
  H   H974      1.0  0.99989  0.52231  0.69848  1.0000
  H   H975      1.0  0.78674  0.59721  0.98698  1.0000
  C   C570      1.0  0.51867  0.36213  0.51856  1.0000
  H   H976      1.0  0.94182  0.36485  0.89840  1.0000
  H   H977      1.0  0.54239  0.35571  0.87136  1.0000
  C   C571      1.0  0.95342  0.52604  0.66928  1.0000
  H   H978      1.0  0.93542  0.55607  0.65591  1.0000
  H   H979      1.0  0.59655  0.54058  0.96066  1.0000
  C   C572      1.0  0.96961  0.35282  0.86960  1.0000
  H   H980      1.0  0.64782  0.46723  0.89299  1.0000
  H   H981      1.0  0.84553  0.60146  0.90162  1.0000
  H   H982      1.0  0.55738  0.51892  0.94817  1.0000
  C   C573      1.0  0.57273  0.36037  0.91020  1.0000
  H   H983      1.0  0.98380  0.62201  0.60459  1.0000
  H   H984      1.0  0.78698  0.63412  0.95696  1.0000
  C   C574      1.0  0.96046  0.49941  0.72954  1.0000
  H   H985      1.0  0.96316  0.51411  0.65528  1.0000
  C   C575      1.0  0.54172  0.39607  0.82527  1.0000
  H   H986      1.0  0.78355  0.41319  0.70181  1.0000
  C   C576      1.0  0.60357  0.46015  0.97450  1.0000
  H   H987      1.0  0.99554  0.58541  0.66138  1.0000
  C   C577      1.0  0.96020  0.55978  0.71549  1.0000
  C   C578      1.0  0.84714  0.36306  0.70531  1.0000
  H   H988      1.0  0.80567  0.42400  0.66556  1.0000
  H   H989      1.0  0.59378  0.35718  0.80697  1.0000
  H   H990      1.0  0.82384  0.38961  0.67347  1.0000
  C   C579      1.0  0.80087  0.59016  0.97280  1.0000
  H   H991      1.0  0.80328  0.63150  0.70537  1.0000
  H   H992      1.0  0.87703  0.62936  0.94968  1.0000
  C   C580      1.0  0.94257  0.54107  0.64414  1.0000
  C   C581      1.0  0.59539  0.47680  0.95410  1.0000
  H   H993      1.0  0.79625  0.34582  0.65158  1.0000
  H   H994      1.0  0.61903  0.39269  0.85284  1.0000
  H   H995      1.0  0.93240  0.50787  0.68112  1.0000
  C   C582      1.0  0.56698  0.46245  0.93846  1.0000
  N   N43       1.0  0.97570  0.54701  0.69462  1.0000
  H   H996      1.0  0.58183  0.37443  0.93264  1.0000
  H   H997      1.0  0.96033  0.55412  0.62554  1.0000
  C   C583      1.0  0.50726  0.48946  0.98659  1.0000
  C   C584      1.0  0.65622  0.65725  0.54111  1.0000
  C   C585      1.0  0.62945  0.45456  0.87483  1.0000
  H   H998      1.0  0.55180  0.39372  0.80216  1.0000
  H   H999      1.0  0.96140  0.57979  0.70340  1.0000
  H   H1000     1.0  0.62909  0.65061  0.70130  1.0000
  S   S165      1.0  0.60358  0.64919  0.62131  1.0000
  H   H1001     1.0  0.97991  0.38917  0.94284  1.0000
  H   H1002     1.0  0.94232  0.50259  0.74054  1.0000
  H   H1003     1.0  0.82298  0.56785  0.92620  1.0000
  H   H1004     1.0  0.81896  0.61324  0.73000  1.0000
  C   C586      1.0  0.58312  0.42895  0.97897  1.0000
  C   C587      1.0  0.85474  0.60856  0.95473  1.0000
  H   H1005     1.0  0.78722  0.54191  0.97491  1.0000
  C   C588      1.0  0.99830  0.35501  0.86775  1.0000
  C   C589      1.0  0.58012  0.35960  0.82673  1.0000
  H   H1006     1.0  0.99666  0.58425  0.75257  1.0000
  C   C590      1.0  0.82027  0.35619  0.72821  1.0000
  H   H1007     1.0  0.60879  0.66784  0.68804  1.0000
  C   C591      1.0  0.77168  0.33812  0.69882  1.0000
  H   H1008     1.0  0.52938  0.38210  0.50210  1.0000
  H   H1009     1.0  0.76559  0.37621  0.73844  1.0000
  C   C592      1.0  0.77124  0.34826  0.77311  1.0000
  H   H1010     1.0  0.80201  0.39388  0.75710  1.0000
  H   H1011     1.0  0.75253  0.34207  0.69353  1.0000
  H   H1012     1.0  0.80741  0.66187  0.92650  1.0000
  H   H1013     1.0  0.82117  0.66940  0.96747  1.0000
  S   S166      1.0  0.51178  0.41446  0.92148  1.0000
  C   C593      1.0  0.62497  0.66944  0.70724  1.0000
  C   C594      1.0  0.52371  0.65404  0.75942  1.0000
  H   H1014     1.0  0.54970  0.55930  0.97998  1.0000
  C   C595      1.0  0.56651  0.55266  0.98765  1.0000
  C   C596      1.0  0.78436  0.37228  0.74565  1.0000
  H   H1015     1.0  0.66911  0.66369  0.75901  1.0000
  S   S167      1.0  0.72843  0.61435  0.98854  1.0000
  C   C597      1.0  0.57544  0.54136  0.95680  1.0000
  H   H1016     1.0  0.76369  0.35733  0.79355  1.0000
  H   H1017     1.0  0.78845  0.34353  0.78356  1.0000
  H   H1018     1.0  0.86471  0.65857  0.99135  1.0000
  S   S168      1.0  0.72536  0.57909  0.49353  1.0000
  H   H1019     1.0  0.00343  0.34503  0.84709  1.0000
  H   H1020     1.0  0.55437  0.33757  0.91809  1.0000
  Fe  Fe82      1.0  0.58194  0.90754  0.41698  1.0000
  S   S169      1.0  0.53569  0.88486  0.43992  1.0000
  S   S170      1.0  0.61891  0.95683  0.42810  1.0000
  Fe  Fe83      1.0  0.56192  0.85440  0.36597  1.0000
  H   H1021     1.0  0.58766  0.99280  0.39827  1.0000
  S   S171      1.0  0.57735  0.83955  0.31999  1.0000
  H   H1022     1.0  0.50690  0.91763  0.99518  1.0000
  Fe  Fe84      1.0  0.53680  0.84146  0.43474  1.0000
  H   H1023     1.0  0.58122  0.83402  0.48448  1.0000
  S   S172      1.0  0.56393  0.89963  0.36552  1.0000
  S   S173      1.0  0.58477  0.86448  0.41541  1.0000
  Fe  Fe85      1.0  0.53735  0.71095  0.12047  1.0000
  S   S174      1.0  0.57961  0.72677  0.15100  1.0000
  H   H1024     1.0  0.55197  0.73017  0.44057  1.0000
  Fe  Fe86      1.0  0.57498  0.68123  0.13683  1.0000
  Fe  Fe87      1.0  0.54686  0.70251  0.19250  1.0000
  S   S175      1.0  0.54422  0.71504  0.24636  1.0000
  H   H1025     1.0  0.60848  0.83017  0.37991  1.0000
  H   H1026     1.0  0.51238  0.83431  0.20116  1.0000
  H   H1027     1.0  0.65910  0.84102  0.04600  1.0000
  H   H1028     1.0  0.76332  0.69053  0.39665  1.0000
  C   C598      1.0  0.56656  0.80452  0.29946  1.0000
  C   C599      1.0  0.57966  0.80532  0.26883  1.0000
  C   C600      1.0  0.57220  0.77832  0.25164  1.0000
  C   C601      1.0  0.55197  0.74997  0.26519  1.0000
  C   C602      1.0  0.53861  0.74916  0.29571  1.0000
  C   C603      1.0  0.54544  0.77619  0.31247  1.0000
  H   H1029     1.0  0.59591  0.82702  0.25833  1.0000
  H   H1030     1.0  0.58285  0.77945  0.22834  1.0000
  C   C604      1.0  0.67887  0.86016  0.03364  1.0000
  H   H1031     1.0  0.53454  0.77507  0.33551  1.0000
  H   H1032     1.0  0.55742  0.73373  0.38413  1.0000
  C   C605      1.0  0.79590  0.67689  0.40949  1.0000
  C   C606      1.0  0.56974  0.76157  0.04277  1.0000
  C   C607      1.0  0.54404  0.76143  0.05512  1.0000
  C   C608      1.0  0.53288  0.77807  0.03880  1.0000
  H   H1033     1.0  0.61641  0.84381  0.02961  1.0000
  H   H1034     1.0  0.50663  0.86475  0.32204  1.0000
  H   H1035     1.0  0.56318  0.95382  0.38689  1.0000
  H   H1036     1.0  0.52501  0.86705  0.24998  1.0000
  N   N44       1.0  0.65167  0.89039  0.02044  1.0000
  C   C609      1.0  0.62277  0.98258  0.46011  1.0000
  H   H1037     1.0  0.81846  0.69099  0.42114  1.0000
  H   H1038     1.0  0.63211  0.86540  0.06547  1.0000
  H   H1039     1.0  0.58453  0.86523  0.01923  1.0000
  C   C610      1.0  0.67262  0.91698  0.04167  1.0000
  H   H1040     1.0  0.64558  0.94014  0.03720  1.0000
  C   C611      1.0  0.54719  0.79467  0.01035  1.0000
  H   H1041     1.0  0.62753  0.79707  0.42901  1.0000
  H   H1042     1.0  0.51833  0.74103  0.38769  1.0000
  H   H1043     1.0  0.57855  0.74888  0.05515  1.0000
  H   H1044     1.0  0.54697  0.84307  0.22262  1.0000
  H   H1045     1.0  0.78869  0.71197  0.42854  1.0000
  H   H1046     1.0  0.52859  0.89692  0.29697  1.0000
  C   C612      1.0  0.57962  0.75513  0.38640  1.0000
  N   N45       1.0  0.52828  0.97728  0.42334  1.0000
  H   H1047     1.0  0.57552  0.98291  0.35687  1.0000
  H   H1048     1.0  0.75933  0.71054  0.47147  1.0000
  S   S176      1.0  0.51600  0.80346  0.47198  1.0000
  H   H1049     1.0  0.61009  0.77412  0.47826  1.0000
  H   H1050     1.0  0.62569  0.76232  0.39679  1.0000
  C   C613      1.0  0.59478  0.75219  0.46587  1.0000
  H   H1051     1.0  0.60912  0.74281  0.36030  1.0000
  H   H1052     1.0  0.52405  0.93347  0.43067  1.0000
  H   H1053     1.0  0.72154  0.72001  0.45183  1.0000
  H   H1054     1.0  0.50839  0.76751  0.40352  1.0000
  C   C614      1.0  0.57293  0.79486  0.99807  1.0000
  H   H1055     1.0  0.60801  0.81597  0.44034  1.0000
  N   N46       1.0  0.57949  0.77320  0.41558  1.0000
  C   C615      1.0  0.53941  0.97973  0.38847  1.0000
  C   C616      1.0  0.52277  0.75719  0.40796  1.0000
  C   C617      1.0  0.58416  0.77831  0.01440  1.0000
  H   H1056     1.0  0.64757  0.92786  0.07802  1.0000
  H   H1057     1.0  0.67923  0.90903  0.06376  1.0000
  H   H1058     1.0  0.55774  0.79892  0.42868  1.0000
  H   H1059     1.0  0.58054  0.85324  0.06059  1.0000
  C   C618      1.0  0.59671  0.87033  0.04294  1.0000
  H   H1060     1.0  0.63345  0.98488  0.04053  1.0000
  H   H1061     1.0  0.67942  0.96039  0.05923  1.0000
  C   C619      1.0  0.53493  0.95615  0.44270  1.0000
  H   H1062     1.0  0.56098  0.79552  0.38599  1.0000
  C   C620      1.0  0.60475  0.97311  0.48835  1.0000
  C   C621      1.0  0.55636  0.78287  0.40935  1.0000
  H   H1063     1.0  0.55954  0.96395  0.44304  1.0000
  H   H1064     1.0  0.55926  0.76231  0.46404  1.0000
  H   H1065     1.0  0.51223  0.81181  0.31255  1.0000
  H   H1066     1.0  0.64495  0.84284  0.39696  1.0000
  H   H1067     1.0  0.69985  0.68384  0.43297  1.0000
  C   C622      1.0  0.66921  0.87574  0.00782  1.0000
  C   C623      1.0  0.52469  0.95109  0.47878  1.0000
  H   H1068     1.0  0.52751  0.80947  0.19855  1.0000
  C   C624      1.0  0.56819  0.97740  0.38274  1.0000
  H   H1069     1.0  0.57304  0.97328  0.00316  1.0000
  H   H1070     1.0  0.59518  0.72323  0.39876  1.0000
  C   C625      1.0  0.51840  0.85450  0.27340  1.0000
  C   C626      1.0  0.60975  0.80185  0.42047  1.0000
  H   H1071     1.0  0.52178  0.96115  0.37306  1.0000
  C   C627      1.0  0.62501  0.86685  0.04013  1.0000
  H   H1072     1.0  0.60196  0.89297  0.05180  1.0000
  C   C628      1.0  0.50561  0.80622  0.24524  1.0000
  C   C629      1.0  0.56700  0.99077  0.99729  1.0000
  H   H1073     1.0  0.61610  0.94960  0.99282  1.0000
  C   C630      1.0  0.73964  0.69005  0.46062  1.0000
  H   H1074     1.0  0.60825  0.74507  0.45100  1.0000
  H   H1075     1.0  0.80015  0.67998  0.38273  1.0000
  H   H1076     1.0  0.52283  0.72742  0.30642  1.0000
  C   C631      1.0  0.77395  0.68831  0.41944  1.0000
  H   H1077     1.0  0.52081  0.79966  0.25783  1.0000
  H   H1078     1.0  0.53987  0.85649  0.28272  1.0000
  C   C632      1.0  0.62335  0.82217  0.39000  1.0000
  H   H1079     1.0  0.60417  0.77848  0.00514  1.0000
  H   H1080     1.0  0.58144  0.76714  0.36303  1.0000
  C   C633      1.0  0.56992  0.75394  0.44620  1.0000
  C   C634      1.0  0.60373  0.74531  0.38607  1.0000
  C   C635      1.0  0.66017  0.93704  0.05475  1.0000
  S   S177      1.0  0.52547  0.74145  0.09112  1.0000
  H   H1081     1.0  0.62889  0.81060  0.37044  1.0000
  Fe  Fe88      1.0  0.51771  0.87574  0.38853  1.0000
  H   H1082     1.0  0.53845  0.80746  0.99810  1.0000
  C   C636      1.0  0.50974  0.87294  0.29651  1.0000
  C   C637      1.0  0.52398  0.82468  0.21528  1.0000
  H   H1083     1.0  0.73611  0.71215  0.41556  1.0000
  H   H1084     1.0  0.51487  0.74485  0.43149  1.0000
  H   H1085     1.0  0.69459  0.87642  0.05204  1.0000
  S   S178      1.0  0.51412  0.82994  0.38527  1.0000
  C   C638      1.0  0.63845  0.99396  0.01599  1.0000
  C   C639      1.0  0.72346  0.70199  0.43850  1.0000
  H   H1086     1.0  0.72403  0.67818  0.48147  1.0000
  H   H1087     1.0  0.69477  0.93194  0.02935  1.0000
  H   H1088     1.0  0.54222  0.91878  0.00364  1.0000
  H   H1089     1.0  0.69126  0.85022  0.02109  1.0000
  H   H1090     1.0  0.51301  0.77806  0.04825  1.0000
  H   H1091     1.0  0.54343  0.00123  0.37699  1.0000
  H   H1092     1.0  0.56381  0.99972  0.02086  1.0000
  H   H1093     1.0  0.80647  0.69880  0.47635  1.0000
  H   H1094     1.0  0.69047  0.89261  0.99530  1.0000
  H   H1095     1.0  0.58381  0.73523  0.48576  1.0000
  H   H1096     1.0  0.62524  0.90834  0.99763  1.0000
  H   H1097     1.0  0.53170  0.93575  0.49005  1.0000
  S   S179      1.0  0.50491  0.68856  0.16259  1.0000
  H   H1098     1.0  0.58810  0.94933  0.49148  1.0000
  H   H1099     1.0  0.51850  0.96413  0.99390  1.0000
  C   C640      1.0  0.78768  0.68184  0.49174  1.0000
  Fe  Fe89      1.0  0.59629  0.90912  0.91363  1.0000
  S   S180      1.0  0.56425  0.87743  0.95157  1.0000
  S   S181      1.0  0.62425  0.96096  0.92178  1.0000
  Fe  Fe90      1.0  0.57402  0.85641  0.86116  1.0000
  S   S182      1.0  0.53996  0.82241  0.89629  1.0000
  S   S183      1.0  0.57349  0.84355  0.80689  1.0000
  Fe  Fe91      1.0  0.52999  0.85925  0.91074  1.0000
  Fe  Fe92      1.0  0.57756  0.84399  0.93334  1.0000
  H   H1100     1.0  0.78002  0.69356  0.50892  1.0000
  S   S184      1.0  0.56126  0.89199  0.87337  1.0000
  S   S185      1.0  0.61247  0.87696  0.89763  1.0000
  Fe  Fe93      1.0  0.57581  0.73346  0.60244  1.0000
  S   S186      1.0  0.61070  0.73237  0.63553  1.0000
  S   S187      1.0  0.59549  0.77010  0.56344  1.0000
  H   H1101     1.0  0.51248  0.82556  0.82015  1.0000
  Fe  Fe94      1.0  0.57764  0.72500  0.67646  1.0000
  S   S188      1.0  0.58834  0.74131  0.72995  1.0000
  H   H1102     1.0  0.69070  0.76283  0.72153  1.0000
  H   H1103     1.0  0.63791  0.68360  0.56294  1.0000
  S   S189      1.0  0.54476  0.72949  0.64392  1.0000
  H   H1104     1.0  0.52455  0.74204  0.81024  1.0000
  C   C641      1.0  0.57741  0.81461  0.78626  1.0000
  C   C642      1.0  0.57243  0.81089  0.75226  1.0000
  C   C643      1.0  0.57540  0.78854  0.73471  1.0000
  C   C644      1.0  0.58382  0.76972  0.75087  1.0000
  C   C645      1.0  0.58877  0.77339  0.78487  1.0000
  C   C646      1.0  0.58542  0.79550  0.80249  1.0000
  H   H1105     1.0  0.56664  0.82572  0.73922  1.0000
  H   H1106     1.0  0.57177  0.78632  0.70857  1.0000
  H   H1107     1.0  0.59537  0.75911  0.79775  1.0000
  H   H1108     1.0  0.58951  0.79807  0.82855  1.0000
  S   S190      1.0  0.55488  0.67423  0.67023  1.0000
  H   H1109     1.0  0.65501  0.93038  0.94923  1.0000
  C   C647      1.0  0.54120  0.76214  0.53943  1.0000
  C   C648      1.0  0.57287  0.78007  0.53979  1.0000
  C   C649      1.0  0.58717  0.80600  0.51985  1.0000
  C   C650      1.0  0.52512  0.91460  0.98451  1.0000
  C   C651      1.0  0.53753  0.97782  0.97701  1.0000
  H   H1110     1.0  0.67203  0.70960  0.75484  1.0000
  H   H1111     1.0  0.61167  0.82006  0.52018  1.0000
  C   C652      1.0  0.60857  0.99441  0.51287  1.0000
  C   C653      1.0  0.63540  0.98519  0.95704  1.0000
  H   H1112     1.0  0.56545  0.94156  0.95630  1.0000
  C   C654      1.0  0.66616  0.70590  0.67156  1.0000
  C   C655      1.0  0.52401  0.76996  0.51899  1.0000
  H   H1113     1.0  0.50793  0.86109  0.77078  1.0000
  C   C656      1.0  0.54082  0.93370  0.95359  1.0000
  H   H1114     1.0  0.51439  0.73832  0.70865  1.0000
  C   C657      1.0  0.56368  0.97070  0.89038  1.0000
  S   S191      1.0  0.55158  0.68330  0.59127  1.0000
  H   H1115     1.0  0.66090  0.77170  0.71999  1.0000
  H   H1116     1.0  0.62473  0.71953  0.69836  1.0000
  H   H1117     1.0  0.68110  0.91807  0.95837  1.0000
  H   H1118     1.0  0.50650  0.88096  0.80634  1.0000
  N   N47       1.0  0.53653  0.96041  0.94666  1.0000
  H   H1119     1.0  0.79694  0.67036  0.50699  1.0000
  H   H1120     1.0  0.65567  0.85810  0.98906  1.0000
  H   H1121     1.0  0.58455  0.98964  0.93611  1.0000
  Fe  Fe95      1.0  0.58484  0.68186  0.62622  1.0000
  S   S192      1.0  0.59320  0.81738  0.96404  1.0000
  H   H1122     1.0  0.52997  0.74212  0.55466  1.0000
  H   H1123     1.0  0.63657  0.72154  0.73930  1.0000
  H   H1124     1.0  0.59457  0.98672  0.53460  1.0000
  H   H1125     1.0  0.67934  0.94673  0.98352  1.0000
  H   H1126     1.0  0.58589  0.98688  0.87900  1.0000
  H   H1127     1.0  0.70527  0.68335  0.74017  1.0000
  C   C658      1.0  0.51282  0.86437  0.79723  1.0000
  C   C659      1.0  0.66919  0.75715  0.70908  1.0000
  H   H1128     1.0  0.69996  0.72296  0.72348  1.0000
  H   H1129     1.0  0.50645  0.93885  0.90552  1.0000
  Fe  Fe96      1.0  0.52359  0.67904  0.63588  1.0000
  C   C660      1.0  0.64447  0.72353  0.71354  1.0000
  H   H1130     1.0  0.62715  0.88023  0.97478  1.0000
  C   C661      1.0  0.66593  0.92523  0.96972  1.0000
  H   H1131     1.0  0.67342  0.76340  0.68284  1.0000
  C   C662      1.0  0.62874  0.97384  0.98895  1.0000
  H   H1132     1.0  0.51444  0.89008  0.97832  1.0000
  N   N48       1.0  0.65359  0.70014  0.70591  1.0000
  H   H1133     1.0  0.53312  0.91781  0.93235  1.0000
  C   C663      1.0  0.53832  0.79576  0.49890  1.0000
  H   H1134     1.0  0.53782  0.87455  0.79928  1.0000
  H   H1135     1.0  0.54577  0.96944  0.87401  1.0000
  C   C664      1.0  0.67650  0.68426  0.65813  1.0000
  C   C665      1.0  0.56212  0.98243  0.92475  1.0000
  C   C666      1.0  0.56998  0.81393  0.49957  1.0000
  H   H1136     1.0  0.56249  0.94843  0.89127  1.0000
  H   H1137     1.0  0.53454  0.70813  0.77792  1.0000
  H   H1138     1.0  0.68650  0.72893  0.66934  1.0000
  C   C667      1.0  0.64088  0.90007  0.99097  1.0000
  C   C668      1.0  0.51029  0.70013  0.78379  1.0000
  H   H1139     1.0  0.51686  0.74456  0.76862  1.0000
  C   C669      1.0  0.50710  0.95041  0.92880  1.0000
  H   H1140     1.0  0.52500  0.70186  0.72152  1.0000
  H   H1141     1.0  0.50636  0.89532  0.86652  1.0000
  C   C670      1.0  0.67725  0.70360  0.73038  1.0000
  H   H1142     1.0  0.51015  0.98679  0.70439  1.0000
  C   C671      1.0  0.50876  0.72918  0.78996  1.0000
  H   H1143     1.0  0.51672  0.81841  0.76248  1.0000
  H   H1144     1.0  0.64912  0.70532  0.65411  1.0000
  H   H1145     1.0  0.68262  0.68965  0.63192  1.0000
  H   H1146     1.0  0.50512  0.97052  0.92197  1.0000
  H   H1147     1.0  0.53443  0.99734  0.97049  1.0000
  H   H1148     1.0  0.66808  0.67359  0.52193  1.0000
  H   H1149     1.0  0.53585  0.97250  0.49309  1.0000
  H   H1150     1.0  0.69722  0.68765  0.67070  1.0000
  H   H1151     1.0  0.59529  0.67426  0.74306  1.0000
  C   C672      1.0  0.68085  0.67552  0.73613  1.0000
  H   H1152     1.0  0.50564  0.68814  0.80771  1.0000
