data_image0
_chemical_formula_structural       SHFeCH3SFeSFeS2FeSFeS3FeSHCSCHSFeSHSC6H4C6H4C6H6C2H3FeH8CH3CH3NC3H2SH3CH3CH4FeCH5SH2CHCH3CNC8H13CH7C2HCHNHC2H5CH5C2HC3H2NC2H3C2SC2HSHCFeCH2CH6S2H2CH3CH3CH2CH4CSHFeCH3SFeSFeS2FeSFeS3HSHFeS2HSFeSHSC6H4C6H4C8HCH6C2HCHSH4CH3CNHFeH3NH2C2HC3H3C2H2C2H4CH4CFeH3SHCSHNC6SCH21C2HSNH4CH2CHSCFeH3C3HSH8C4HC5H4C2H2NHCHC2H3NCFeS2H2SFe2H2S2FeSFeS2FeSFeS3HSH2SHFeSHSHC3H3C7H4CH3CH2CHC6H4C6H4NC5HC2H2CH8CNCH3CH3C2H2SH5CH2SH6CFeH3C2HCHC2HCH2NC2FeH3CH2CHSH6CHCH2FeH3C5H2NFeCH2CFeS2H2SFeH3S2FeSFeS2FeSFeS3HSH2SCFeSHSH2CFeHSH2C6H4CH3CHCHC7H4C6H6NC8H20NC8H3SH5FeH8NCHC3H2CH2CH9FeHCNCHCHCH2CHCHC2H5FeNHCFeC3HSHCH3SCHCHCH2CH3SHCH9S2HSH2SFeSH2S2FeS2FeS2FeSFeS3HC6H4C6H4C6H3C7H3CSH9C6H5CH4C2HC2H2NH3NCHCH5CH2CH8CH6CNC4NC3H9SH7NH3CH4CHSCH2FeCHCH2C2H4SHNC4HC2H2C2H4CH2SCHNH3C2HNC8H4C3H2C3HCSHC2H3C3H4CNC2FeH5CHCH2CH2CH5CH9CHSH5CH2CFeHC2SHSCHSFeSH2S2FeS2FeS2FeSFeS4C6H4C6H4C6H4C7H3CFeNH4CSHCHC5H3CH3C5HCHCHCHCH2CH2SH4CHC2H3CH3NCH3SHCHSCH2CH2SCHNC8H19SH10CH2CHC4H3CH2CH3CNCH3CH4CH3FeCH3CNH7CH2FeHFeC2FeS2FeHFeS3CSH2SH2FeH2SHFeCHC2H2C6H4C2H2CHC2HCH3NH2CSH2CH3CH4CH3CH2C2H2CH3CSC3SH3SH8CHCH5CH3SCHSHFeCH3CH2NHCFeHCFeS2FeHFeHS2CSHFeSCHFeHCSH6CHC6H4CNHCHSCH3SHCH3CH9C3H3SH3CH6C2H6C2FeSHC2H4CHC2HSNH2CHCNH2C2H2CH2C2H2C2HCHCH2CHCSCH2CH5SC2SHCHCH2SFeSHFeSCSHSCSCHFeSHC7H4CH7C2HCH6CH2CFeHCH2NH3C2NH6FeHCHCH2CSH4FeHCH4CH3CNH3CHCH2CH3CHCHC2H3FeHSH3CHFeH3C3SHCHSHSHFeSCSHSCSHCFeSHNC6H4CFeH2C2Fe2H3CHNCH4C2H3CNHCHCH2CH6CHCH5FeH5SH5CHSHCH2CHCH2C2FeH2CHCS2H7CH2CHNHC2H3CHC2HFeS2FeS2FeSFeS3FeSHSFeSHSH2FeCSCHC3NH5C2NCH4SHC2SH6C6H4C6H4C2H9CH6CHCH4NC8H14CH9C2HCH2CHCH3CH4CH2CHCSHCHCH4CHCH2CHCHC2HCHC2HC2H2NH2CH2CHCH4C2HNCHCNHCH2CHCFeHC2HC2H2CHSH6C3HFe2S2FeS2FeSFeS3HSCSFeSHSCHC2SCH2C3H2CHC3HSH6CH2CHC2H2C6H4C6H4NC7H17NC2H2CH3SHCHNH2CH3FeHCH2NC4HCH13C2HCHC2H3C2H4CHC2HC2H2C2H5CH4CH2CNCHFeH8FeH2C2H2CHCH11CH4FeHCFeS2FeHFeS3FeS2HSFeSFeS3Fe2S2FeHFeHS2HCHCH5C8H4CHCH4C6H4C6H5CHCNC5HCH3CH9NHSC3H3CSH2SH4CHC3HCH7CH2SCH3CH2CHC2HCHSHNHNH3CH3CH2C3H5C2H4CH5CHCHCH7C2HCHCH3CNCHCH2SH2SCH11SFeCHFeS2FeHFeHS2FeS4FeSFeS3Fe2S2FeCFeHS2CH3CHC3H2C6H4SH3S2C7H4C6H5CHCHNCHCH8C2H4CHCH3CH3SNH3CH4CHC3H2SHCSCHCHCH4CH3C2H10CH4C2H4C3H2C2HCHNCH3CFeH2CHC3HSHC2HNHC2HCH3C3H2CH2FeS2FeSFeSHSFeS2C3FeSFeS3C2HC2HC2HCH3C6H4C6H4SC2H4C3H3CH2SH5NC5HFeCH13CH8C3H2CH2CH2CH9C2HNSH3CS2HCHC2HC3HC2H2CH3CHCH2C3SFeS2FeSFeS3FeS2H2SFeSFeS3CSHCH3C3H3C6H4C6H4C2NC3HC2H2CH2CH2CH8C2H2NHC4HC2H4CH8C3H3C2H2CH2C3HNC3FeH3CSCH2NH9CH4CH4CH6C2H5NC4H2C2H10C2H9CH2CHCH2CHSHFeS
_chemical_formula_sum              "S288 H1728 Fe144 C1008 N72"
_cell_length_a       57.4478
_cell_length_b       57.1598
_cell_length_c       48.8101
_cell_angle_alpha    89.7081
_cell_angle_beta     90.1615
_cell_angle_gamma    119.81

_space_group_name_H-M_alt    "P 1"
_space_group_IT_number       1

loop_
  _space_group_symop_operation_xyz
  'x, y, z'

loop_
  _atom_site_type_symbol
  _atom_site_label
  _atom_site_symmetry_multiplicity
  _atom_site_fract_x
  _atom_site_fract_y
  _atom_site_fract_z
  _atom_site_occupancy
  S   S1        1.0  0.23210  0.12700  0.41001  1.0000
  H   H1        1.0  0.13571  0.17244  0.42122  1.0000
  Fe  Fe1       1.0  0.23619  0.09889  0.44027  1.0000
  C   C1        1.0  0.23749  0.36284  0.40461  1.0000
  H   H2        1.0  0.13692  0.48210  0.39488  1.0000
  H   H3        1.0  0.01104  0.45654  0.46102  1.0000
  H   H4        1.0  0.20003  0.26168  0.43333  1.0000
  S   S2        1.0  0.04341  0.48246  0.33548  1.0000
  Fe  Fe2       1.0  0.22714  0.41352  0.27101  1.0000
  S   S3        1.0  0.21692  0.37146  0.25938  1.0000
  Fe  Fe3       1.0  0.16840  0.40103  0.26473  1.0000
  S   S4        1.0  0.15456  0.35780  0.25307  1.0000
  S   S5        1.0  0.13456  0.41154  0.26375  1.0000
  Fe  Fe4       1.0  0.18130  0.35871  0.28743  1.0000
  S   S6        1.0  0.16761  0.32289  0.31651  1.0000
  Fe  Fe5       1.0  0.19083  0.37386  0.22573  1.0000
  S   S7        1.0  0.19348  0.36387  0.18006  1.0000
  S   S8        1.0  0.19272  0.40057  0.30084  1.0000
  S   S9        1.0  0.20353  0.41726  0.23573  1.0000
  Fe  Fe6       1.0  0.12945  0.24073  0.99110  1.0000
  S   S10       1.0  0.15898  0.28241  0.00608  1.0000
  H   H5        1.0  0.22831  0.38987  0.38339  1.0000
  C   C2        1.0  0.21014  0.19267  0.46362  1.0000
  S   S11       1.0  0.10983  0.29582  0.00074  1.0000
  C   C3        1.0  0.18369  0.26435  0.42455  1.0000
  H   H6        1.0  0.17854  0.19513  0.38686  1.0000
  S   S12       1.0  0.16170  0.32558  0.44669  1.0000
  Fe  Fe7       1.0  0.12542  0.27891  0.03315  1.0000
  S   S13       1.0  0.12496  0.28648  0.07987  1.0000
  H   H7        1.0  0.11486  0.44483  0.42210  1.0000
  S   S14       1.0  0.09645  0.23614  0.01978  1.0000
  C   C4        1.0  0.17391  0.34198  0.15260  1.0000
  C   C5        1.0  0.18499  0.34677  0.12601  1.0000
  C   C6        1.0  0.17036  0.33039  0.10353  1.0000
  C   C7        1.0  0.14434  0.30866  0.10724  1.0000
  C   C8        1.0  0.13322  0.30395  0.13381  1.0000
  C   C9        1.0  0.14776  0.32047  0.15625  1.0000
  H   H8        1.0  0.20510  0.36337  0.12274  1.0000
  H   H9        1.0  0.17931  0.33453  0.08335  1.0000
  H   H10       1.0  0.11315  0.28727  0.13711  1.0000
  H   H11       1.0  0.13882  0.31633  0.17643  1.0000
  C   C10       1.0  0.16367  0.32402  0.35245  1.0000
  C   C11       1.0  0.15229  0.29981  0.36751  1.0000
  C   C12       1.0  0.15051  0.29988  0.39630  1.0000
  C   C13       1.0  0.16050  0.32424  0.41037  1.0000
  C   C14       1.0  0.17108  0.34840  0.39526  1.0000
  C   C15       1.0  0.17245  0.34830  0.36643  1.0000
  H   H12       1.0  0.14468  0.28094  0.35676  1.0000
  H   H13       1.0  0.14165  0.28119  0.40767  1.0000
  H   H14       1.0  0.17845  0.36730  0.40598  1.0000
  H   H15       1.0  0.18061  0.36702  0.35508  1.0000
  C   C16       1.0  0.12457  0.48027  0.30129  1.0000
  C   C17       1.0  0.10300  0.45812  0.28870  1.0000
  C   C18       1.0  0.10655  0.43749  0.27713  1.0000
  C   C19       1.0  0.13156  0.43850  0.27823  1.0000
  C   C20       1.0  0.15313  0.46067  0.29076  1.0000
  C   C21       1.0  0.14967  0.48146  0.30202  1.0000
  H   H16       1.0  0.19597  0.29850  0.09271  1.0000
  H   H17       1.0  0.20718  0.04856  0.02472  1.0000
  H   H18       1.0  0.17253  0.46188  0.29164  1.0000
  H   H19       1.0  0.22389  0.37256  0.34322  1.0000
  H   H20       1.0  0.16443  0.45805  0.36052  1.0000
  H   H21       1.0  0.22764  0.06589  0.99499  1.0000
  C   C22       1.0  0.08326  0.39856  0.34992  1.0000
  C   C23       1.0  0.24911  0.07862  0.03429  1.0000
  H   H22       1.0  0.11553  0.43639  0.33591  1.0000
  H   H23       1.0  0.13688  0.37704  0.09814  1.0000
  H   H24       1.0  0.06610  0.42399  0.42099  1.0000
  Fe  Fe8       1.0  0.13916  0.28902  0.47486  1.0000
  H   H25       1.0  0.14239  0.24073  0.41221  1.0000
  H   H26       1.0  0.11218  0.36353  0.22121  1.0000
  H   H27       1.0  0.11900  0.34554  0.19507  1.0000
  H   H28       1.0  0.21851  0.25480  0.39647  1.0000
  H   H29       1.0  0.25180  0.04546  0.99380  1.0000
  H   H30       1.0  0.19107  0.27939  0.40772  1.0000
  H   H31       1.0  0.12161  0.20433  0.37913  1.0000
  H   H32       1.0  0.15882  0.45172  0.39714  1.0000
  C   C24       1.0  0.16198  0.17100  0.47168  1.0000
  H   H33       1.0  0.10922  0.40870  0.20680  1.0000
  H   H34       1.0  0.07877  0.38375  0.36665  1.0000
  H   H35       1.0  0.16820  0.44044  0.14377  1.0000
  C   C25       1.0  0.12230  0.17859  0.41106  1.0000
  H   H36       1.0  0.16053  0.18966  0.03606  1.0000
  H   H37       1.0  0.15932  0.41104  0.10787  1.0000
  H   H38       1.0  0.06594  0.40148  0.34566  1.0000
  N   N1        1.0  0.16309  0.22244  0.39258  1.0000
  C   C26       1.0  0.11661  0.36335  0.19909  1.0000
  C   C27       1.0  0.25196  0.43416  0.35648  1.0000
  C   C28       1.0  0.22090  0.02057  0.45604  1.0000
  H   H39       1.0  0.15887  0.38440  0.19198  1.0000
  H   H40       1.0  0.15360  0.37595  0.14381  1.0000
  S   S15       1.0  0.10929  0.24735  0.46054  1.0000
  H   H41       1.0  0.17276  0.44151  0.17967  1.0000
  H   H42       1.0  0.11444  0.41688  0.40637  1.0000
  H   H43       1.0  0.09864  0.36051  0.18795  1.0000
  C   C29       1.0  0.10469  0.42955  0.40568  1.0000
  H   H44       1.0  0.23791  0.41893  0.34198  1.0000
  H   H45       1.0  0.25018  0.12912  0.23620  1.0000
  H   H46       1.0  0.08358  0.45685  0.28798  1.0000
  C   C30       1.0  0.18265  0.21290  0.39962  1.0000
  H   H47       1.0  0.19790  0.41639  0.17590  1.0000
  H   H48       1.0  0.19058  0.25887  0.36994  1.0000
  H   H49       1.0  0.02645  0.18655  0.46511  1.0000
  H   H50       1.0  0.06841  0.47230  0.38695  1.0000
  Fe  Fe9       1.0  0.08305  0.25342  0.98566  1.0000
  C   C31       1.0  0.17106  0.24017  0.36741  1.0000
  H   H51       1.0  0.20537  0.27394  0.10173  1.0000
  H   H52       1.0  0.10459  0.15993  0.40345  1.0000
  H   H53       1.0  0.01913  0.18901  0.98601  1.0000
  H   H54       1.0  0.21351  0.01491  0.01754  1.0000
  H   H55       1.0  0.12311  0.42270  0.14577  1.0000
  S   S16       1.0  0.20119  0.05618  0.44851  1.0000
  H   H56       1.0  0.18302  0.24281  0.32473  1.0000
  H   H57       1.0  0.08622  0.38936  0.33116  1.0000
  C   C32       1.0  0.24198  0.37598  0.33211  1.0000
  H   H58       1.0  0.22035  0.35689  0.41883  1.0000
  C   C33       1.0  0.22633  0.01081  0.03138  1.0000
  H   H59       1.0  0.11891  0.36397  0.14434  1.0000
  H   H60       1.0  0.13582  0.44103  0.19501  1.0000
  H   H61       1.0  0.15649  0.24734  0.36370  1.0000
  C   C34       1.0  0.08782  0.47264  0.38908  1.0000
  N   N2        1.0  0.16269  0.22996  0.07567  1.0000
  C   C35       1.0  0.18141  0.23088  0.05342  1.0000
  C   C36       1.0  0.16714  0.25815  0.07882  1.0000
  C   C37       1.0  0.13445  0.21160  0.06572  1.0000
  C   C38       1.0  0.16835  0.21925  0.10168  1.0000
  C   C39       1.0  0.17968  0.20374  0.04630  1.0000
  C   C40       1.0  0.19612  0.28019  0.08543  1.0000
  C   C41       1.0  0.11145  0.20883  0.08404  1.0000
  C   C42       1.0  0.16019  0.22681  0.12905  1.0000
  H   H62       1.0  0.17811  0.23932  0.03404  1.0000
  H   H63       1.0  0.20272  0.24451  0.05912  1.0000
  H   H64       1.0  0.15430  0.25937  0.09493  1.0000
  H   H65       1.0  0.16098  0.26449  0.05986  1.0000
  H   H66       1.0  0.13157  0.21833  0.04516  1.0000
  H   H67       1.0  0.13057  0.19069  0.06289  1.0000
  H   H68       1.0  0.15857  0.19685  0.10093  1.0000
  H   H69       1.0  0.19031  0.22684  0.10343  1.0000
  H   H70       1.0  0.25331  0.36193  0.41677  1.0000
  H   H71       1.0  0.19580  0.20754  0.03139  1.0000
  H   H72       1.0  0.06260  0.39619  0.40069  1.0000
  H   H73       1.0  0.13787  0.48052  0.35874  1.0000
  H   H74       1.0  0.09085  0.47017  0.41110  1.0000
  C   C43       1.0  0.16049  0.46534  0.38007  1.0000
  H   H75       1.0  0.09217  0.19637  0.07309  1.0000
  H   H76       1.0  0.11253  0.22839  0.08820  1.0000
  H   H77       1.0  0.11016  0.19795  0.10333  1.0000
  H   H78       1.0  0.15428  0.20998  0.14387  1.0000
  H   H79       1.0  0.14312  0.23057  0.12787  1.0000
  H   H80       1.0  0.17767  0.24447  0.13851  1.0000
  H   H81       1.0  0.10186  0.42919  0.18484  1.0000
  C   C44       1.0  0.07550  0.41172  0.41564  1.0000
  C   C45       1.0  0.11687  0.42278  0.18908  1.0000
  H   H82       1.0  0.21577  0.04751  0.23377  1.0000
  C   C46       1.0  0.19408  0.42570  0.15780  1.0000
  H   H83       1.0  0.23618  0.35621  0.32257  1.0000
  N   N3        1.0  0.14254  0.40242  0.16462  1.0000
  H   H84       1.0  0.12332  0.39769  0.10881  1.0000
  C   C47       1.0  0.08743  0.45024  0.37121  1.0000
  C   C48       1.0  0.14270  0.38965  0.19161  1.0000
  H   H85       1.0  0.15276  0.21250  0.33263  1.0000
  H   H86       1.0  0.10047  0.39080  0.15923  1.0000
  H   H87       1.0  0.17967  0.20546  0.42109  1.0000
  H   H88       1.0  0.21187  0.44615  0.15561  1.0000
  H   H89       1.0  0.08972  0.42049  0.26746  1.0000
  C   C49       1.0  0.19863  0.02437  0.45607  1.0000
  H   H90       1.0  0.20886  0.28626  0.06678  1.0000
  H   H91       1.0  0.25090  0.11373  0.26856  1.0000
  H   H92       1.0  0.14813  0.40417  0.20880  1.0000
  H   H93       1.0  0.24652  0.39106  0.31558  1.0000
  H   H94       1.0  0.19328  0.41431  0.13918  1.0000
  C   C50       1.0  0.13862  0.38280  0.14217  1.0000
  C   C51       1.0  0.13968  0.39313  0.11271  1.0000
  H   H95       1.0  0.18277  0.19384  0.06441  1.0000
  C   C52       1.0  0.22362  0.06786  0.01674  1.0000
  C   C53       1.0  0.00820  0.18760  0.46658  1.0000
  C   C54       1.0  0.15946  0.23715  0.41630  1.0000
  H   H96       1.0  0.23338  0.03734  0.06563  1.0000
  H   H97       1.0  0.22373  0.08167  0.23686  1.0000
  N   N4        1.0  0.10868  0.44290  0.37792  1.0000
  C   C55       1.0  0.13549  0.46867  0.37773  1.0000
  C   C56       1.0  0.01206  0.49066  0.44078  1.0000
  H   H98       1.0  0.12470  0.41907  0.35993  1.0000
  H   H99       1.0  0.08930  0.45704  0.34950  1.0000
  H   H100      1.0  0.06693  0.43258  0.37259  1.0000
  C   C57       1.0  0.21288  0.23334  0.39583  1.0000
  C   C58       1.0  0.10938  0.42509  0.35557  1.0000
  S   S17       1.0  0.23957  0.19227  0.45294  1.0000
  C   C59       1.0  0.17297  0.22694  0.34068  1.0000
  C   C60       1.0  0.16884  0.42840  0.16146  1.0000
  H   H101      1.0  0.25022  0.11244  0.19702  1.0000
  S   S18       1.0  0.03111  0.48927  0.41237  1.0000
  H   H102      1.0  0.22430  0.23022  0.41250  1.0000
  C   C61       1.0  0.12018  0.40904  0.16339  1.0000
  Fe  Fe10      1.0  0.24778  0.15757  0.44403  1.0000
  C   C62       1.0  0.18492  0.16935  0.46451  1.0000
  H   H103      1.0  0.10371  0.49286  0.38203  1.0000
  H   H104      1.0  0.11461  0.18736  0.42639  1.0000
  C   C63       1.0  0.13602  0.19805  0.38676  1.0000
  H   H105      1.0  0.24031  0.03696  0.44997  1.0000
  H   H106      1.0  0.22046  0.22918  0.37661  1.0000
  H   H107      1.0  0.15396  0.22467  0.43516  1.0000
  H   H108      1.0  0.13755  0.18552  0.37026  1.0000
  H   H109      1.0  0.18483  0.21661  0.34326  1.0000
  H   H110      1.0  0.21624  0.08250  0.01728  1.0000
  S   S19       1.0  0.13671  0.20475  0.98810  1.0000
  S   S20       1.0  0.24907  0.12888  0.47501  1.0000
  H   H111      1.0  0.15606  0.00510  0.46361  1.0000
  H   H112      1.0  0.17729  0.27316  0.44117  1.0000
  C   C64       1.0  0.24561  0.03522  0.04919  1.0000
  H   H113      1.0  0.23023  0.34758  0.38806  1.0000
  H   H114      1.0  0.07559  0.40098  0.43466  1.0000
  H   H115      1.0  0.22150  0.06707  0.20343  1.0000
  C   C65       1.0  0.22823  0.06804  0.22495  1.0000
  H   H116      1.0  0.23149  0.23569  0.46981  1.0000
  H   H117      1.0  0.24097  0.43432  0.37507  1.0000
  H   H118      1.0  0.18305  0.15008  0.45942  1.0000
  C   C66       1.0  0.21209  0.21754  0.47033  1.0000
  H   H119      1.0  0.16654  0.49850  0.31160  1.0000
  H   H120      1.0  0.25038  0.40495  0.41108  1.0000
  C   C67       1.0  0.24636  0.39132  0.39327  1.0000
  H   H121      1.0  0.17837  0.48537  0.38403  1.0000
  H   H122      1.0  0.24315  0.08102  0.05527  1.0000
  H   H123      1.0  0.14255  0.15284  0.47206  1.0000
  H   H124      1.0  0.14323  0.15891  0.97783  1.0000
  C   C68       1.0  0.16518  0.20238  0.97752  1.0000
  S   S21       1.0  0.23216  0.13057  0.91041  1.0000
  H   H125      1.0  0.05205  0.46490  0.79150  1.0000
  Fe  Fe11      1.0  0.23580  0.10127  0.93903  1.0000
  C   C69       1.0  0.01026  0.41390  0.79891  1.0000
  H   H126      1.0  0.02529  0.22965  0.62829  1.0000
  H   H127      1.0  0.24245  0.23569  0.83986  1.0000
  H   H128      1.0  0.20258  0.22183  0.81378  1.0000
  S   S22       1.0  0.02452  0.48959  0.84402  1.0000
  Fe  Fe12      1.0  0.22514  0.41755  0.76190  1.0000
  S   S23       1.0  0.20287  0.37298  0.75290  1.0000
  Fe  Fe13      1.0  0.17206  0.41980  0.76476  1.0000
  S   S24       1.0  0.14683  0.37538  0.75603  1.0000
  S   S25       1.0  0.15529  0.44886  0.76149  1.0000
  Fe  Fe14      1.0  0.17452  0.37098  0.78614  1.0000
  S   S26       1.0  0.15724  0.33483  0.81540  1.0000
  Fe  Fe15      1.0  0.17694  0.38060  0.72350  1.0000
  S   S27       1.0  0.16752  0.36995  0.67746  1.0000
  S   S28       1.0  0.19823  0.41529  0.79681  1.0000
  S   S29       1.0  0.20079  0.42538  0.73076  1.0000
  H   H129      1.0  0.06814  0.47055  0.74276  1.0000
  S   S30       1.0  0.16036  0.27537  0.50461  1.0000
  H   H130      1.0  0.22736  0.25971  0.91235  1.0000
  Fe  Fe16      1.0  0.08300  0.24731  0.49477  1.0000
  S   S31       1.0  0.11198  0.29020  0.50748  1.0000
  S   S32       1.0  0.03906  0.23775  0.49183  1.0000
  H   H131      1.0  0.21232  0.08329  0.54874  1.0000
  S   S33       1.0  0.16460  0.33352  0.94586  1.0000
  Fe  Fe17      1.0  0.13084  0.27357  0.53642  1.0000
  S   S34       1.0  0.14098  0.28181  0.58270  1.0000
  H   H132      1.0  0.24703  0.18989  0.89743  1.0000
  S   S35       1.0  0.10010  0.23056  0.52578  1.0000
  C   C70       1.0  0.15951  0.34480  0.65161  1.0000
  C   C71       1.0  0.15747  0.31980  0.65722  1.0000
  C   C72       1.0  0.15205  0.30107  0.63588  1.0000
  C   C73       1.0  0.14821  0.30674  0.60860  1.0000
  C   C74       1.0  0.14996  0.33162  0.60303  1.0000
  C   C75       1.0  0.15569  0.35049  0.62433  1.0000
  H   H133      1.0  0.16017  0.31492  0.67800  1.0000
  H   H134      1.0  0.15074  0.28193  0.64058  1.0000
  H   H135      1.0  0.14707  0.33644  0.58229  1.0000
  H   H136      1.0  0.15717  0.36970  0.61962  1.0000
  C   C76       1.0  0.16172  0.33527  0.85145  1.0000
  C   C77       1.0  0.15165  0.31059  0.86554  1.0000
  C   C78       1.0  0.15275  0.30973  0.89436  1.0000
  C   C79       1.0  0.16425  0.33365  0.90944  1.0000
  C   C80       1.0  0.17494  0.35839  0.89532  1.0000
  C   C81       1.0  0.17366  0.35923  0.86648  1.0000
  H   H137      1.0  0.14249  0.29196  0.85408  1.0000
  H   H138      1.0  0.14459  0.29057  0.90489  1.0000
  H   H139      1.0  0.18394  0.37701  0.90678  1.0000
  H   H140      1.0  0.18153  0.37837  0.85593  1.0000
  C   C82       1.0  0.10676  0.47255  0.81903  1.0000
  C   C83       1.0  0.19955  0.21299  0.83468  1.0000
  C   C84       1.0  0.12612  0.47355  0.77444  1.0000
  C   C85       1.0  0.13612  0.45697  0.78410  1.0000
  C   C86       1.0  0.13101  0.44792  0.81126  1.0000
  C   C87       1.0  0.11648  0.45574  0.82860  1.0000
  C   C88       1.0  0.18915  0.21918  0.47747  1.0000
  C   C89       1.0  0.06885  0.23518  0.59942  1.0000
  H   H141      1.0  0.13859  0.43521  0.81900  1.0000
  C   C90       1.0  0.02578  0.49719  0.57821  1.0000
  H   H142      1.0  0.05295  0.27389  0.61032  1.0000
  H   H143      1.0  0.10376  0.49376  0.78394  1.0000
  H   H144      1.0  0.02345  0.37707  0.75822  1.0000
  H   H145      1.0  0.18313  0.19179  0.83307  1.0000
  H   H146      1.0  0.18219  0.06180  0.53046  1.0000
  H   H147      1.0  0.03665  0.46743  0.73114  1.0000
  C   C91       1.0  0.07513  0.28631  0.57187  1.0000
  C   C92       1.0  0.19707  0.02713  0.95212  1.0000
  H   H148      1.0  0.00702  0.48071  0.58722  1.0000
  C   C93       1.0  0.19042  0.22514  0.97341  1.0000
  H   H149      1.0  0.22965  0.20173  0.83034  1.0000
  S   S36       1.0  0.11376  0.25486  0.95597  1.0000
  H   H150      1.0  0.20056  0.14727  0.87910  1.0000
  H   H151      1.0  0.21654  0.36717  0.66138  1.0000
  H   H152      1.0  0.18246  0.15377  0.96560  1.0000
  H   H153      1.0  0.20164  0.03507  0.51177  1.0000
  C   C94       1.0  0.24734  0.19777  0.87642  1.0000
  H   H154      1.0  0.08489  0.24184  0.58369  1.0000
  H   H155      1.0  0.09807  0.24652  0.63223  1.0000
  H   H156      1.0  0.21475  0.36353  0.69696  1.0000
  C   C95       1.0  0.03936  0.22717  0.55996  1.0000
  N   N5        1.0  0.22738  0.20765  0.87408  1.0000
  H   H157      1.0  0.18484  0.19089  0.88280  1.0000
  Fe  Fe18      1.0  0.14102  0.29620  0.97262  1.0000
  H   H158      1.0  0.06865  0.28838  0.55093  1.0000
  H   H159      1.0  0.02356  0.23053  0.55058  1.0000
  H   H160      1.0  0.02875  0.44001  0.83468  1.0000
  N   N6        1.0  0.02507  0.42657  0.77269  1.0000
  H   H161      1.0  0.08500  0.30634  0.58199  1.0000
  H   H162      1.0  0.19274  0.22411  0.84777  1.0000
  C   C96       1.0  0.20085  0.18552  0.88473  1.0000
  C   C97       1.0  0.03116  0.19728  0.55596  1.0000
  H   H163      1.0  0.23832  0.03552  0.58999  1.0000
  C   C98       1.0  0.21855  0.24391  0.89630  1.0000
  C   C99       1.0  0.21009  0.04657  0.53105  1.0000
  C   C100      1.0  0.04749  0.42054  0.76777  1.0000
  H   H164      1.0  0.05793  0.38890  0.76608  1.0000
  H   H165      1.0  0.24410  0.06458  0.49076  1.0000
  H   H166      1.0  0.12987  0.48053  0.75341  1.0000
  C   C101      1.0  0.03685  0.45666  0.77478  1.0000
  C   C102      1.0  0.11145  0.48122  0.79173  1.0000
  H   H167      1.0  0.07158  0.30883  0.96181  1.0000
  H   H168      1.0  0.03990  0.26643  0.91882  1.0000
  C   C103      1.0  0.04023  0.39088  0.77166  1.0000
  C   C104      1.0  0.23932  0.42308  0.66204  1.0000
  H   H169      1.0  0.24204  0.22762  0.91299  1.0000
  H   H170      1.0  0.02405  0.26176  0.86984  1.0000
  H   H171      1.0  0.23219  0.23991  0.96408  1.0000
  H   H172      1.0  0.25389  0.43146  0.64493  1.0000
  C   C105      1.0  0.25078  0.41477  0.68634  1.0000
  H   H173      1.0  0.23728  0.41105  0.70414  1.0000
  H   H174      1.0  0.20223  0.18244  0.90711  1.0000
  H   H175      1.0  0.21181  0.08225  0.51145  1.0000
  H   H176      1.0  0.02292  0.29281  0.87325  1.0000
  C   C106      1.0  0.22603  0.21486  0.84449  1.0000
  Fe  Fe19      1.0  0.12865  0.23358  0.49245  1.0000
  H   H177      1.0  0.06738  0.24441  0.64317  1.0000
  H   H178      1.0  0.21737  0.25430  0.87759  1.0000
  H   H179      1.0  0.25229  0.08869  0.56037  1.0000
  S   S37       1.0  0.24906  0.13021  0.97472  1.0000
  H   H180      1.0  0.01890  0.20007  0.61073  1.0000
  C   C107      1.0  0.22781  0.36584  0.67915  1.0000
  S   S38       1.0  0.13398  0.19702  0.48462  1.0000
  H   H181      1.0  0.19835  0.22896  0.90388  1.0000
  N   N7        1.0  0.07205  0.30120  0.89845  1.0000
  C   C108      1.0  0.07890  0.28652  0.87719  1.0000
  C   C109      1.0  0.07643  0.32726  0.88585  1.0000
  C   C110      1.0  0.04327  0.28473  0.90745  1.0000
  C   C111      1.0  0.08967  0.30620  0.92315  1.0000
  C   C112      1.0  0.07356  0.25811  0.88523  1.0000
  C   C113      1.0  0.10596  0.34927  0.88147  1.0000
  S   S39       1.0  0.23920  0.19415  0.95559  1.0000
  C   C114      1.0  0.08661  0.32255  0.94659  1.0000
  H   H182      1.0  0.06821  0.28468  0.85758  1.0000
  H   H183      1.0  0.10046  0.29833  0.87177  1.0000
  H   H184      1.0  0.06651  0.33626  0.89799  1.0000
  H   H185      1.0  0.06673  0.32354  0.86533  1.0000
  H   H186      1.0  0.20853  0.32346  0.66772  1.0000
  H   H187      1.0  0.03821  0.29616  0.92242  1.0000
  H   H188      1.0  0.08557  0.28682  0.93271  1.0000
  H   H189      1.0  0.11115  0.31579  0.91743  1.0000
  H   H190      1.0  0.05219  0.24404  0.89009  1.0000
  H   H191      1.0  0.07883  0.24944  0.86759  1.0000
  H   H192      1.0  0.08639  0.25875  0.90252  1.0000
  H   H193      1.0  0.11709  0.35642  0.90106  1.0000
  H   H194      1.0  0.11666  0.34239  0.86775  1.0000
  H   H195      1.0  0.10659  0.36705  0.87141  1.0000
  H   H196      1.0  0.21614  0.04972  0.58788  1.0000
  H   H197      1.0  0.24205  0.18050  0.86240  1.0000
  H   H198      1.0  0.23849  0.03981  0.94448  1.0000
  H   H199      1.0  0.09154  0.27283  0.62291  1.0000
  H   H200      1.0  0.08079  0.33734  0.93964  1.0000
  H   H201      1.0  0.05858  0.49458  0.75256  1.0000
  H   H202      1.0  0.09091  0.28079  0.56972  1.0000
  C   C115      1.0  0.22804  0.33906  0.67631  1.0000
  C   C116      1.0  0.20428  0.07016  0.53053  1.0000
  H   H203      1.0  0.15470  0.00782  0.96065  1.0000
  S   S40       1.0  0.19948  0.05883  0.94460  1.0000
  N   N8        1.0  0.04517  0.23725  0.58898  1.0000
  H   H204      1.0  0.03543  0.38428  0.79332  1.0000
  H   H205      1.0  0.04738  0.19320  0.56221  1.0000
  H   H206      1.0  0.04805  0.42553  0.82210  1.0000
  H   H207      1.0  0.23002  0.33141  0.69664  1.0000
  C   C117      1.0  0.05082  0.26597  0.58911  1.0000
  H   H208      1.0  0.01822  0.40488  0.84028  1.0000
  H   H209      1.0  0.02748  0.19242  0.53379  1.0000
  C   C118      1.0  0.23726  0.23212  0.89222  1.0000
  H   H210      1.0  0.02137  0.46193  0.78096  1.0000
  S   S41       1.0  0.04197  0.24614  0.97050  1.0000
  C   C119      1.0  0.16388  0.19591  0.47796  1.0000
  Fe  Fe20      1.0  0.24825  0.16020  0.94515  1.0000
  H   H211      1.0  0.23553  0.43941  0.66887  1.0000
  H   H212      1.0  0.05544  0.42627  0.74654  1.0000
  H   H213      1.0  0.21980  0.40655  0.65477  1.0000
  C   C120      1.0  0.02159  0.22058  0.60750  1.0000
  C   C121      1.0  0.08186  0.25071  0.62601  1.0000
  C   C122      1.0  0.19020  0.15779  0.87094  1.0000
  H   H214      1.0  0.24395  0.34063  0.66244  1.0000
  S   S42       1.0  0.08882  0.48191  0.84196  1.0000
  H   H215      1.0  0.19252  0.15928  0.84837  1.0000
  H   H216      1.0  0.03341  0.26715  0.58074  1.0000
  H   H217      1.0  0.06511  0.43299  0.78102  1.0000
  H   H218      1.0  0.05731  0.23908  0.54687  1.0000
  H   H219      1.0  0.10629  0.33453  0.95702  1.0000
  H   H220      1.0  0.19756  0.03279  0.54768  1.0000
  H   H221      1.0  0.16855  0.14482  0.87575  1.0000
  H   H222      1.0  0.06308  0.21378  0.60344  1.0000
  C   C123      1.0  0.02213  0.27550  0.88443  1.0000
  C   C124      1.0  0.21927  0.02330  0.95088  1.0000
  C   C125      1.0  0.05074  0.47284  0.74862  1.0000
  C   C126      1.0  0.00982  0.21697  0.96604  1.0000
  H   H223      1.0  0.11292  0.44885  0.84966  1.0000
  C   C127      1.0  0.18486  0.17368  0.96772  1.0000
  C   C128      1.0  0.02743  0.42175  0.82528  1.0000
  C   C129      1.0  0.21274  0.22214  0.96686  1.0000
  C   C130      1.0  0.21016  0.19643  0.96400  1.0000
  C   C131      1.0  0.24194  0.02909  0.53157  1.0000
  H   H224      1.0  0.24163  0.38898  0.62712  1.0000
  H   H225      1.0  0.03073  0.48866  0.56029  1.0000
  H   H226      1.0  0.01233  0.18341  0.56683  1.0000
  H   H227      1.0  0.19284  0.24505  0.97568  1.0000
  C   C132      1.0  0.00893  0.21015  0.47854  1.0000
  C   C133      1.0  0.23721  0.05413  0.58693  1.0000
  H   H228      1.0  0.01618  0.42146  0.72907  1.0000
  H   H229      1.0  0.24443  0.02512  0.50979  1.0000
  N   N9        1.0  0.23915  0.05402  0.53393  1.0000
  H   H230      1.0  0.04128  0.50306  0.59440  1.0000
  C   C134      1.0  0.16261  0.17668  0.97460  1.0000
  H   H231      1.0  0.24786  0.06751  0.60454  1.0000
  C   C135      1.0  0.25128  0.06875  0.56031  1.0000
  C   C136      1.0  0.25445  0.07289  0.51061  1.0000
  H   H232      1.0  0.19099  0.23845  0.48243  1.0000
  H   H233      1.0  0.25543  0.38685  0.72648  1.0000
  H   H234      1.0  0.25509  0.09251  0.51296  1.0000
  N   N10       1.0  0.25488  0.39091  0.68221  1.0000
  C   C137      1.0  0.17208  0.00519  0.95984  1.0000
  Fe  Fe21      1.0  0.14122  0.85764  0.03053  1.0000
  S   S43       1.0  0.12570  0.88587  0.01949  1.0000
  S   S44       1.0  0.14672  0.85572  0.07761  1.0000
  H   H235      1.0  0.15347  0.86458  0.13590  1.0000
  H   H236      1.0  0.02213  0.76262  0.39811  1.0000
  S   S45       1.0  0.14527  0.81628  0.44165  1.0000
  Fe  Fe22      1.0  0.13857  0.84384  0.47048  1.0000
  Fe  Fe23      1.0  0.09776  0.85377  0.98970  1.0000
  H   H237      1.0  0.22037  0.85131  0.18377  1.0000
  H   H238      1.0  0.09782  0.83165  0.41519  1.0000
  S   S46       1.0  0.17316  0.87602  0.99797  1.0000
  S   S47       1.0  0.11218  0.82504  0.00200  1.0000
  Fe  Fe24      1.0  0.22892  0.81297  0.26399  1.0000
  S   S48       1.0  0.20273  0.83018  0.25123  1.0000
  Fe  Fe25      1.0  0.17995  0.75517  0.26609  1.0000
  S   S49       1.0  0.15086  0.76913  0.25385  1.0000
  S   S50       1.0  0.17135  0.71139  0.26873  1.0000
  Fe  Fe26      1.0  0.18153  0.79552  0.22205  1.0000
  S   S51       1.0  0.17389  0.79619  0.17527  1.0000
  Fe  Fe27      1.0  0.17445  0.80303  0.28393  1.0000
  S   S52       1.0  0.15939  0.82467  0.31179  1.0000
  S   S53       1.0  0.20959  0.77982  0.23290  1.0000
  S   S54       1.0  0.20163  0.78754  0.29807  1.0000
  H   H239      1.0  0.08171  0.77973  0.05506  1.0000
  S   S55       1.0  0.07359  0.53642  0.29530  1.0000
  H   H240      1.0  0.08054  0.79043  0.44954  1.0000
  H   H241      1.0  0.02089  0.81397  0.41485  1.0000
  S   S56       1.0  0.08963  0.53999  0.36095  1.0000
  H   H242      1.0  0.24861  0.78516  0.15801  1.0000
  Fe  Fe28      1.0  0.07461  0.56060  0.33206  1.0000
  S   S57       1.0  0.08451  0.60474  0.33171  1.0000
  H   H243      1.0  0.24660  0.89623  0.31668  1.0000
  S   S58       1.0  0.03148  0.53224  0.34379  1.0000
  H   H244      1.0  0.11612  0.61697  0.23446  1.0000
  C   C138      1.0  0.23063  0.88172  0.33057  1.0000
  C   C139      1.0  0.06392  0.78196  0.05063  1.0000
  C   C140      1.0  0.21812  0.99555  0.46423  1.0000
  H   H245      1.0  0.01130  0.58316  0.19314  1.0000
  H   H246      1.0  0.21121  0.80339  0.35632  1.0000
  H   H247      1.0  0.10427  0.83552  0.36627  1.0000
  C   C141      1.0  0.24163  0.86773  0.18443  1.0000
  C   C142      1.0  0.14716  0.68215  0.28680  1.0000
  C   C143      1.0  0.12676  0.68196  0.30257  1.0000
  C   C144      1.0  0.10799  0.65817  0.31629  1.0000
  C   C145      1.0  0.10929  0.63425  0.31448  1.0000
  C   C146      1.0  0.12964  0.63441  0.29866  1.0000
  C   C147      1.0  0.14837  0.65818  0.28488  1.0000
  H   H248      1.0  0.12551  0.70017  0.30427  1.0000
  H   H249      1.0  0.09238  0.65835  0.32848  1.0000
  H   H250      1.0  0.13107  0.61629  0.29712  1.0000
  H   H251      1.0  0.16408  0.65807  0.27280  1.0000
  C   C148      1.0  0.23235  0.85580  0.33426  1.0000
  H   H252      1.0  0.06935  0.82195  0.43634  1.0000
  H   H253      1.0  0.05024  0.78290  0.35781  1.0000
  H   H254      1.0  0.03603  0.56767  0.21594  1.0000
  C   C149      1.0  0.03218  0.78290  0.40788  1.0000
  H   H255      1.0  0.21251  0.83997  0.34158  1.0000
  H   H256      1.0  0.09560  0.79289  0.39963  1.0000
  C   C150      1.0  0.01447  0.79564  0.40234  1.0000
  H   H257      1.0  0.08913  0.82219  0.33380  1.0000
  C   C151      1.0  0.15122  0.82008  0.40582  1.0000
  C   C152      1.0  0.15260  0.79957  0.39135  1.0000
  C   C153      1.0  0.15593  0.80104  0.36266  1.0000
  C   C154      1.0  0.15774  0.82302  0.34811  1.0000
  C   C155      1.0  0.15700  0.84383  0.36264  1.0000
  C   C156      1.0  0.15372  0.84239  0.39134  1.0000
  H   H258      1.0  0.15067  0.78222  0.40238  1.0000
  H   H259      1.0  0.15636  0.78483  0.35176  1.0000
  H   H260      1.0  0.15845  0.86096  0.35156  1.0000
  H   H261      1.0  0.15280  0.85837  0.40221  1.0000
  C   C157      1.0  0.15484  0.83908  0.10427  1.0000
  C   C158      1.0  0.15897  0.81730  0.09928  1.0000
  C   C159      1.0  0.16474  0.80459  0.12118  1.0000
  C   C160      1.0  0.16652  0.81331  0.14851  1.0000
  C   C161      1.0  0.16248  0.83516  0.15349  1.0000
  C   C162      1.0  0.15664  0.84783  0.13159  1.0000
  H   H262      1.0  0.15762  0.81015  0.07854  1.0000
  H   H263      1.0  0.16775  0.78772  0.11691  1.0000
  H   H264      1.0  0.16369  0.84221  0.17425  1.0000
  H   H265      1.0  0.06356  0.56489  0.24890  1.0000
  N   N11       1.0  0.05967  0.60060  0.24421  1.0000
  C   C163      1.0  0.07603  0.58717  0.25062  1.0000
  C   C164      1.0  0.03979  0.59362  0.26725  1.0000
  C   C165      1.0  0.07861  0.63073  0.24301  1.0000
  C   C166      1.0  0.04616  0.59008  0.21693  1.0000
  C   C167      1.0  0.10087  0.59532  0.23237  1.0000
  H   H266      1.0  0.02916  0.82203  0.05643  1.0000
  C   C168      1.0  0.06672  0.64923  0.24852  1.0000
  C   C169      1.0  0.02869  0.80926  0.07399  1.0000
  H   H267      1.0  0.08331  0.59121  0.27219  1.0000
  H   H268      1.0  0.08626  0.76430  0.43778  1.0000
  C   C170      1.0  0.05563  0.79851  0.10579  1.0000
  H   H269      1.0  0.05062  0.60138  0.28702  1.0000
  H   H270      1.0  0.09485  0.63685  0.25851  1.0000
  H   H271      1.0  0.08902  0.63679  0.22283  1.0000
  H   H272      1.0  0.06136  0.59660  0.20032  1.0000
  H   H273      1.0  0.02772  0.60374  0.26500  1.0000
  H   H274      1.0  0.11072  0.58376  0.23916  1.0000
  H   H275      1.0  0.09546  0.59034  0.21053  1.0000
  H   H276      1.0  0.23098  0.82744  0.15256  1.0000
  C   C171      1.0  0.01658  0.50718  0.23193  1.0000
  N   N12       1.0  0.05666  0.81519  0.08127  1.0000
  C   C172      1.0  0.08313  0.80344  0.11622  1.0000
  H   H277      1.0  0.01331  0.79987  0.38039  1.0000
  H   H278      1.0  0.04926  0.64463  0.23545  1.0000
  H   H279      1.0  0.08237  0.67044  0.24425  1.0000
  C   C173      1.0  0.24178  0.81938  0.16494  1.0000
  H   H280      1.0  0.22527  0.78687  0.13529  1.0000
  H   H281      1.0  0.24777  0.87633  0.16357  1.0000
  H   H282      1.0  0.09482  0.82346  0.12607  1.0000
  C   C174      1.0  0.19308  0.97388  0.47230  1.0000
  C   C175      1.0  0.01958  0.56335  0.27124  1.0000
  H   H283      1.0  0.05253  0.81451  0.36165  1.0000
  H   H284      1.0  0.07541  0.86149  0.04840  1.0000
  S   S59       1.0  0.12898  0.87578  0.45734  1.0000
  H   H285      1.0  0.05648  0.84457  0.39057  1.0000
  H   H286      1.0  0.05254  0.75732  0.44144  1.0000
  H   H287      1.0  0.06126  0.64845  0.27046  1.0000
  H   H288      1.0  0.08862  0.88576  0.07530  1.0000
  H   H289      1.0  0.04325  0.77662  0.10208  1.0000
  C   C176      1.0  0.25496  0.83201  0.35211  1.0000
  H   H290      1.0  0.03082  0.77916  0.43029  1.0000
  H   H291      1.0  0.01963  0.81435  0.09151  1.0000
  S   S60       1.0  0.05316  0.84189  0.99335  1.0000
  H   H292      1.0  0.21836  0.87010  0.39389  1.0000
  H   H293      1.0  0.09277  0.86358  0.39229  1.0000
  H   H294      1.0  0.09412  0.85070  0.09290  1.0000
  H   H295      1.0  0.04632  0.76570  0.06117  1.0000
  H   H296      1.0  0.23230  0.78929  0.36168  1.0000
  H   H297      1.0  0.20976  0.83604  0.38561  1.0000
  C   C177      1.0  0.07412  0.84943  0.40341  1.0000
  Fe  Fe29      1.0  0.08578  0.51364  0.32472  1.0000
  H   H298      1.0  0.24234  0.88360  0.19802  1.0000
  H   H299      1.0  0.06581  0.81913  0.03802  1.0000
  H   H300      1.0  0.23401  0.84896  0.31335  1.0000
  C   C178      1.0  0.22542  0.85519  0.39434  1.0000
  C   C179      1.0  0.07297  0.77314  0.43528  1.0000
  H   H301      1.0  0.06481  0.76319  0.39247  1.0000
  C   C180      1.0  0.07396  0.78186  0.40511  1.0000
  H   H302      1.0  0.23557  0.99302  0.46458  1.0000
  C   C181      1.0  0.07598  0.82497  0.41452  1.0000
  C   C182      1.0  0.09034  0.81672  0.35542  1.0000
  H   H303      1.0  0.07316  0.86115  0.42105  1.0000
  C   C183      1.0  0.07257  0.84444  0.08986  1.0000
  H   H304      1.0  0.09889  0.80306  0.35488  1.0000
  H   H305      1.0  0.06004  0.77814  0.02831  1.0000
  N   N13       1.0  0.06109  0.79882  0.39890  1.0000
  C   C184      1.0  0.06209  0.80273  0.36823  1.0000
  C   C185      1.0  0.24466  0.79939  0.14605  1.0000
  Fe  Fe30      1.0  0.15590  0.90231  0.98530  1.0000
  H   H306      1.0  0.03637  0.61831  0.19614  1.0000
  H   H307      1.0  0.01358  0.59987  0.22388  1.0000
  H   H308      1.0  0.23037  0.80988  0.38780  1.0000
  C   C186      1.0  0.02599  0.59875  0.20727  1.0000
  H   H309      1.0  0.09246  0.82323  0.05922  1.0000
  H   H310      1.0  0.00934  0.52492  0.42671  1.0000
  C   C187      1.0  0.07029  0.81113  0.05687  1.0000
  H   H311      1.0  0.22774  0.80730  0.18163  1.0000
  S   S61       1.0  0.12107  0.50605  0.31801  1.0000
  H   H312      1.0  0.06547  0.84756  0.11002  1.0000
  H   H313      1.0  0.05309  0.86559  0.07132  1.0000
  H   H314      1.0  0.08000  0.78815  0.13210  1.0000
  H   H315      1.0  0.09534  0.80163  0.09972  1.0000
  H   H316      1.0  0.21118  0.87648  0.32072  1.0000
  H   H317      1.0  0.23149  0.89159  0.35030  1.0000
  C   C188      1.0  0.07221  0.86526  0.06988  1.0000
  H   H318      1.0  0.02954  0.55196  0.27806  1.0000
  C   C189      1.0  0.23061  0.80757  0.36527  1.0000
  H   H319      1.0  0.04552  0.80227  0.12330  1.0000
  H   H320      1.0  0.22677  0.85118  0.41642  1.0000
  Fe  Fe31      1.0  0.04627  0.50997  0.37012  1.0000
  H   H321      1.0  0.01423  0.77558  0.04496  1.0000
  H   H322      1.0  0.24872  0.84425  0.21420  1.0000
  H   H323      1.0  0.00755  0.55408  0.25253  1.0000
  C   C190      1.0  0.25360  0.86707  0.38115  1.0000
  C   C191      1.0  0.17349  0.00251  0.46357  1.0000
  C   C192      1.0  0.17069  0.97744  0.47159  1.0000
  C   C193      1.0  0.01540  0.51042  0.20341  1.0000
  C   C194      1.0  0.00858  0.78030  0.06506  1.0000
  H   H324      1.0  0.03376  0.52007  0.19160  1.0000
  H   H325      1.0  0.21271  0.99378  0.04491  1.0000
  N   N14       1.0  0.25492  0.85839  0.35226  1.0000
  Fe  Fe32      1.0  0.03145  0.50702  0.30865  1.0000
  C   C195      1.0  0.02317  0.82445  0.47412  1.0000
  H   H326      1.0  0.03572  0.51407  0.24189  1.0000
  H   H327      1.0  0.23756  0.00352  0.01889  1.0000
  C   C196      1.0  0.01884  0.79822  0.47700  1.0000
  Fe  Fe33      1.0  0.13326  0.85233  0.53262  1.0000
  S   S62       1.0  0.12312  0.88515  0.52316  1.0000
  S   S63       1.0  0.12906  0.83400  0.57626  1.0000
  H   H328      1.0  0.11437  0.80157  0.62529  1.0000
  H   H329      1.0  0.09189  0.59585  0.55414  1.0000
  S   S64       1.0  0.15686  0.82342  0.94013  1.0000
  Fe  Fe34      1.0  0.15634  0.90067  0.49163  1.0000
  H   H330      1.0  0.11013  0.61945  0.88661  1.0000
  H   H331      1.0  0.25276  0.85087  0.68841  1.0000
  H   H332      1.0  0.03558  0.52293  0.73712  1.0000
  S   S65       1.0  0.16810  0.86937  0.50308  1.0000
  S   S66       1.0  0.10429  0.82433  0.50055  1.0000
  Fe  Fe35      1.0  0.23243  0.80576  0.76350  1.0000
  S   S67       1.0  0.21896  0.83579  0.75477  1.0000
  Fe  Fe36      1.0  0.17480  0.75785  0.75860  1.0000
  S   S68       1.0  0.15791  0.78522  0.74907  1.0000
  S   S69       1.0  0.14516  0.71246  0.75464  1.0000
  Fe  Fe37      1.0  0.19311  0.80835  0.72089  1.0000
  S   S70       1.0  0.19780  0.83000  0.67922  1.0000
  Fe  Fe38      1.0  0.18461  0.81083  0.78339  1.0000
  S   S71       1.0  0.16900  0.83304  0.80981  1.0000
  S   S72       1.0  0.20843  0.77940  0.72807  1.0000
  S   S73       1.0  0.19965  0.78222  0.79469  1.0000
  H   H333      1.0  0.17455  0.54934  0.84263  1.0000
  S   S74       1.0  0.07045  0.53161  0.79923  1.0000
  H   H334      1.0  0.15949  0.56458  0.86332  1.0000
  H   H335      1.0  0.07434  0.53776  0.57238  1.0000
  S   S75       1.0  0.07883  0.54186  0.86557  1.0000
  C   C197      1.0  0.21663  0.99812  0.95805  1.0000
  Fe  Fe39      1.0  0.07705  0.56477  0.82870  1.0000
  S   S76       1.0  0.11164  0.60845  0.82997  1.0000
  H   H336      1.0  0.01851  0.59099  0.86114  1.0000
  S   S77       1.0  0.03308  0.55016  0.83474  1.0000
  H   H337      1.0  0.09793  0.64775  0.85882  1.0000
  H   H338      1.0  0.00923  0.54904  0.96439  1.0000
  C   C198      1.0  0.09166  0.65272  0.87856  1.0000
  Fe  Fe40      1.0  0.06893  0.50772  0.83656  1.0000
  H   H339      1.0  0.11264  0.68346  0.91070  1.0000
  S   S78       1.0  0.12702  0.87260  0.95443  1.0000
  H   H340      1.0  0.13426  0.67517  0.89073  1.0000
  H   H341      1.0  0.07712  0.65944  0.87287  1.0000
  C   C199      1.0  0.13590  0.68404  0.77640  1.0000
  C   C200      1.0  0.14947  0.68566  0.80080  1.0000
  C   C201      1.0  0.14173  0.66232  0.81688  1.0000
  C   C202      1.0  0.12018  0.63714  0.80895  1.0000
  C   C203      1.0  0.10646  0.63552  0.78472  1.0000
  C   C204      1.0  0.11438  0.65881  0.76852  1.0000
  H   H342      1.0  0.16608  0.70487  0.80710  1.0000
  H   H343      1.0  0.15254  0.66384  0.83557  1.0000
  H   H344      1.0  0.08986  0.61636  0.77832  1.0000
  H   H345      1.0  0.10376  0.65732  0.74968  1.0000
  C   C205      1.0  0.03544  0.61045  0.86839  1.0000
  H   H346      1.0  0.05143  0.58325  0.54022  1.0000
  H   H347      1.0  0.07550  0.57753  0.91272  1.0000
  H   H348      1.0  0.02727  0.61871  0.88368  1.0000
  C   C206      1.0  0.05783  0.55227  0.50226  1.0000
  H   H349      1.0  0.24507  0.92890  0.86941  1.0000
  C   C207      1.0  0.00914  0.55730  0.53656  1.0000
  H   H350      1.0  0.04220  0.80520  0.94658  1.0000
  C   C208      1.0  0.11643  0.67788  0.89015  1.0000
  C   C209      1.0  0.15849  0.82508  0.90373  1.0000
  C   C210      1.0  0.17024  0.81205  0.88981  1.0000
  C   C211      1.0  0.17311  0.81383  0.86106  1.0000
  C   C212      1.0  0.16421  0.82869  0.84585  1.0000
  C   C213      1.0  0.15211  0.84143  0.85971  1.0000
  C   C214      1.0  0.14923  0.83964  0.88848  1.0000
  H   H351      1.0  0.17745  0.80073  0.90138  1.0000
  H   H352      1.0  0.18249  0.80396  0.85072  1.0000
  H   H353      1.0  0.14506  0.85289  0.84816  1.0000
  H   H354      1.0  0.13996  0.84958  0.89887  1.0000
  C   C215      1.0  0.14886  0.83284  0.60426  1.0000
  C   C216      1.0  0.17674  0.84961  0.60577  1.0000
  C   C217      1.0  0.19123  0.84830  0.62871  1.0000
  C   C218      1.0  0.17824  0.83010  0.65049  1.0000
  C   C219      1.0  0.15040  0.81323  0.64896  1.0000
  C   C220      1.0  0.13588  0.81472  0.62613  1.0000
  H   H355      1.0  0.18712  0.86369  0.58927  1.0000
  H   H356      1.0  0.21272  0.86149  0.62948  1.0000
  H   H357      1.0  0.14000  0.79898  0.66530  1.0000
  H   H358      1.0  0.03557  0.52095  0.68618  1.0000
  H   H359      1.0  0.04706  0.61510  0.96001  1.0000
  H   H360      1.0  0.03482  0.57287  0.57185  1.0000
  N   N15       1.0  0.15025  0.86400  0.72336  1.0000
  C   C221      1.0  0.17700  0.88416  0.73566  1.0000
  C   C222      1.0  0.12923  0.86825  0.73726  1.0000
  C   C223      1.0  0.15126  0.87032  0.69316  1.0000
  C   C224      1.0  0.14611  0.83605  0.72787  1.0000
  C   C225      1.0  0.20212  0.88616  0.72203  1.0000
  C   C226      1.0  0.12701  0.86380  0.76862  1.0000
  C   C227      1.0  0.12513  0.85439  0.67670  1.0000
  C   C228      1.0  0.11699  0.81206  0.72627  1.0000
  H   H361      1.0  0.17962  0.90484  0.73535  1.0000
  H   H362      1.0  0.17814  0.87936  0.75762  1.0000
  H   H363      1.0  0.10893  0.85518  0.72883  1.0000
  H   H364      1.0  0.13312  0.88912  0.73328  1.0000
  H   H365      1.0  0.15810  0.89213  0.69004  1.0000
  H   H366      1.0  0.16617  0.86652  0.68249  1.0000
  H   H367      1.0  0.15829  0.83193  0.71307  1.0000
  H   H368      1.0  0.15382  0.83468  0.74845  1.0000
  H   H369      1.0  0.20082  0.86626  0.72067  1.0000
  H   H370      1.0  0.20582  0.89558  0.70139  1.0000
  H   H371      1.0  0.22002  0.89917  0.73471  1.0000
  H   H372      1.0  0.10868  0.86364  0.77610  1.0000
  H   H373      1.0  0.12536  0.84431  0.77469  1.0000
  H   H374      1.0  0.14425  0.88041  0.77948  1.0000
  H   H375      1.0  0.10871  0.85760  0.68403  1.0000
  H   H376      1.0  0.11863  0.83265  0.67586  1.0000
  H   H377      1.0  0.12906  0.86156  0.65507  1.0000
  H   H378      1.0  0.11674  0.79590  0.71348  1.0000
  H   H379      1.0  0.10194  0.81648  0.71736  1.0000
  H   H380      1.0  0.11006  0.80299  0.74692  1.0000
  N   N16       1.0  0.16230  0.57829  0.80386  1.0000
  C   C229      1.0  0.17383  0.60296  0.82197  1.0000
  C   C230      1.0  0.14329  0.55464  0.82139  1.0000
  C   C231      1.0  0.14667  0.58231  0.78119  1.0000
  C   C232      1.0  0.18514  0.57535  0.79247  1.0000
  C   C233      1.0  0.19038  0.63048  0.80748  1.0000
  C   C234      1.0  0.02117  0.52076  0.57029  1.0000
  C   C235      1.0  0.13316  0.55957  0.76000  1.0000
  C   C236      1.0  0.17852  0.54676  0.78330  1.0000
  H   H381      1.0  0.15766  0.60389  0.83357  1.0000
  H   H382      1.0  0.18724  0.60201  0.83789  1.0000
  H   H383      1.0  0.13345  0.53555  0.80985  1.0000
  S   S79       1.0  0.19157  0.94391  0.48532  1.0000
  H   H384      1.0  0.13078  0.58580  0.78996  1.0000
  H   H385      1.0  0.15976  0.60057  0.76882  1.0000
  H   H386      1.0  0.19457  0.58929  0.77477  1.0000
  H   H387      1.0  0.20127  0.58151  0.80814  1.0000
  H   H388      1.0  0.20727  0.88353  0.85806  1.0000
  Fe  Fe41      1.0  0.14305  0.84580  0.96854  1.0000
  H   H389      1.0  0.20134  0.64628  0.82314  1.0000
  H   H390      1.0  0.14136  0.52947  0.85594  1.0000
  H   H391      1.0  0.12072  0.56434  0.74608  1.0000
  H   H392      1.0  0.11943  0.53977  0.76937  1.0000
  H   H393      1.0  0.14825  0.55829  0.74693  1.0000
  H   H394      1.0  0.19119  0.54860  0.76535  1.0000
  H   H395      1.0  0.15759  0.53324  0.77697  1.0000
  H   H396      1.0  0.18409  0.53664  0.79944  1.0000
  N   N17       1.0  0.21950  0.92029  0.90483  1.0000
  C   C237      1.0  0.19731  0.91943  0.88735  1.0000
  H   H397      1.0  0.04209  0.55061  0.48783  1.0000
  C   C238      1.0  0.09406  0.57782  0.55729  1.0000
  C   C239      1.0  0.20657  0.90004  0.92773  1.0000
  C   C240      1.0  0.17954  0.92929  0.90112  1.0000
  H   H398      1.0  0.06692  0.60084  0.86299  1.0000
  H   H399      1.0  0.21329  0.87289  0.95356  1.0000
  C   C241      1.0  0.09128  0.59600  0.92268  1.0000
  H   H400      1.0  0.20569  0.93174  0.86838  1.0000
  H   H401      1.0  0.18333  0.89854  0.88030  1.0000
  C   C242      1.0  0.10014  0.62155  0.90521  1.0000
  H   H402      1.0  0.11620  0.63816  0.91737  1.0000
  H   H403      1.0  0.12166  0.69527  0.87623  1.0000
  H   H404      1.0  0.22537  0.95157  0.93352  1.0000
  H   H405      1.0  0.19588  0.90658  0.94197  1.0000
  H   H406      1.0  0.19020  0.88048  0.92002  1.0000
  H   H407      1.0  0.16892  0.91707  0.91935  1.0000
  H   H408      1.0  0.19102  0.95089  0.90687  1.0000
  H   H409      1.0  0.16383  0.92717  0.88640  1.0000
  H   H410      1.0  0.23799  0.96371  0.90024  1.0000
  Fe  Fe42      1.0  0.09634  0.85781  0.48945  1.0000
  H   H411      1.0  0.15130  0.96106  0.47781  1.0000
  C   C243      1.0  0.22244  0.88562  0.87340  1.0000
  N   N18       1.0  0.04310  0.54331  0.55366  1.0000
  C   C244      1.0  0.04459  0.61076  0.93770  1.0000
  H   H412      1.0  0.23406  0.99561  0.95742  1.0000
  C   C245      1.0  0.15577  0.54952  0.84716  1.0000
  H   H413      1.0  0.05922  0.64810  0.91599  1.0000
  C   C246      1.0  0.02336  0.80294  0.95366  1.0000
  H   H414      1.0  0.11099  0.58393  0.57188  1.0000
  H   H415      1.0  0.02468  0.51687  0.51923  1.0000
  C   C247      1.0  0.03590  0.56528  0.55115  1.0000
  H   H416      1.0  0.20067  0.99494  0.52794  1.0000
  C   C248      1.0  0.23584  0.94854  0.91598  1.0000
  H   H417      1.0  0.23180  0.90755  0.96416  1.0000
  C   C249      1.0  0.06749  0.63483  0.92201  1.0000
  C   C250      1.0  0.23662  0.91387  0.88641  1.0000
  H   H418      1.0  0.04710  0.58639  0.89208  1.0000
  H   H419      1.0  0.08376  0.64671  0.93700  1.0000
  H   H420      1.0  0.21316  0.86940  0.88901  1.0000
  H   H421      1.0  0.10873  0.59285  0.92548  1.0000
  H   H422      1.0  0.12636  0.55736  0.82846  1.0000
  Fe  Fe43      1.0  0.02647  0.51533  0.80785  1.0000
  N   N19       1.0  0.07873  0.62824  0.89714  1.0000
  H   H423      1.0  0.23465  0.80534  0.67111  1.0000
  C   C251      1.0  0.01723  0.50987  0.72624  1.0000
  Fe  Fe44      1.0  0.03446  0.52558  0.87059  1.0000
  C   C252      1.0  0.19168  0.97627  0.96610  1.0000
  C   C253      1.0  0.06886  0.55375  0.56968  1.0000
  C   C254      1.0  0.01715  0.50872  0.69736  1.0000
  H   H424      1.0  0.17713  0.63646  0.79653  1.0000
  S   S80       1.0  0.02000  0.53210  0.91270  1.0000
  H   H425      1.0  0.03527  0.79519  0.48313  1.0000
  C   C255      1.0  0.04506  0.53208  0.52635  1.0000
  H   H426      1.0  0.07052  0.54654  0.49006  1.0000
  H   H427      1.0  0.07071  0.57359  0.50803  1.0000
  H   H428      1.0  0.20544  0.63071  0.79318  1.0000
  S   S81       1.0  0.05529  0.85347  0.47926  1.0000
  C   C256      1.0  0.02319  0.81822  0.97591  1.0000
  H   H429      1.0  0.04296  0.62406  0.85029  1.0000
  C   C257      1.0  0.16935  0.97990  0.96673  1.0000
  H   H430      1.0  0.10022  0.57215  0.53807  1.0000
  C   C258      1.0  0.22492  0.89406  0.94605  1.0000
  H   H431      1.0  0.22426  0.98627  0.54110  1.0000
  H   H432      1.0  0.01746  0.52861  0.58971  1.0000
  C   C259      1.0  0.05749  0.60548  0.88043  1.0000
  H   H433      1.0  0.02481  0.60857  0.93227  1.0000
  H   H434      1.0  0.15002  0.96335  0.97283  1.0000
  H   H435      1.0  0.08499  0.59822  0.94350  1.0000
  S   S82       1.0  0.19003  0.94540  0.97592  1.0000
  H   H436      1.0  0.23742  0.88239  0.86221  1.0000
  C   C260      1.0  0.21829  0.00202  0.54175  1.0000
  H   H437      1.0  0.06624  0.55963  0.59073  1.0000
  H   H438      1.0  0.04359  0.59110  0.93514  1.0000
  H   H439      1.0  0.24232  0.89509  0.93541  1.0000
  H   H440      1.0  0.05621  0.52086  0.52850  1.0000
  H   H441      1.0  0.00746  0.54760  0.51652  1.0000
  H   H442      1.0  0.21196  0.00277  0.56291  1.0000
  H   H443      1.0  0.00765  0.57567  0.53265  1.0000
  H   H444      1.0  0.25443  0.91567  0.89716  1.0000
  H   H445      1.0  0.34292  0.25086  0.02929  1.0000
  S   S83       1.0  0.47186  0.08422  0.09788  1.0000
  S   S84       1.0  0.48832  0.02865  0.09618  1.0000
  H   H446      1.0  0.39362  0.30968  0.09472  1.0000
  S   S85       1.0  0.45186  0.48117  0.34201  1.0000
  H   H447      1.0  0.42196  0.19292  0.45781  1.0000
  H   H448      1.0  0.31917  0.49313  0.29957  1.0000
  S   S86       1.0  0.48191  0.43576  0.09173  1.0000
  Fe  Fe45      1.0  0.27532  0.14115  0.39866  1.0000
  S   S87       1.0  0.29167  0.15803  0.35526  1.0000
  H   H449      1.0  0.44947  0.01272  0.14655  1.0000
  H   H450      1.0  0.36204  0.49683  0.31547  1.0000
  S   S88       1.0  0.27820  0.11087  0.42662  1.0000
  S   S89       1.0  0.29065  0.17308  0.43128  1.0000
  Fe  Fe46      1.0  0.41580  0.17824  0.16507  1.0000
  S   S90       1.0  0.37304  0.14735  0.17489  1.0000
  S   S91       1.0  0.45056  0.16932  0.16230  1.0000
  Fe  Fe47      1.0  0.40425  0.22543  0.16848  1.0000
  S   S92       1.0  0.36078  0.19708  0.17922  1.0000
  S   S93       1.0  0.41410  0.26963  0.16600  1.0000
  Fe  Fe48      1.0  0.37499  0.17592  0.20800  1.0000
  S   S94       1.0  0.35918  0.15651  0.25073  1.0000
  Fe  Fe49      1.0  0.36214  0.17102  0.14555  1.0000
  S   S95       1.0  0.32538  0.15269  0.11751  1.0000
  S   S96       1.0  0.41851  0.20587  0.19959  1.0000
  S   S97       1.0  0.40475  0.20021  0.13339  1.0000
  H   H451      1.0  0.33528  0.20045  0.39026  1.0000
  C   C261      1.0  0.31094  0.15742  0.32671  1.0000
  C   C262      1.0  0.31754  0.17655  0.30551  1.0000
  C   C263      1.0  0.33276  0.17708  0.28251  1.0000
  C   C264      1.0  0.34162  0.15834  0.28025  1.0000
  C   C265      1.0  0.33514  0.13929  0.30152  1.0000
  C   C266      1.0  0.31993  0.13878  0.32452  1.0000
  H   H452      1.0  0.31081  0.19114  0.30689  1.0000
  H   H453      1.0  0.33744  0.19186  0.26643  1.0000
  H   H454      1.0  0.34170  0.12457  0.30005  1.0000
  H   H455      1.0  0.31491  0.12377  0.34039  1.0000
  C   C267      1.0  0.32590  0.15396  0.02313  1.0000
  C   C268      1.0  0.34823  0.15657  0.03769  1.0000
  C   C269      1.0  0.34867  0.15686  0.06658  1.0000
  C   C270      1.0  0.32661  0.15429  0.08120  1.0000
  C   C271      1.0  0.30432  0.15177  0.06665  1.0000
  C   C272      1.0  0.30405  0.15187  0.03778  1.0000
  H   H456      1.0  0.36526  0.15825  0.02653  1.0000
  H   H457      1.0  0.36587  0.15857  0.07750  1.0000
  H   H458      1.0  0.28717  0.14981  0.07777  1.0000
  H   H459      1.0  0.28690  0.15025  0.02684  1.0000
  C   C273      1.0  0.47690  0.34705  0.12113  1.0000
  C   C274      1.0  0.45765  0.34732  0.13841  1.0000
  C   C275      1.0  0.43887  0.32352  0.15211  1.0000
  C   C276      1.0  0.43901  0.29911  0.14880  1.0000
  C   C277      1.0  0.45821  0.29880  0.13145  1.0000
  C   C278      1.0  0.47700  0.32261  0.11774  1.0000
  H   H460      1.0  0.45725  0.36587  0.14126  1.0000
  H   H461      1.0  0.42408  0.32401  0.16539  1.0000
  H   H462      1.0  0.45865  0.28026  0.12866  1.0000
  C   C279      1.0  0.26651  0.38443  0.35078  1.0000
  C   C280      1.0  0.34876  0.45474  0.30979  1.0000
  C   C281      1.0  0.32723  0.42990  0.30100  1.0000
  C   C282      1.0  0.30301  0.42783  0.29152  1.0000
  C   C283      1.0  0.29972  0.45050  0.29130  1.0000
  C   C284      1.0  0.32139  0.47540  0.29969  1.0000
  C   C285      1.0  0.34579  0.47758  0.30872  1.0000
  H   H463      1.0  0.40344  0.21219  0.07500  1.0000
  H   H464      1.0  0.28671  0.40861  0.28484  1.0000
  H   H465      1.0  0.35978  0.19090  0.35586  1.0000
  C   C286      1.0  0.35460  0.21662  0.39837  1.0000
  S   S98       1.0  0.37803  0.45567  0.32360  1.0000
  H   H466      1.0  0.39367  0.43964  0.05465  1.0000
  H   H467      1.0  0.43822  0.09291  0.18661  1.0000
  H   H468      1.0  0.33521  0.16244  0.38710  1.0000
  H   H469      1.0  0.30140  0.09796  0.04171  1.0000
  H   H470      1.0  0.49541  0.16034  0.16111  1.0000
  H   H471      1.0  0.30865  0.09426  0.99788  1.0000
  H   H472      1.0  0.28758  0.44632  0.37943  1.0000
  H   H473      1.0  0.32501  0.21525  0.02409  1.0000
  H   H474      1.0  0.38996  0.28262  0.11592  1.0000
  C   C287      1.0  0.46643  0.10809  0.11602  1.0000
  C   C288      1.0  0.48563  0.12715  0.13368  1.0000
  C   C289      1.0  0.48029  0.14553  0.14770  1.0000
  C   C290      1.0  0.45579  0.14525  0.14424  1.0000
  C   C291      1.0  0.43652  0.12608  0.12667  1.0000
  C   C292      1.0  0.44186  0.10768  0.11263  1.0000
  H   H475      1.0  0.32377  0.22839  0.05678  1.0000
  H   H476      1.0  0.29203  0.38735  0.39719  1.0000
  H   H477      1.0  0.41761  0.12558  0.12377  1.0000
  H   H478      1.0  0.42685  0.09306  0.09903  1.0000
  H   H479      1.0  0.44287  0.07124  0.22371  1.0000
  C   C293      1.0  0.44374  0.06833  0.02485  1.0000
  H   H480      1.0  0.40260  0.21917  0.03903  1.0000
  H   H481      1.0  0.38380  0.24070  0.11439  1.0000
  H   H482      1.0  0.33786  0.21273  0.12794  1.0000
  H   H483      1.0  0.41783  0.29911  0.09206  1.0000
  C   C294      1.0  0.46138  0.03313  0.18554  1.0000
  C   C295      1.0  0.41232  0.20118  0.44407  1.0000
  H   H484      1.0  0.47969  0.43563  0.29187  1.0000
  C   C296      1.0  0.48908  0.08242  0.18850  1.0000
  C   C297      1.0  0.43344  0.02473  0.04411  1.0000
  H   H485      1.0  0.35269  0.12514  0.41383  1.0000
  H   H486      1.0  0.27697  0.09499  0.08451  1.0000
  N   N20       1.0  0.44590  0.48490  0.05886  1.0000
  H   H487      1.0  0.45734  0.44711  0.30205  1.0000
  H   H488      1.0  0.37667  0.17293  0.34525  1.0000
  H   H489      1.0  0.34998  0.23097  0.40903  1.0000
  N   N21       1.0  0.46655  0.05763  0.20181  1.0000
  C   C298      1.0  0.44125  0.05922  0.20516  1.0000
  H   H490      1.0  0.41153  0.06055  0.17818  1.0000
  C   C299      1.0  0.28589  0.08190  0.08129  1.0000
  H   H491      1.0  0.36874  0.21022  0.09572  1.0000
  H   H492      1.0  0.28919  0.43641  0.34550  1.0000
  H   H493      1.0  0.48009  0.03200  0.18410  1.0000
  H   H494      1.0  0.41431  0.08166  0.02635  1.0000
  H   H495      1.0  0.46377  0.46355  0.42763  1.0000
  C   C300      1.0  0.49502  0.07651  0.00214  1.0000
  H   H496      1.0  0.33770  0.42456  0.39058  1.0000
  H   H497      1.0  0.32300  0.41083  0.35833  1.0000
  C   C301      1.0  0.37905  0.19103  0.35610  1.0000
  H   H498      1.0  0.39920  0.45514  0.02114  1.0000
  H   H499      1.0  0.33410  0.09364  0.22381  1.0000
  H   H500      1.0  0.40915  0.46702  0.23364  1.0000
  H   H501      1.0  0.30179  0.09402  0.19021  1.0000
  H   H502      1.0  0.40641  0.05387  0.04844  1.0000
  H   H503      1.0  0.25839  0.02835  0.05981  1.0000
  H   H504      1.0  0.42701  0.21301  0.42785  1.0000
  H   H505      1.0  0.42152  0.45437  0.08955  1.0000
  C   C302      1.0  0.28813  0.08267  0.98927  1.0000
  H   H506      1.0  0.48212  0.03803  0.02073  1.0000
  H   H507      1.0  0.48460  0.06258  0.04374  1.0000
  H   H508      1.0  0.35544  0.20750  0.05019  1.0000
  H   H509      1.0  0.44240  0.44630  0.04913  1.0000
  H   H510      1.0  0.39149  0.16213  0.42600  1.0000
  H   H511      1.0  0.50474  0.12800  0.13626  1.0000
  C   C303      1.0  0.27606  0.43046  0.36387  1.0000
  N   N22       1.0  0.41911  0.42151  0.26013  1.0000
  C   C304      1.0  0.44637  0.42386  0.26361  1.0000
  C   C305      1.0  0.41003  0.41195  0.23124  1.0000
  C   C306      1.0  0.40023  0.40038  0.28009  1.0000
  C   C307      1.0  0.42149  0.44854  0.26616  1.0000
  N   N23       1.0  0.27874  0.10403  0.21835  1.0000
  C   C308      1.0  0.42898  0.43011  0.20836  1.0000
  C   C309      1.0  0.37075  0.39358  0.27921  1.0000
  C   C310      1.0  0.40074  0.45470  0.25247  1.0000
  H   H512      1.0  0.44597  0.40507  0.25679  1.0000
  H   H513      1.0  0.46158  0.44032  0.25049  1.0000
  H   H514      1.0  0.39003  0.40945  0.22675  1.0000
  H   H515      1.0  0.40741  0.39143  0.22832  1.0000
  H   H516      1.0  0.40050  0.38117  0.27721  1.0000
  H   H517      1.0  0.40670  0.40677  0.30159  1.0000
  H   H518      1.0  0.42078  0.45134  0.28865  1.0000
  H   H519      1.0  0.44142  0.46504  0.25946  1.0000
  H   H520      1.0  0.29606  0.41827  0.40990  1.0000
  S   S99       1.0  0.26866  0.44864  0.28256  1.0000
  H   H521      1.0  0.31704  0.09827  0.25174  1.0000
  H   H522      1.0  0.41865  0.42368  0.18824  1.0000
  H   H523      1.0  0.26182  0.07091  0.24755  1.0000
  H   H524      1.0  0.44732  0.42832  0.20692  1.0000
  H   H525      1.0  0.35911  0.37718  0.29422  1.0000
  H   H526      1.0  0.36120  0.38614  0.25899  1.0000
  H   H527      1.0  0.36875  0.41100  0.28582  1.0000
  N   N24       1.0  0.27020  0.40306  0.37421  1.0000
  H   H528      1.0  0.38095  0.43701  0.24814  1.0000
  H   H529      1.0  0.45491  0.08008  0.04322  1.0000
  H   H530      1.0  0.32544  0.20873  0.09397  1.0000
  C   C311      1.0  0.48026  0.50448  0.22714  1.0000
  H   H531      1.0  0.32912  0.41203  0.30180  1.0000
  H   H532      1.0  0.36304  0.13809  0.37930  1.0000
  H   H533      1.0  0.43334  0.23547  0.05765  1.0000
  H   H534      1.0  0.33969  0.24129  0.11114  1.0000
  C   C312      1.0  0.47616  0.47512  0.44467  1.0000
  H   H535      1.0  0.30827  0.14364  0.17576  1.0000
  S   S100      1.0  0.49161  0.45837  0.01500  1.0000
  C   C313      1.0  0.26324  0.12857  0.25250  1.0000
  H   H536      1.0  0.27426  0.06275  0.09278  1.0000
  H   H537      1.0  0.37428  0.23507  0.02786  1.0000
  Fe  Fe50      1.0  0.42018  0.49213  0.33064  1.0000
  C   C314      1.0  0.26956  0.11307  0.19350  1.0000
  H   H538      1.0  0.39304  0.20843  0.34317  1.0000
  C   C315      1.0  0.43453  0.49211  0.10881  1.0000
  H   H539      1.0  0.45577  0.47145  0.09674  1.0000
  H   H540      1.0  0.44570  0.46588  0.02006  1.0000
  C   C316      1.0  0.45088  0.03099  0.15614  1.0000
  C   C317      1.0  0.28536  0.12305  0.24213  1.0000
  H   H541      1.0  0.43483  0.45150  0.21123  1.0000
  H   H542      1.0  0.48966  0.12174  0.45948  1.0000
  H   H543      1.0  0.39687  0.46770  0.26641  1.0000
  H   H544      1.0  0.38565  0.28301  0.05263  1.0000
  S   S101      1.0  0.48720  0.48633  0.14800  1.0000
  H   H545      1.0  0.49179  0.32210  0.10447  1.0000
  N   N25       1.0  0.37313  0.18435  0.40912  1.0000
  C   C318      1.0  0.49694  0.49744  0.24167  1.0000
  C   C319      1.0  0.34665  0.15932  0.40350  1.0000
  C   C320      1.0  0.36788  0.20631  0.41892  1.0000
  C   C321      1.0  0.39180  0.19358  0.38473  1.0000
  H   H546      1.0  0.45229  0.08264  0.00731  1.0000
  C   C322      1.0  0.29423  0.40701  0.39067  1.0000
  C   C323      1.0  0.49105  0.47815  0.98648  1.0000
  H   H547      1.0  0.48449  0.08504  0.16707  1.0000
  H   H548      1.0  0.48064  0.11243  0.20803  1.0000
  C   C324      1.0  0.43959  0.47473  0.08818  1.0000
  C   C325      1.0  0.48986  0.50334  0.44321  1.0000
  H   H549      1.0  0.33346  0.15397  0.42186  1.0000
  H   H550      1.0  0.35513  0.19955  0.43773  1.0000
  H   H551      1.0  0.38686  0.22461  0.42483  1.0000
  H   H552      1.0  0.40778  0.21500  0.38729  1.0000
  C   C326      1.0  0.34820  0.13401  0.39569  1.0000
  H   H553      1.0  0.32827  0.11835  0.38800  1.0000
  H   H554      1.0  0.30064  0.06784  0.23143  1.0000
  S   S102      1.0  0.50020  0.50005  0.27790  1.0000
  C   C327      1.0  0.38623  0.17758  0.43240  1.0000
  H   H555      1.0  0.28408  0.39389  0.33687  1.0000
  N   N26       1.0  0.44755  0.04421  0.02087  1.0000
  H   H556      1.0  0.44806  0.41198  0.30637  1.0000
  H   H557      1.0  0.40241  0.18174  0.38354  1.0000
  H   H558      1.0  0.45699  0.01121  0.23807  1.0000
  C   C328      1.0  0.45817  0.42993  0.29281  1.0000
  C   C329      1.0  0.49188  0.49101  0.18396  1.0000
  H   H559      1.0  0.37206  0.16840  0.44990  1.0000
  N   N27       1.0  0.37881  0.24567  0.07109  1.0000
  C   C330      1.0  0.40746  0.25224  0.06646  1.0000
  C   C331      1.0  0.37872  0.27199  0.07252  1.0000
  C   C332      1.0  0.36210  0.22918  0.04703  1.0000
  C   C333      1.0  0.36937  0.22987  0.09751  1.0000
  C   C334      1.0  0.41149  0.22817  0.05914  1.0000
  C   C335      1.0  0.39614  0.29164  0.09521  1.0000
  C   C336      1.0  0.33706  0.23120  0.03929  1.0000
  C   C337      1.0  0.34143  0.22308  0.10778  1.0000
  H   H560      1.0  0.41688  0.26740  0.04966  1.0000
  H   H561      1.0  0.41998  0.26163  0.08502  1.0000
  H   H562      1.0  0.35818  0.26870  0.07558  1.0000
  H   H563      1.0  0.36839  0.22799  0.38131  1.0000
  C   C338      1.0  0.43576  0.03162  0.99349  1.0000
  C   C339      1.0  0.40556  0.44428  0.03555  1.0000
  C   C340      1.0  0.47591  0.50097  0.05504  1.0000
  H   H564      1.0  0.28002  0.04492  0.00742  1.0000
  H   H565      1.0  0.27283  0.14900  0.26176  1.0000
  C   C341      1.0  0.47841  0.46178  0.46824  1.0000
  C   C342      1.0  0.26996  0.05729  0.00635  1.0000
  C   C343      1.0  0.49775  0.10933  0.20330  1.0000
  H   H566      1.0  0.28012  0.14627  0.16500  1.0000
  C   C344      1.0  0.30415  0.10395  0.21044  1.0000
  S   S103      1.0  0.32613  0.15318  0.98682  1.0000
  H   H567      1.0  0.30092  0.06725  0.04911  1.0000
  C   C345      1.0  0.45764  0.02951  0.24654  1.0000
  C   C346      1.0  0.32175  0.42218  0.37606  1.0000
  H   H568      1.0  0.40049  0.42482  0.02571  1.0000
  H   H569      1.0  0.26559  0.09893  0.17617  1.0000
  H   H570      1.0  0.27931  0.09592  0.98664  1.0000
  C   C347      1.0  0.48026  0.10095  0.45157  1.0000
  C   C348      1.0  0.43306  0.50143  0.05094  1.0000
  C   C349      1.0  0.31415  0.09000  0.23076  1.0000
  H   H571      1.0  0.49626  0.09603  0.00703  1.0000
  H   H572      1.0  0.42382  0.03874  0.20895  1.0000
  H   H573      1.0  0.40126  0.04887  0.01162  1.0000
  H   H574      1.0  0.46761  0.43997  0.46895  1.0000
  C   C350      1.0  0.47725  0.05434  0.02289  1.0000
  N   N28       1.0  0.26282  0.06195  0.03475  1.0000
  C   C351      1.0  0.47640  0.05507  0.22984  1.0000
  C   C352      1.0  0.41457  0.06238  0.02789  1.0000
  Fe  Fe51      1.0  0.29066  0.14232  0.45986  1.0000
  H   H575      1.0  0.30349  0.14286  0.23781  1.0000
  H   H576      1.0  0.30624  0.09267  0.09061  1.0000
  H   H577      1.0  0.29323  0.15735  0.19862  1.0000
  H   H578      1.0  0.26314  0.09941  0.02695  1.0000
  H   H579      1.0  0.46466  0.04821  0.14312  1.0000
  C   C353      1.0  0.28915  0.14176  0.18299  1.0000
  H   H580      1.0  0.41162  0.01777  0.04403  1.0000
  C   C354      1.0  0.28872  0.07746  0.05055  1.0000
  H   H581      1.0  0.43037  0.02820  0.15578  1.0000
  H   H582      1.0  0.46165  0.09696  0.44064  1.0000
  C   C355      1.0  0.43359  0.07214  0.18131  1.0000
  H   H583      1.0  0.46581  0.03163  0.26764  1.0000
  H   H584      1.0  0.43301  0.48371  0.12975  1.0000
  C   C356      1.0  0.44615  0.01398  0.98022  1.0000
  H   H585      1.0  0.44274  0.07267  0.16133  1.0000
  H   H586      1.0  0.25953  0.45408  0.34627  1.0000
  H   H587      1.0  0.32699  0.44282  0.36941  1.0000
  H   H588      1.0  0.49612  0.05584  0.22826  1.0000
  H   H589      1.0  0.29134  0.11548  0.26031  1.0000
  C   C357      1.0  0.43611  0.46049  0.04061  1.0000
  H   H590      1.0  0.48001  0.07234  0.24309  1.0000
  H   H591      1.0  0.48815  0.07068  0.98075  1.0000
  H   H592      1.0  0.44127  0.03494  0.06418  1.0000
  H   H593      1.0  0.44575  0.50241  0.00706  1.0000
  H   H594      1.0  0.40809  0.21461  0.45693  1.0000
  H   H595      1.0  0.44631  0.01421  0.19574  1.0000
  H   H596      1.0  0.32112  0.12488  0.20783  1.0000
  H   H597      1.0  0.49354  0.09945  0.43601  1.0000
  H   H598      1.0  0.48485  0.48785  0.05860  1.0000
  C   C358      1.0  0.47791  0.50144  0.19842  1.0000
  H   H599      1.0  0.41106  0.48986  0.05475  1.0000
  S   S104      1.0  0.50122  0.37641  0.10325  1.0000
  H   H600      1.0  0.41353  0.01911  0.99499  1.0000
  H   H601      1.0  0.46539  0.06008  0.46324  1.0000
  H   H602      1.0  0.43707  0.02635  0.24839  1.0000
  H   H603      1.0  0.41524  0.49146  0.10447  1.0000
  H   H604      1.0  0.26639  0.36584  0.35794  1.0000
  C   C359      1.0  0.25800  0.07559  0.22635  1.0000
  H   H605      1.0  0.25952  0.06077  0.21275  1.0000
  H   H606      1.0  0.45514  0.00560  0.99440  1.0000
  C   C360      1.0  0.47291  0.07958  0.47432  1.0000
  Fe  Fe52      1.0  0.50529  0.07326  0.10072  1.0000
  H   H607      1.0  0.43972  0.04767  0.97812  1.0000
  C   C361      1.0  0.42758  0.26942  0.73739  1.0000
  C   C362      1.0  0.49657  0.10184  0.51754  1.0000
  S   S105      1.0  0.48577  0.03330  0.58228  1.0000
  H   H608      1.0  0.42404  0.42065  0.57990  1.0000
  S   S106      1.0  0.44517  0.48801  0.84200  1.0000
  C   C363      1.0  0.47973  0.49821  0.57333  1.0000
  H   H609      1.0  0.31463  0.44865  0.84484  1.0000
  S   S107      1.0  0.48785  0.43605  0.59735  1.0000
  Fe  Fe53      1.0  0.27515  0.14475  0.89802  1.0000
  S   S108      1.0  0.28515  0.15750  0.85229  1.0000
  H   H610      1.0  0.46940  0.27998  0.74629  1.0000
  H   H611      1.0  0.29653  0.09094  0.52493  1.0000
  S   S109      1.0  0.27762  0.11342  0.92468  1.0000
  S   S110      1.0  0.29102  0.17607  0.93141  1.0000
  Fe  Fe54      1.0  0.41609  0.17634  0.66559  1.0000
  S   S111      1.0  0.37313  0.14625  0.67611  1.0000
  S   S112      1.0  0.45051  0.16664  0.66530  1.0000
  Fe  Fe55      1.0  0.40569  0.22453  0.66782  1.0000
  S   S113      1.0  0.36210  0.19713  0.67841  1.0000
  S   S114      1.0  0.41649  0.26907  0.66772  1.0000
  Fe  Fe56      1.0  0.37526  0.17580  0.70815  1.0000
  S   S115      1.0  0.36360  0.16421  0.75387  1.0000
  Fe  Fe57      1.0  0.36307  0.16991  0.64566  1.0000
  S   S116      1.0  0.32703  0.15141  0.61668  1.0000
  S   S117      1.0  0.41901  0.20471  0.69934  1.0000
  S   S118      1.0  0.40582  0.19847  0.63327  1.0000
  S   S119      1.0  0.27086  0.44271  0.75541  1.0000
  C   C364      1.0  0.30701  0.15877  0.82519  1.0000
  C   C365      1.0  0.30484  0.16817  0.79901  1.0000
  C   C366      1.0  0.32155  0.16963  0.77694  1.0000
  C   C367      1.0  0.34092  0.16180  0.78061  1.0000
  C   C368      1.0  0.34319  0.15255  0.80682  1.0000
  C   C369      1.0  0.32644  0.15101  0.82887  1.0000
  H   H612      1.0  0.28993  0.17417  0.79570  1.0000
  H   H613      1.0  0.31933  0.17674  0.75706  1.0000
  H   H614      1.0  0.35806  0.14647  0.81013  1.0000
  H   H615      1.0  0.32855  0.14376  0.84871  1.0000
  C   C370      1.0  0.32731  0.15310  0.52229  1.0000
  C   C371      1.0  0.35114  0.16024  0.53673  1.0000
  C   C372      1.0  0.35137  0.15939  0.56562  1.0000
  C   C373      1.0  0.32770  0.15129  0.58036  1.0000
  C   C374      1.0  0.30384  0.14396  0.56589  1.0000
  C   C375      1.0  0.30367  0.14507  0.53705  1.0000
  H   H616      1.0  0.36953  0.16641  0.52554  1.0000
  H   H617      1.0  0.36983  0.16493  0.57650  1.0000
  H   H618      1.0  0.28551  0.13802  0.57713  1.0000
  H   H619      1.0  0.28530  0.13998  0.52627  1.0000
  C   C376      1.0  0.48154  0.34723  0.62581  1.0000
  C   C377      1.0  0.46145  0.34724  0.64196  1.0000
  C   C378      1.0  0.44194  0.32321  0.65476  1.0000
  C   C379      1.0  0.44217  0.29883  0.65160  1.0000
  C   C380      1.0  0.46220  0.29878  0.63543  1.0000
  C   C381      1.0  0.48170  0.32281  0.62263  1.0000
  H   H620      1.0  0.46102  0.36579  0.64466  1.0000
  H   H621      1.0  0.42654  0.32354  0.66717  1.0000
  H   H622      1.0  0.46280  0.28030  0.63284  1.0000
  H   H623      1.0  0.31090  0.40895  0.69855  1.0000
  C   C382      1.0  0.34392  0.46792  0.81277  1.0000
  C   C383      1.0  0.31762  0.45362  0.82324  1.0000
  C   C384      1.0  0.29506  0.44562  0.80609  1.0000
  C   C385      1.0  0.29850  0.45193  0.77813  1.0000
  C   C386      1.0  0.32482  0.46625  0.76763  1.0000
  C   C387      1.0  0.34737  0.47405  0.78476  1.0000
  C   C388      1.0  0.43462  0.07949  0.68016  1.0000
  H   H624      1.0  0.27503  0.43463  0.81454  1.0000
  H   H625      1.0  0.32782  0.47129  0.74607  1.0000
  H   H626      1.0  0.45655  0.05112  0.53726  1.0000
  C   C389      1.0  0.47112  0.47972  0.94213  1.0000
  Fe  Fe58      1.0  0.29058  0.14413  0.95892  1.0000
  N   N29       1.0  0.45121  0.49097  0.57941  1.0000
  H   H627      1.0  0.45684  0.46926  0.92593  1.0000
  H   H628      1.0  0.50141  0.05845  0.52306  1.0000
  H   H629      1.0  0.41623  0.25100  0.60747  1.0000
  H   H630      1.0  0.40960  0.28970  0.77132  1.0000
  C   C390      1.0  0.26750  0.38777  0.70822  1.0000
  S   S120      1.0  0.49622  0.45800  0.52006  1.0000
  H   H631      1.0  0.25772  0.36911  0.62226  1.0000
  C   C391      1.0  0.47588  0.11686  0.61087  1.0000
  H   H632      1.0  0.39425  0.27125  0.82312  1.0000
  C   C392      1.0  0.48310  0.14630  0.64981  1.0000
  C   C393      1.0  0.45949  0.14713  0.64386  1.0000
  C   C394      1.0  0.44407  0.13263  0.62128  1.0000
  C   C395      1.0  0.45232  0.11775  0.60485  1.0000
  C   C396      1.0  0.49269  0.49665  0.74450  1.0000
  H   H633      1.0  0.45599  0.02096  0.52717  1.0000
  H   H634      1.0  0.42592  0.13305  0.61635  1.0000
  H   H635      1.0  0.44035  0.10687  0.58731  1.0000
  C   C397      1.0  0.36821  0.24546  0.73629  1.0000
  H   H636      1.0  0.43125  0.24840  0.57682  1.0000
  H   H637      1.0  0.41551  0.45648  0.59608  1.0000
  H   H638      1.0  0.41746  0.43762  0.55291  1.0000
  C   C398      1.0  0.44981  0.04148  0.64574  1.0000
  C   C399      1.0  0.47298  0.46509  0.96475  1.0000
  C   C400      1.0  0.27680  0.21874  0.86995  1.0000
  C   C401      1.0  0.44543  0.49042  0.52626  1.0000
  C   C402      1.0  0.27337  0.39541  0.65840  1.0000
  H   H639      1.0  0.42942  0.28275  0.79439  1.0000
  C   C403      1.0  0.47752  0.44918  0.86760  1.0000
  H   H640      1.0  0.37142  0.26678  0.79657  1.0000
  C   C404      1.0  0.43232  0.44024  0.56889  1.0000
  H   H641      1.0  0.29253  0.09343  0.48907  1.0000
  C   C405      1.0  0.49328  0.49097  0.68673  1.0000
  H   H642      1.0  0.38988  0.20660  0.79704  1.0000
  C   C406      1.0  0.42468  0.50269  0.61438  1.0000
  H   H643      1.0  0.42490  0.22473  0.75823  1.0000
  H   H644      1.0  0.26982  0.43321  0.69163  1.0000
  C   C407      1.0  0.42415  0.23855  0.77382  1.0000
  H   H645      1.0  0.41395  0.23469  0.81767  1.0000
  H   H646      1.0  0.46511  0.06026  0.63571  1.0000
  S   S121      1.0  0.48588  0.09869  0.58866  1.0000
  H   H647      1.0  0.44609  0.08454  0.66087  1.0000
  H   H648      1.0  0.29036  0.07641  0.96837  1.0000
  H   H649      1.0  0.47604  0.03474  0.67188  1.0000
  H   H650      1.0  0.37628  0.25244  0.71536  1.0000
  C   C408      1.0  0.26068  0.38883  0.62939  1.0000
  H   H651      1.0  0.44158  0.01731  0.68123  1.0000
  C   C409      1.0  0.43616  0.46217  0.58952  1.0000
  C   C410      1.0  0.38365  0.23348  0.75120  1.0000
  H   H652      1.0  0.49716  0.32253  0.61027  1.0000
  H   H653      1.0  0.48600  0.09104  0.66617  1.0000
  H   H654      1.0  0.38522  0.21947  0.73655  1.0000
  C   C411      1.0  0.28395  0.07985  0.50710  1.0000
  H   H655      1.0  0.26785  0.36852  0.70837  1.0000
  H   H656      1.0  0.42135  0.04162  0.70135  1.0000
  H   H657      1.0  0.45523  0.07801  0.48537  1.0000
  N   N30       1.0  0.41109  0.25360  0.76185  1.0000
  C   C412      1.0  0.41128  0.22169  0.79981  1.0000
  H   H658      1.0  0.45127  0.44392  0.55932  1.0000
  H   H659      1.0  0.34696  0.22939  0.73374  1.0000
  H   H660      1.0  0.44130  0.07071  0.72131  1.0000
  S   S122      1.0  0.49306  0.48803  0.65041  1.0000
  H   H661      1.0  0.47654  0.09458  0.52704  1.0000
  C   C413      1.0  0.41045  0.27299  0.78232  1.0000
  H   H662      1.0  0.27497  0.40402  0.61464  1.0000
  S   S123      1.0  0.37153  0.47806  0.83572  1.0000
  C   C414      1.0  0.43984  0.06178  0.70069  1.0000
  H   H663      1.0  0.29997  0.43033  0.71442  1.0000
  H   H664      1.0  0.42717  0.25555  0.72123  1.0000
  C   C415      1.0  0.47157  0.05000  0.72196  1.0000
  H   H665      1.0  0.37691  0.23949  0.80671  1.0000
  H   H666      1.0  0.29014  0.41669  0.65824  1.0000
  S   S124      1.0  0.49322  0.49987  0.78081  1.0000
  C   C416      1.0  0.29694  0.40968  0.71372  1.0000
  H   H667      1.0  0.28291  0.38267  0.66109  1.0000
  N   N31       1.0  0.36665  0.24065  0.58159  1.0000
  C   C417      1.0  0.34188  0.22190  0.56537  1.0000
  C   C418      1.0  0.36119  0.23132  0.61105  1.0000
  C   C419      1.0  0.38959  0.23748  0.57103  1.0000
  C   C420      1.0  0.37214  0.26918  0.57762  1.0000
  C   C421      1.0  0.34407  0.22490  0.53389  1.0000
  C   C422      1.0  0.33626  0.23030  0.62402  1.0000
  C   C423      1.0  0.41699  0.25440  0.58509  1.0000
  C   C424      1.0  0.38880  0.28988  0.60008  1.0000
  H   H668      1.0  0.33551  0.20056  0.57015  1.0000
  H   H669      1.0  0.32455  0.22444  0.57124  1.0000
  H   H670      1.0  0.37828  0.24381  0.62463  1.0000
  H   H671      1.0  0.35861  0.21072  0.61303  1.0000
  H   H672      1.0  0.38443  0.21596  0.57246  1.0000
  H   H673      1.0  0.39346  0.24309  0.54901  1.0000
  H   H674      1.0  0.38236  0.27742  0.55764  1.0000
  H   H675      1.0  0.35285  0.26937  0.57646  1.0000
  H   H676      1.0  0.35219  0.24607  0.52711  1.0000
  H   H677      1.0  0.35622  0.21646  0.52530  1.0000
  H   H678      1.0  0.32371  0.21286  0.52483  1.0000
  H   H679      1.0  0.31755  0.21248  0.61669  1.0000
  H   H680      1.0  0.33693  0.22796  0.64658  1.0000
  H   H681      1.0  0.33535  0.24892  0.62008  1.0000
  H   H682      1.0  0.42573  0.27619  0.58046  1.0000
  H   H683      1.0  0.40176  0.30986  0.59035  1.0000
  H   H684      1.0  0.40235  0.28522  0.61193  1.0000
  H   H685      1.0  0.37553  0.29289  0.61439  1.0000
  H   H686      1.0  0.46066  0.02526  0.96359  1.0000
  S   S125      1.0  0.32803  0.15474  0.48593  1.0000
  H   H687      1.0  0.41308  0.06888  0.67429  1.0000
  H   H688      1.0  0.28594  0.06188  0.50298  1.0000
  H   H689      1.0  0.44740  0.02470  0.63241  1.0000
  H   H690      1.0  0.30297  0.40590  0.73420  1.0000
  H   H691      1.0  0.36837  0.26220  0.74773  1.0000
  H   H692      1.0  0.28587  0.23389  0.88653  1.0000
  H   H693      1.0  0.42156  0.21011  0.80491  1.0000
  H   H694      1.0  0.45831  0.43619  0.85675  1.0000
  H   H695      1.0  0.46584  0.30270  0.72408  1.0000
  H   H696      1.0  0.44623  0.45973  0.60806  1.0000
  C   C425      1.0  0.48718  0.05645  0.50656  1.0000
  H   H697      1.0  0.27245  0.07341  0.56237  1.0000
  H   H698      1.0  0.46012  0.30383  0.75989  1.0000
  C   C426      1.0  0.49437  0.47627  0.49081  1.0000
  H   H699      1.0  0.49008  0.47648  0.83340  1.0000
  C   C427      1.0  0.45737  0.29005  0.74277  1.0000
  C   C428      1.0  0.49886  0.46663  0.84622  1.0000
  C   C429      1.0  0.45818  0.03724  0.67451  1.0000
  C   C430      1.0  0.48848  0.08455  0.68673  1.0000
  H   H700      1.0  0.37035  0.22009  0.76753  1.0000
  H   H701      1.0  0.48091  0.48671  0.55575  1.0000
  H   H702      1.0  0.26045  0.03207  0.54210  1.0000
  C   C431      1.0  0.38678  0.26143  0.80292  1.0000
  H   H703      1.0  0.43058  0.02113  0.73677  1.0000
  H   H704      1.0  0.44838  0.00544  0.72177  1.0000
  C   C432      1.0  0.49132  0.13143  0.63339  1.0000
  H   H705      1.0  0.41901  0.28116  0.72774  1.0000
  H   H706      1.0  0.43838  0.09859  0.68995  1.0000
  H   H707      1.0  0.48072  0.11274  0.71096  1.0000
  C   C433      1.0  0.45041  0.02259  0.73410  1.0000
  N   N32       1.0  0.46408  0.05869  0.69560  1.0000
  C   C434      1.0  0.47816  0.50141  0.69888  1.0000
  H   H708      1.0  0.44441  0.47071  0.52401  1.0000
  H   H709      1.0  0.45726  0.02015  0.75471  1.0000
  H   H710      1.0  0.44528  0.25261  0.77973  1.0000
  C   C435      1.0  0.49729  0.10886  0.70599  1.0000
  H   H711      1.0  0.43006  0.04049  0.64599  1.0000
  H   H712      1.0  0.36739  0.48466  0.77629  1.0000
  H   H713      1.0  0.43160  0.49115  0.51075  1.0000
  H   H714      1.0  0.47595  0.06499  0.73844  1.0000
  C   C436      1.0  0.50564  0.00965  0.69293  1.0000
  H   H715      1.0  0.46012  0.44343  0.96550  1.0000
  H   H716      1.0  0.44269  0.03562  0.50432  1.0000
  H   H717      1.0  0.49033  0.13514  0.50449  1.0000
  Fe  Fe59      1.0  0.50277  0.02440  0.61989  1.0000
  C   C437      1.0  0.45891  0.04055  0.51942  1.0000
  H   H718      1.0  0.47330  0.46130  0.88230  1.0000
  H   H719      1.0  0.48819  0.49234  0.59088  1.0000
  H   H720      1.0  0.48282  0.43536  0.87837  1.0000
  C   C438      1.0  0.47782  0.50422  0.72758  1.0000
  N   N33       1.0  0.49471  0.08364  0.49438  1.0000
  H   H721      1.0  0.27892  0.22884  0.84993  1.0000
  H   H722      1.0  0.48848  0.04312  0.49077  1.0000
  H   H723      1.0  0.41514  0.48185  0.55680  1.0000
  H   H724      1.0  0.28875  0.20834  0.86893  1.0000
  H   H725      1.0  0.49035  0.04900  0.71925  1.0000
  H   H726      1.0  0.41011  0.50019  0.59813  1.0000
  H   H727      1.0  0.49535  0.15766  0.66701  1.0000
  C   C439      1.0  0.43728  0.49508  0.55505  1.0000
  H   H728      1.0  0.41614  0.48463  0.62789  1.0000
  H   H729      1.0  0.50057  0.45204  0.83257  1.0000
  Fe  Fe60      1.0  0.41732  0.50408  0.83143  1.0000
  H   H730      1.0  0.25639  0.24912  0.88432  1.0000
  Fe  Fe61      1.0  0.48045  0.90727  0.33779  1.0000
  C   C440      1.0  0.50190  0.98740  0.44253  1.0000
  C   C441      1.0  0.42373  0.81149  0.36510  1.0000
  Fe  Fe62      1.0  0.42294  0.89762  0.32920  1.0000
  S   S126      1.0  0.43494  0.94034  0.34045  1.0000
  S   S127      1.0  0.38103  0.86079  0.32182  1.0000
  Fe  Fe63      1.0  0.47162  0.95185  0.31445  1.0000
  H   H731      1.0  0.27250  0.85954  0.13602  1.0000
  Fe  Fe64      1.0  0.45908  0.93679  0.37533  1.0000
  S   S128      1.0  0.45326  0.94815  0.41927  1.0000
  S   S129      1.0  0.45812  0.90934  0.30068  1.0000
  S   S130      1.0  0.44465  0.89314  0.36572  1.0000
  C   C442      1.0  0.49366  0.99083  0.25254  1.0000
  S   S131      1.0  0.44414  0.51894  0.29562  1.0000
  H   H732      1.0  0.31799  0.89868  0.14183  1.0000
  H   H733      1.0  0.41377  0.76806  0.33599  1.0000
  S   S132      1.0  0.43590  0.52623  0.36127  1.0000
  H   H734      1.0  0.38350  0.79473  0.30821  1.0000
  H   H735      1.0  0.42336  0.98503  0.02749  1.0000
  Fe  Fe65      1.0  0.46249  0.55252  0.32672  1.0000
  H   H736      1.0  0.45095  0.51331  0.10932  1.0000
  H   H737      1.0  0.26242  0.88939  0.38190  1.0000
  S   S133      1.0  0.27308  0.84628  0.26679  1.0000
  H   H738      1.0  0.45948  0.85121  0.37094  1.0000
  Fe  Fe66      1.0  0.46917  0.51682  0.37056  1.0000
  C   C443      1.0  0.38901  0.79864  0.33024  1.0000
  H   H739      1.0  0.28503  0.81603  0.17946  1.0000
  C   C444      1.0  0.45298  0.82967  0.37448  1.0000
  C   C445      1.0  0.36892  0.77278  0.34573  1.0000
  H   H740      1.0  0.45430  0.82735  0.39695  1.0000
  H   H741      1.0  0.46744  0.82492  0.36475  1.0000
  C   C446      1.0  0.35108  0.85746  0.30700  1.0000
  C   C447      1.0  0.35029  0.87893  0.29402  1.0000
  C   C448      1.0  0.32626  0.87503  0.28189  1.0000
  C   C449      1.0  0.30263  0.84972  0.28272  1.0000
  C   C450      1.0  0.30328  0.82831  0.29600  1.0000
  C   C451      1.0  0.32738  0.83216  0.30793  1.0000
  H   H742      1.0  0.36829  0.89849  0.29310  1.0000
  H   H743      1.0  0.32605  0.89180  0.27176  1.0000
  H   H744      1.0  0.28534  0.80871  0.29683  1.0000
  H   H745      1.0  0.32770  0.81538  0.31790  1.0000
  C   C452      1.0  0.47428  0.97008  0.44588  1.0000
  C   C453      1.0  0.43499  0.99860  0.04455  1.0000
  H   H746      1.0  0.46137  0.56535  0.25937  1.0000
  H   H747      1.0  0.30786  0.86461  0.21840  1.0000
  C   C454      1.0  0.25971  0.85727  0.19638  1.0000
  H   H748      1.0  0.30761  0.88558  0.37456  1.0000
  C   C455      1.0  0.47827  0.96788  0.23672  1.0000
  C   C456      1.0  0.30706  0.88322  0.35201  1.0000
  H   H749      1.0  0.46482  0.94893  0.24666  1.0000
  C   C457      1.0  0.48955  0.97679  0.98341  1.0000
  H   H750      1.0  0.31795  0.89219  0.17755  1.0000
  H   H751      1.0  0.46895  0.51198  0.23801  1.0000
  H   H752      1.0  0.31059  0.86642  0.34650  1.0000
  N   N34       1.0  0.41841  0.80800  0.33462  1.0000
  H   H753      1.0  0.28127  0.87521  0.31708  1.0000
  H   H754      1.0  0.41083  0.82882  0.28193  1.0000
  C   C458      1.0  0.43402  0.83473  0.32003  1.0000
  S   S134      1.0  0.46629  0.59298  0.31406  1.0000
  H   H755      1.0  0.45574  0.84462  0.32441  1.0000
  H   H756      1.0  0.49447  0.87002  0.28409  1.0000
  C   C459      1.0  0.46265  0.97021  0.47127  1.0000
  H   H757      1.0  0.26747  0.81613  0.20932  1.0000
  H   H758      1.0  0.29419  0.90077  0.16345  1.0000
  H   H759      1.0  0.27754  0.87474  0.20552  1.0000
  C   C460      1.0  0.43130  0.83395  0.28855  1.0000
  H   H760      1.0  0.37117  0.77521  0.36827  1.0000
  H   H761      1.0  0.32429  0.85783  0.19020  1.0000
  H   H762      1.0  0.43732  0.82018  0.27906  1.0000
  H   H763      1.0  0.38443  0.81467  0.33639  1.0000
  C   C461      1.0  0.30476  0.88928  0.15987  1.0000
  H   H764      1.0  0.44502  0.85439  0.28024  1.0000
  H   H765      1.0  0.41487  0.77994  0.30269  1.0000
  H   H766      1.0  0.31384  0.83704  0.22003  1.0000
  C   C462      1.0  0.50316  0.00278  0.99497  1.0000
  H   H767      1.0  0.32430  0.90177  0.34340  1.0000
  H   H768      1.0  0.41230  0.82044  0.37463  1.0000
  C   C463      1.0  0.49670  0.99423  0.19470  1.0000
  C   C464      1.0  0.47975  0.96962  0.20794  1.0000
  H   H769      1.0  0.41650  0.79160  0.37530  1.0000
  H   H770      1.0  0.46744  0.95185  0.19584  1.0000
  C   C465      1.0  0.28494  0.85932  0.15349  1.0000
  H   H771      1.0  0.45627  0.78330  0.30379  1.0000
  H   H772      1.0  0.29691  0.85058  0.14495  1.0000
  H   H773      1.0  0.28242  0.89972  0.33992  1.0000
  C   C466      1.0  0.45356  0.79366  0.32169  1.0000
  S   S135      1.0  0.49638  0.95074  0.34994  1.0000
  C   C467      1.0  0.49495  0.62561  0.30980  1.0000
  C   C468      1.0  0.28081  0.87951  0.33922  1.0000
  C   C469      1.0  0.42398  0.78673  0.32336  1.0000
  S   S136      1.0  0.48782  0.52163  0.41404  1.0000
  H   H774      1.0  0.45210  0.53422  0.02069  1.0000
  H   H775      1.0  0.46786  0.81520  0.31819  1.0000
  H   H776      1.0  0.34824  0.76841  0.34083  1.0000
  S   S137      1.0  0.49636  0.54524  0.33746  1.0000
  H   H777      1.0  0.45955  0.56279  0.22231  1.0000
  H   H778      1.0  0.47131  0.64291  0.29522  1.0000
  H   H779      1.0  0.42790  0.84918  0.32770  1.0000
  H   H780      1.0  0.37031  0.75495  0.33925  1.0000
  H   H781      1.0  0.44046  0.51944  0.06421  1.0000
  H   H782      1.0  0.46482  0.50675  0.18739  1.0000
  H   H783      1.0  0.45959  0.78695  0.34046  1.0000
  H   H784      1.0  0.25692  0.82644  0.33070  1.0000
  C   C470      1.0  0.46461  0.57662  0.23994  1.0000
  H   H785      1.0  0.48397  0.54023  0.07189  1.0000
  C   C471      1.0  0.49136  0.52572  0.07358  1.0000
  H   H786      1.0  0.49569  0.56047  0.21157  1.0000
  H   H787      1.0  0.42571  0.98745  0.06383  1.0000
  H   H788      1.0  0.45000  0.58400  0.23995  1.0000
  H   H789      1.0  0.49543  0.61478  0.25519  1.0000
  H   H790      1.0  0.26617  0.86244  0.39511  1.0000
  C   C472      1.0  0.49139  0.64668  0.29947  1.0000
  H   H791      1.0  0.44136  0.95689  0.47423  1.0000
  H   H792      1.0  0.27251  0.83369  0.36348  1.0000
  H   H793      1.0  0.49127  0.51964  0.09522  1.0000
  S   S138      1.0  0.49615  0.99551  0.15846  1.0000
  C   C473      1.0  0.30822  0.84873  0.20587  1.0000
  H   H794      1.0  0.48252  0.95935  0.99666  1.0000
  S   S139      1.0  0.49033  0.99030  0.28860  1.0000
  H   H795      1.0  0.49350  0.61211  0.21899  1.0000
  Fe  Fe67      1.0  0.47640  0.51015  0.30839  1.0000
  C   C474      1.0  0.28096  0.82934  0.19268  1.0000
  H   H796      1.0  0.48120  0.50806  0.03352  1.0000
  H   H797      1.0  0.49749  0.55603  0.25868  1.0000
  H   H798      1.0  0.41886  0.50902  0.01209  1.0000
  C   C475      1.0  0.49324  0.60113  0.23797  1.0000
  H   H799      1.0  0.26030  0.80971  0.13018  1.0000
  H   H800      1.0  0.45580  0.00228  0.04455  1.0000
  N   N35       1.0  0.26743  0.84199  0.17673  1.0000
  H   H801      1.0  0.50436  0.58336  0.28052  1.0000
  C   C476      1.0  0.43798  0.51211  0.02105  1.0000
  Fe  Fe68      1.0  0.47532  0.91255  0.83876  1.0000
  H   H802      1.0  0.40720  0.56863  0.76608  1.0000
  C   C477      1.0  0.39781  0.80131  0.84740  1.0000
  Fe  Fe69      1.0  0.42465  0.91682  0.83309  1.0000
  S   S140      1.0  0.44796  0.96234  0.83352  1.0000
  S   S141      1.0  0.37872  0.89390  0.83676  1.0000
  Fe  Fe70      1.0  0.47655  0.95817  0.80534  1.0000
  H   H803      1.0  0.29022  0.90914  0.73409  1.0000
  Fe  Fe71      1.0  0.47195  0.95897  0.86853  1.0000
  H   H804      1.0  0.47279  0.86016  0.79290  1.0000
  S   S142      1.0  0.45175  0.91296  0.80200  1.0000
  S   S143      1.0  0.44689  0.91368  0.86999  1.0000
  C   C478      1.0  0.31184  0.84975  0.69375  1.0000
  S   S144      1.0  0.44155  0.52875  0.79522  1.0000
  H   H805      1.0  0.44397  0.86110  0.87667  1.0000
  Fe  Fe72      1.0  0.46743  0.52401  0.86954  1.0000
  S   S145      1.0  0.43803  0.53845  0.86124  1.0000
  C   C479      1.0  0.39942  0.83800  0.87618  1.0000
  H   H806      1.0  0.46895  0.98660  0.51235  1.0000
  Fe  Fe73      1.0  0.46408  0.56245  0.82566  1.0000
  H   H807      1.0  0.43000  0.80110  0.82299  1.0000
  C   C480      1.0  0.42690  0.84651  0.88929  1.0000
  S   S146      1.0  0.27700  0.81760  0.76243  1.0000
  H   H808      1.0  0.47606  0.65821  0.81973  1.0000
  H   H809      1.0  0.32406  0.79058  0.84834  1.0000
  H   H810      1.0  0.38598  0.78794  0.83014  1.0000
  H   H811      1.0  0.42834  0.85679  0.90901  1.0000
  H   H812      1.0  0.48489  0.83283  0.76272  1.0000
  H   H813      1.0  0.39650  0.85591  0.87620  1.0000
  C   C481      1.0  0.28276  0.89473  0.71673  1.0000
  H   H814      1.0  0.33873  0.51501  0.83363  1.0000
  C   C482      1.0  0.35104  0.87428  0.81467  1.0000
  C   C483      1.0  0.35397  0.86426  0.78959  1.0000
  C   C484      1.0  0.33111  0.84700  0.77393  1.0000
  C   C485      1.0  0.30509  0.84003  0.78276  1.0000
  C   C486      1.0  0.30223  0.85052  0.80753  1.0000
  C   C487      1.0  0.32503  0.86726  0.82348  1.0000
  H   H815      1.0  0.37379  0.86946  0.78251  1.0000
  H   H816      1.0  0.33358  0.83883  0.75494  1.0000
  H   H817      1.0  0.28241  0.84526  0.81471  1.0000
  H   H818      1.0  0.32249  0.87475  0.84291  1.0000
  C   C488      1.0  0.26463  0.95750  0.92568  1.0000
  N   N36       1.0  0.38325  0.56788  0.82101  1.0000
  H   H819      1.0  0.33126  0.88022  0.63592  1.0000
  C   C489      1.0  0.33527  0.52590  0.81678  1.0000
  H   H820      1.0  0.47418  0.95298  0.94644  1.0000
  S   S147      1.0  0.49494  0.55037  0.83561  1.0000
  C   C490      1.0  0.46962  0.96723  0.72682  1.0000
  H   H821      1.0  0.27284  0.97732  0.93606  1.0000
  H   H822      1.0  0.45577  0.95078  0.73978  1.0000
  H   H823      1.0  0.42763  0.51980  0.62748  1.0000
  S   S148      1.0  0.49490  0.88657  0.84556  1.0000
  H   H824      1.0  0.38095  0.52834  0.85900  1.0000
  C   C491      1.0  0.41288  0.84750  0.82786  1.0000
  H   H825      1.0  0.38919  0.78913  0.86637  1.0000
  H   H826      1.0  0.42916  0.82879  0.89424  1.0000
  H   H827      1.0  0.34267  0.80733  0.87804  1.0000
  C   C492      1.0  0.36621  0.81802  0.83976  1.0000
  H   H828      1.0  0.46223  0.53032  0.59607  1.0000
  H   H829      1.0  0.40954  0.86507  0.82896  1.0000
  H   H830      1.0  0.34553  0.77967  0.86328  1.0000
  H   H831      1.0  0.36373  0.83613  0.83832  1.0000
  H   H832      1.0  0.38877  0.54909  0.88836  1.0000
  H   H833      1.0  0.43435  0.85605  0.83306  1.0000
  H   H834      1.0  0.40948  0.81959  0.79458  1.0000
  H   H835      1.0  0.33756  0.51781  0.79701  1.0000
  H   H836      1.0  0.39108  0.83723  0.78855  1.0000
  C   C493      1.0  0.48479  0.97309  0.95488  1.0000
  C   C494      1.0  0.40957  0.83881  0.79752  1.0000
  C   C495      1.0  0.34368  0.79769  0.85873  1.0000
  H   H837      1.0  0.34715  0.87805  0.71778  1.0000
  H   H838      1.0  0.50121  0.91019  0.77635  1.0000
  H   H839      1.0  0.41414  0.55803  0.81184  1.0000
  S   S149      1.0  0.46858  0.60464  0.82183  1.0000
  H   H840      1.0  0.42922  0.99644  0.96997  1.0000
  H   H841      1.0  0.36135  0.80877  0.81904  1.0000
  H   H842      1.0  0.42919  0.79174  0.85770  1.0000
  C   C496      1.0  0.48625  0.89847  0.73578  1.0000
  H   H843      1.0  0.30076  0.84788  0.63761  1.0000
  H   H844      1.0  0.34579  0.56398  0.83542  1.0000
  H   H845      1.0  0.38641  0.58454  0.86169  1.0000
  H   H846      1.0  0.41374  0.57985  0.85243  1.0000
  H   H847      1.0  0.26700  0.80904  0.66697  1.0000
  H   H848      1.0  0.35304  0.85767  0.69450  1.0000
  C   C497      1.0  0.29965  0.88056  0.71500  1.0000
  C   C498      1.0  0.39793  0.59567  0.80820  1.0000
  H   H849      1.0  0.31390  0.52064  0.81801  1.0000
  H   H850      1.0  0.32091  0.89703  0.71600  1.0000
  H   H851      1.0  0.26024  0.83050  0.71018  1.0000
  H   H852      1.0  0.35716  0.53770  0.87218  1.0000
  H   H853      1.0  0.35023  0.88551  0.68141  1.0000
  H   H854      1.0  0.44588  0.95131  0.69009  1.0000
  C   C499      1.0  0.26568  0.84161  0.69029  1.0000
  C   C500      1.0  0.37862  0.54472  0.86810  1.0000
  Fe  Fe74      1.0  0.47082  0.51506  0.80749  1.0000
  S   S150      1.0  0.48704  0.99225  0.90138  1.0000
  H   H855      1.0  0.49046  0.53752  0.55402  1.0000
  C   C501      1.0  0.39370  0.61755  0.82190  1.0000
  C   C502      1.0  0.35336  0.55688  0.81820  1.0000
  H   H856      1.0  0.41996  0.60336  0.80774  1.0000
  H   H857      1.0  0.34862  0.56479  0.79935  1.0000
  H   H858      1.0  0.40546  0.62478  0.84116  1.0000
  H   H859      1.0  0.40138  0.63534  0.80804  1.0000
  C   C503      1.0  0.48213  0.98873  0.68170  1.0000
  H   H860      1.0  0.28438  0.90644  0.69796  1.0000
  C   C504      1.0  0.39055  0.54999  0.77524  1.0000
  C   C505      1.0  0.39150  0.57069  0.85074  1.0000
  H   H861      1.0  0.38468  0.82347  0.89106  1.0000
  S   S151      1.0  0.48621  0.52765  0.91265  1.0000
  N   N37       1.0  0.29491  0.86299  0.69019  1.0000
  H   H862      1.0  0.28511  0.88399  0.65920  1.0000
  H   H863      1.0  0.37109  0.54731  0.76798  1.0000
  C   C506      1.0  0.39271  0.55075  0.80680  1.0000
  H   H864      1.0  0.39185  0.59505  0.78642  1.0000
  C   C507      1.0  0.49449  0.63510  0.80705  1.0000
  N   N38       1.0  0.39464  0.82600  0.84785  1.0000
  H   H865      1.0  0.42661  0.85447  0.78547  1.0000
  H   H866      1.0  0.37224  0.61055  0.82593  1.0000
  C   C508      1.0  0.47826  0.98714  0.49297  1.0000
  C   C509      1.0  0.42671  0.80601  0.84412  1.0000
  H   H867      1.0  0.27808  0.96055  0.90809  1.0000
  H   H868      1.0  0.30932  0.83606  0.67666  1.0000
  C   C510      1.0  0.45206  0.50880  0.60261  1.0000
  H   H869      1.0  0.44315  0.82633  0.84941  1.0000
  H   H870      1.0  0.30513  0.83631  0.71208  1.0000
  C   C511      1.0  0.46412  0.96753  0.69872  1.0000
  C   C512      1.0  0.30188  0.88033  0.66472  1.0000
  H   H871      1.0  0.39263  0.53291  0.76741  1.0000
  H   H872      1.0  0.38192  0.52962  0.81417  1.0000
  C   C513      1.0  0.49320  0.98820  0.73797  1.0000
  C   C514      1.0  0.49351  0.99541  0.93743  1.0000
  H   H873      1.0  0.46777  0.90009  0.73462  1.0000
  C   C515      1.0  0.30916  0.86991  0.63871  1.0000
  H   H874      1.0  0.31952  0.90059  0.66883  1.0000
  C   C516      1.0  0.34226  0.86916  0.69694  1.0000
  H   H875      1.0  0.50040  0.93586  0.75763  1.0000
  H   H876      1.0  0.30141  0.87558  0.62044  1.0000
  C   C517      1.0  0.50548  0.52086  0.96248  1.0000
  H   H877      1.0  0.29606  0.86868  0.73427  1.0000
  C   C518      1.0  0.49283  0.65883  0.80907  1.0000
  S   S152      1.0  0.47437  0.98900  0.64673  1.0000
  C   C519      1.0  0.48948  0.85730  0.79817  1.0000
  H   H878      1.0  0.46418  0.50792  0.62005  1.0000
  H   H879      1.0  0.48052  0.87787  0.74304  1.0000
  C   C520      1.0  0.49933  0.52832  0.56745  1.0000
  H   H880      1.0  0.44056  0.51601  0.55455  1.0000
  H   H881      1.0  0.26556  0.94343  0.94061  1.0000
  H   H882      1.0  0.26139  0.88028  0.72118  1.0000
  H   H883      1.0  0.46665  0.50740  0.68602  1.0000
  H   H884      1.0  0.46612  0.51228  0.73660  1.0000
  S   S153      1.0  0.50193  0.98842  0.77263  1.0000
  C   C521      1.0  0.49631  0.84170  0.78118  1.0000
  C   C522      1.0  0.50385  0.86850  0.82231  1.0000
  S   S154      1.0  0.50188  0.95749  0.84007  1.0000
  H   H885      1.0  0.25657  0.82954  0.64711  1.0000
  C   C523      1.0  0.48739  0.50781  0.94076  1.0000
  H   H886      1.0  0.49346  0.90100  0.71446  1.0000
  C   C524      1.0  0.25607  0.82043  0.66736  1.0000
  H   H887      1.0  0.46586  0.50652  0.52055  1.0000
  H   H888      1.0  0.73354  0.16156  0.29012  1.0000
  S   S155      1.0  0.53151  0.07586  0.13634  1.0000
  Fe  Fe75      1.0  0.51642  0.03161  0.12961  1.0000
  S   S156      1.0  0.53677  0.08197  0.06844  1.0000
  H   H889      1.0  0.52421  0.48197  0.23813  1.0000
  Fe  Fe76      1.0  0.56240  0.08195  0.10403  1.0000
  S   S157      1.0  0.60595  0.11691  0.10504  1.0000
  C   C525      1.0  0.57554  0.40897  0.05011  1.0000
  S   S158      1.0  0.54877  0.03768  0.09963  1.0000
  H   H890      1.0  0.75411  0.10270  0.47400  1.0000
  S   S159      1.0  0.53477  0.45297  0.13197  1.0000
  C   C526      1.0  0.51097  0.01536  0.23934  1.0000
  S   S160      1.0  0.53731  0.44377  0.06580  1.0000
  C   C527      1.0  0.72124  0.10339  0.05523  1.0000
  H   H891      1.0  0.69441  0.12919  0.30120  1.0000
  Fe  Fe77      1.0  0.55989  0.47736  0.09604  1.0000
  S   S161      1.0  0.71087  0.13416  0.16898  1.0000
  H   H892      1.0  0.68415  0.12320  0.09298  1.0000
  C   C528      1.0  0.60732  0.39848  0.09406  1.0000
  C   C529      1.0  0.63454  0.12153  0.12392  1.0000
  C   C530      1.0  0.63449  0.10079  0.13933  1.0000
  C   C531      1.0  0.65792  0.10521  0.15322  1.0000
  C   C532      1.0  0.68172  0.13034  0.15193  1.0000
  C   C533      1.0  0.68177  0.15117  0.13671  1.0000
  C   C534      1.0  0.65833  0.14672  0.12275  1.0000
  H   H893      1.0  0.61641  0.08132  0.14043  1.0000
  H   H894      1.0  0.65759  0.08894  0.16496  1.0000
  H   H895      1.0  0.69983  0.17065  0.13557  1.0000
  H   H896      1.0  0.65861  0.16293  0.11094  1.0000
  C   C535      1.0  0.72199  0.13922  0.23894  1.0000
  H   H897      1.0  0.68668  0.48907  0.23321  1.0000
  H   H898      1.0  0.54518  0.38458  0.14627  1.0000
  H   H899      1.0  0.52305  0.03315  0.25150  1.0000
  H   H900      1.0  0.64509  0.08574  0.07171  1.0000
  H   H901      1.0  0.61534  0.43939  0.06037  1.0000
  H   H902      1.0  0.73445  0.10667  0.21208  1.0000
  H   H903      1.0  0.72497  0.08047  0.23783  1.0000
  C   C536      1.0  0.56950  0.40418  0.11058  1.0000
  C   C537      1.0  0.74910  0.10567  0.05355  1.0000
  H   H904      1.0  0.64294  0.40429  0.11680  1.0000
  C   C538      1.0  0.66314  0.08375  0.07545  1.0000
  H   H905      1.0  0.67098  0.10773  0.27532  1.0000
  H   H906      1.0  0.66422  0.07146  0.05856  1.0000
  H   H907      1.0  0.59069  0.37872  0.08684  1.0000
  H   H908      1.0  0.68783  0.12246  0.05706  1.0000
  H   H909      1.0  0.69938  0.09803  0.12132  1.0000
  H   H910      1.0  0.56596  0.48053  0.44068  1.0000
  C   C539      1.0  0.56639  0.39274  0.13979  1.0000
  H   H911      1.0  0.74723  0.15790  0.04424  1.0000
  H   H912      1.0  0.65960  0.07285  0.09524  1.0000
  C   C540      1.0  0.74587  0.15264  0.28359  1.0000
  Fe  Fe78      1.0  0.50792  0.46993  0.12035  1.0000
  H   H913      1.0  0.51584  0.08007  0.00357  1.0000
  C   C541      1.0  0.51123  0.48745  0.22712  1.0000
  H   H914      1.0  0.65365  0.44780  0.09784  1.0000
  H   H915      1.0  0.57900  0.39179  0.04669  1.0000
  N   N39       1.0  0.73127  0.12985  0.26355  1.0000
  H   H916      1.0  0.70655  0.08162  0.05241  1.0000
  H   H917      1.0  0.70208  0.07469  0.09958  1.0000
  H   H918      1.0  0.73845  0.13002  0.32251  1.0000
  C   C542      1.0  0.73996  0.16295  0.06310  1.0000
  C   C543      1.0  0.62074  0.39282  0.11885  1.0000
  N   N40       1.0  0.71482  0.11375  0.08082  1.0000
  H   H919      1.0  0.57006  0.37545  0.14039  1.0000
  H   H920      1.0  0.61026  0.49371  0.15091  1.0000
  H   H921      1.0  0.70577  0.12170  0.22780  1.0000
  H   H922      1.0  0.69714  0.08957  0.26102  1.0000
  H   H923      1.0  0.59016  0.44555  0.07351  1.0000
  H   H924      1.0  0.69578  0.15213  0.25951  1.0000
  Fe  Fe79      1.0  0.52116  0.03716  0.06623  1.0000
  H   H925      1.0  0.52322  0.04517  0.98584  1.0000
  C   C544      1.0  0.71176  0.15920  0.24388  1.0000
  H   H926      1.0  0.61788  0.43558  0.13700  1.0000
  C   C545      1.0  0.70807  0.10550  0.27661  1.0000
  H   H927      1.0  0.66848  0.49821  0.25611  1.0000
  H   H928      1.0  0.75386  0.10278  0.10706  1.0000
  C   C546      1.0  0.51263  0.01706  0.21053  1.0000
  S   S162      1.0  0.50748  0.00594  0.03133  1.0000
  H   H929      1.0  0.70318  0.16182  0.22441  1.0000
  H   H930      1.0  0.71506  0.09552  0.29158  1.0000
  H   H931      1.0  0.55556  0.38661  0.09792  1.0000
  H   H932      1.0  0.61504  0.39665  0.13920  1.0000
  Fe  Fe80      1.0  0.51031  0.42038  0.10110  1.0000
  H   H933      1.0  0.65730  0.47332  0.12137  1.0000
  C   C547      1.0  0.50864  0.48412  0.19847  1.0000
  H   H934      1.0  0.52691  0.11227  0.46774  1.0000
  H   H935      1.0  0.72852  0.17945  0.24943  1.0000
  H   H936      1.0  0.57882  0.40824  0.15507  1.0000
  H   H937      1.0  0.50729  0.08030  0.18689  1.0000
  C   C548      1.0  0.74117  0.10036  0.23062  1.0000
  H   H938      1.0  0.72191  0.16462  0.05863  1.0000
  H   H939      1.0  0.67635  0.09423  0.30669  1.0000
  H   H940      1.0  0.71847  0.11290  0.03645  1.0000
  C   C549      1.0  0.75113  0.12174  0.25356  1.0000
  N   N41       1.0  0.59730  0.41811  0.09840  1.0000
  H   H941      1.0  0.73861  0.14957  0.22385  1.0000
  H   H942      1.0  0.61517  0.37121  0.11867  1.0000
  H   H943      1.0  0.64458  0.47283  0.08797  1.0000
  C   C550      1.0  0.73509  0.14284  0.08655  1.0000
  H   H944      1.0  0.62258  0.40593  0.07736  1.0000
  C   C551      1.0  0.61569  0.44174  0.11609  1.0000
  H   H945      1.0  0.51938  0.07855  0.46420  1.0000
  H   H946      1.0  0.56114  0.41812  0.11071  1.0000
  C   C552      1.0  0.64436  0.45966  0.10489  1.0000
  H   H947      1.0  0.52598  0.03603  0.20058  1.0000
  H   H948      1.0  0.57815  0.41930  0.03007  1.0000
  H   H949      1.0  0.51957  0.47614  0.18763  1.0000
  C   C553      1.0  0.59554  0.42944  0.07089  1.0000
  H   H950      1.0  0.72892  0.14985  0.10502  1.0000
  C   C554      1.0  0.71232  0.09638  0.10535  1.0000
  H   H951      1.0  0.60680  0.45494  0.11933  1.0000
  C   C555      1.0  0.68637  0.10974  0.29043  1.0000
  C   C556      1.0  0.68803  0.11227  0.07648  1.0000
  H   H952      1.0  0.55439  0.40141  0.05629  1.0000
  H   H953      1.0  0.60474  0.48019  0.46589  1.0000
  H   H954      1.0  0.73360  0.08686  0.13641  1.0000
  Fe  Fe81      1.0  0.51034  0.46121  0.05800  1.0000
  H   H955      1.0  0.75508  0.14565  0.09186  1.0000
  S   S163      1.0  0.53450  0.49641  0.08609  1.0000
  H   H956      1.0  0.59798  0.49860  0.42452  1.0000
  H   H957      1.0  0.50910  0.11104  0.22232  1.0000
  H   H958      1.0  0.53880  0.01764  0.46122  1.0000
  C   C557      1.0  0.73838  0.10261  0.12054  1.0000
  H   H959      1.0  0.51160  0.12624  0.18976  1.0000
  Fe  Fe82      1.0  0.75454  0.16859  0.16895  1.0000
  H   H960      1.0  0.74690  0.12205  0.13165  1.0000
  H   H961      1.0  0.74853  0.08729  0.06192  1.0000
  H   H962      1.0  0.56874  0.44297  0.47390  1.0000
  C   C558      1.0  0.75544  0.14549  0.31031  1.0000
  C   C559      1.0  0.60075  0.49708  0.46889  1.0000
  C   C560      1.0  0.58629  0.49839  0.44271  1.0000
  S   S164      1.0  0.60580  0.50142  0.09170  1.0000
  H   H963      1.0  0.75560  0.10816  0.03178  1.0000
  C   C561      1.0  0.51224  0.02509  0.97748  1.0000
  H   H964      1.0  0.74659  0.02496  0.50910  1.0000
  S   S165      1.0  0.52482  0.06729  0.63448  1.0000
  H   H965      1.0  0.63066  0.09723  0.71175  1.0000
  S   S166      1.0  0.54621  0.08360  0.57077  1.0000
  H   H966      1.0  0.52715  0.47506  0.79776  1.0000
  Fe  Fe83      1.0  0.55949  0.07098  0.60907  1.0000
  S   S167      1.0  0.60139  0.08260  0.62586  1.0000
  C   C562      1.0  0.68514  0.17647  0.71795  1.0000
  S   S168      1.0  0.53773  0.02708  0.59683  1.0000
  H   H967      1.0  0.51310  0.12726  0.69560  1.0000
  S   S169      1.0  0.54176  0.45446  0.63629  1.0000
  C   C563      1.0  0.70955  0.20527  0.71707  1.0000
  S   S170      1.0  0.54252  0.44353  0.57037  1.0000
  H   H968      1.0  0.70413  0.21836  0.70493  1.0000
  C   C564      1.0  0.71364  0.12825  0.72901  1.0000
  Fe  Fe84      1.0  0.56617  0.47797  0.59948  1.0000
  S   S171      1.0  0.71683  0.18515  0.64978  1.0000
  H   H969      1.0  0.51432  0.03884  0.93573  1.0000
  N   N42       1.0  0.52599  0.48750  0.85689  1.0000
  C   C565      1.0  0.63362  0.11167  0.63049  1.0000
  C   C566      1.0  0.63775  0.13794  0.62962  1.0000
  C   C567      1.0  0.66342  0.16014  0.63512  1.0000
  C   C568      1.0  0.68538  0.15646  0.64125  1.0000
  C   C569      1.0  0.68136  0.13023  0.64170  1.0000
  C   C570      1.0  0.65562  0.10803  0.63655  1.0000
  H   H970      1.0  0.62109  0.14113  0.62510  1.0000
  H   H971      1.0  0.66626  0.18032  0.63471  1.0000
  H   H972      1.0  0.69797  0.12699  0.64630  1.0000
  H   H973      1.0  0.65267  0.08781  0.63728  1.0000
  C   C571      1.0  0.53997  0.47437  0.87113  1.0000
  Fe  Fe85      1.0  0.51649  0.42097  0.60652  1.0000
  H   H974      1.0  0.66799  0.47739  0.62555  1.0000
  H   H975      1.0  0.71579  0.21443  0.73762  1.0000
  C   C572      1.0  0.74528  0.09593  0.56058  1.0000
  C   C573      1.0  0.73382  0.45897  0.68385  1.0000
  Fe  Fe86      1.0  0.52250  0.03926  0.55997  1.0000
  Fe  Fe87      1.0  0.51534  0.46082  0.56287  1.0000
  H   H976      1.0  0.53388  0.44813  0.90619  1.0000
  H   H977      1.0  0.70060  0.14881  0.77343  1.0000
  H   H978      1.0  0.68260  0.19146  0.77086  1.0000
  C   C574      1.0  0.54603  0.48693  0.80947  1.0000
  H   H979      1.0  0.66790  0.17785  0.72642  1.0000
  N   N43       1.0  0.68910  0.15567  0.73317  1.0000
  C   C575      1.0  0.71610  0.50296  0.69742  1.0000
  H   H980      1.0  0.64662  0.12815  0.69317  1.0000
  H   H981      1.0  0.51982  0.47531  0.69466  1.0000
  H   H982      1.0  0.53609  0.45576  0.86008  1.0000
  H   H983      1.0  0.72818  0.12637  0.71558  1.0000
  C   C576      1.0  0.55824  0.47077  0.49570  1.0000
  C   C577      1.0  0.50780  0.48621  0.73234  1.0000
  H   H984      1.0  0.67968  0.17046  0.69624  1.0000
  H   H985      1.0  0.66340  0.11532  0.74935  1.0000
  H   H986      1.0  0.51939  0.48030  0.74517  1.0000
  C   C578      1.0  0.70927  0.15112  0.71789  1.0000
  N   N44       1.0  0.71825  0.48347  0.64975  1.0000
  H   H987      1.0  0.66226  0.15710  0.78272  1.0000
  C   C579      1.0  0.52111  0.09365  0.47967  1.0000
  H   H988      1.0  0.52946  0.02557  0.72945  1.0000
  C   C580      1.0  0.55465  0.44278  0.48934  1.0000
  H   H989      1.0  0.51083  0.49708  0.89351  1.0000
  H   H990      1.0  0.73660  0.04466  0.54933  1.0000
  C   C581      1.0  0.54551  0.10019  0.49797  1.0000
  H   H991      1.0  0.68412  0.45374  0.67374  1.0000
  H   H992      1.0  0.66310  0.10842  0.69779  1.0000
  H   H993      1.0  0.55339  0.47353  0.81727  1.0000
  H   H994      1.0  0.69505  0.10836  0.72897  1.0000
  H   H995      1.0  0.70637  0.48197  0.70486  1.0000
  H   H996      1.0  0.73515  0.06915  0.51086  1.0000
  C   C582      1.0  0.65040  0.11546  0.70775  1.0000
  H   H997      1.0  0.56102  0.50107  0.79449  1.0000
  C   C583      1.0  0.66236  0.13004  0.73510  1.0000
  H   H998      1.0  0.72266  0.13280  0.74978  1.0000
  H   H999      1.0  0.70394  0.14715  0.69584  1.0000
  H   H1000     1.0  0.52288  0.13993  0.49480  1.0000
  H   H1001     1.0  0.62432  0.47469  0.53629  1.0000
  H   H1002     1.0  0.74600  0.44876  0.68410  1.0000
  Fe  Fe88      1.0  0.50990  0.07672  0.59542  1.0000
  H   H1003     1.0  0.64695  0.13412  0.74405  1.0000
  H   H1004     1.0  0.69259  0.17973  0.80004  1.0000
  H   H1005     1.0  0.74328  0.47555  0.69897  1.0000
  H   H1006     1.0  0.72067  0.18211  0.76105  1.0000
  H   H1007     1.0  0.55596  0.43274  0.50838  1.0000
  S   S172      1.0  0.52673  0.02698  0.51593  1.0000
  H   H1008     1.0  0.51674  0.14400  0.52921  1.0000
  H   H1009     1.0  0.60204  0.45516  0.50960  1.0000
  H   H1010     1.0  0.53440  0.42999  0.48033  1.0000
  H   H1011     1.0  0.68310  0.44560  0.63913  1.0000
  H   H1012     1.0  0.50993  0.13173  0.63781  1.0000
  C   C584      1.0  0.69961  0.16504  0.76171  1.0000
  H   H1013     1.0  0.56212  0.48808  0.87036  1.0000
  S   S173      1.0  0.61197  0.50038  0.59238  1.0000
  H   H1014     1.0  0.73497  0.09893  0.54282  1.0000
  C   C585      1.0  0.66925  0.47361  0.64767  1.0000
  H   H1015     1.0  0.72936  0.16960  0.71810  1.0000
  H   H1016     1.0  0.54889  0.48254  0.91511  1.0000
  C   C586      1.0  0.68307  0.17374  0.77951  1.0000
  H   H1017     1.0  0.54915  0.46858  0.51622  1.0000
  C   C587      1.0  0.50731  0.02140  0.94899  1.0000
  H   H1018     1.0  0.54457  0.47407  0.48202  1.0000
  H   H1019     1.0  0.67450  0.49211  0.65941  1.0000
  C   C588      1.0  0.68887  0.46301  0.65312  1.0000
  C   C589      1.0  0.53322  0.46689  0.90179  1.0000
  Fe  Fe89      1.0  0.51445  0.47097  0.62481  1.0000
  H   H1020     1.0  0.72685  0.20589  0.70651  1.0000
  H   H1021     1.0  0.64873  0.45808  0.65411  1.0000
  C   C590      1.0  0.73478  0.47000  0.65479  1.0000
  H   H1022     1.0  0.54949  0.11611  0.51315  1.0000
  C   C591      1.0  0.72218  0.49257  0.62013  1.0000
  S   S174      1.0  0.54046  0.49669  0.58977  1.0000
  S   S175      1.0  0.50682  0.37684  0.60908  1.0000
  H   H1023     1.0  0.71334  0.44373  0.69037  1.0000
  H   H1024     1.0  0.74865  0.11175  0.57578  1.0000
  H   H1025     1.0  0.51329  0.46304  0.90855  1.0000
  H   H1026     1.0  0.51972  0.02596  0.67998  1.0000
  H   H1027     1.0  0.74791  0.00945  0.54038  1.0000
  H   H1028     1.0  0.72898  0.45308  0.64014  1.0000
  H   H1029     1.0  0.71318  0.47489  0.60609  1.0000
  C   C592      1.0  0.50809  0.48335  0.70366  1.0000
  H   H1030     1.0  0.54341  0.08210  0.50854  1.0000
  H   H1031     1.0  0.73182  0.07619  0.57033  1.0000
  C   C593      1.0  0.51109  0.00939  0.72096  1.0000
  H   H1032     1.0  0.56366  0.10782  0.48488  1.0000
  N   N45       1.0  0.58633  0.49456  0.49546  1.0000
  H   H1033     1.0  0.58960  0.48562  0.53806  1.0000
  C   C594      1.0  0.61603  0.47603  0.51610  1.0000
  C   C595      1.0  0.50706  0.13177  0.51063  1.0000
  H   H1034     1.0  0.50604  0.08142  0.68442  1.0000
  H   H1035     1.0  0.50632  0.10648  0.72516  1.0000
  H   H1036     1.0  0.71165  0.50407  0.61567  1.0000
  C   C596      1.0  0.50812  0.50450  0.48937  1.0000
  H   H1037     1.0  0.63323  0.48565  0.50171  1.0000
  C   C597      1.0  0.60239  0.49324  0.51943  1.0000
  C   C598      1.0  0.54262  0.50340  0.83251  1.0000
  H   H1038     1.0  0.50878  0.10087  0.53483  1.0000
  Fe  Fe90      1.0  0.62127  0.80854  0.29060  1.0000
  S   S176      1.0  0.57932  0.78360  0.30684  1.0000
  S   S177      1.0  0.65853  0.83107  0.31745  1.0000
  Fe  Fe91      1.0  0.60452  0.79268  0.22980  1.0000
  S   S178      1.0  0.56144  0.76572  0.24301  1.0000
  S   S179      1.0  0.61045  0.79328  0.18260  1.0000
  Fe  Fe92      1.0  0.56745  0.80017  0.27049  1.0000
  S   S180      1.0  0.53713  0.81516  0.26562  1.0000
  Fe  Fe93      1.0  0.57669  0.75137  0.27815  1.0000
  S   S181      1.0  0.56851  0.70949  0.29257  1.0000
  S   S182      1.0  0.60986  0.82741  0.25609  1.0000
  S   S183      1.0  0.61938  0.77602  0.26324  1.0000
  Fe  Fe94      1.0  0.73253  0.83773  0.99193  1.0000
  S   S184      1.0  0.68910  0.81872  0.00498  1.0000
  H   H1039     1.0  0.69218  0.77134  0.11066  1.0000
  S   S185      1.0  0.69656  0.87899  0.00743  1.0000
  Fe  Fe95      1.0  0.70218  0.85149  0.03664  1.0000
  S   S186      1.0  0.69538  0.84898  0.08376  1.0000
  H   H1040     1.0  0.60579  0.78665  0.12403  1.0000
  S   S187      1.0  0.65840  0.82796  0.44815  1.0000
  H   H1041     1.0  0.67772  0.51306  0.22203  1.0000
  H   H1042     1.0  0.60393  0.74591  0.43952  1.0000
  Fe  Fe96      1.0  0.73938  0.89507  0.99416  1.0000
  C   C599      1.0  0.50736  0.50623  0.98509  1.0000
  S   S188      1.0  0.70701  0.53816  0.17130  1.0000
  C   C600      1.0  0.58946  0.84389  0.14743  1.0000
  H   H1043     1.0  0.51273  0.53661  0.06708  1.0000
  C   C601      1.0  0.69623  0.94578  0.40232  1.0000
  C   C602      1.0  0.67915  0.53015  0.14930  1.0000
  C   C603      1.0  0.68233  0.53815  0.12179  1.0000
  N   N46       1.0  0.58671  0.85626  0.17364  1.0000
  H   H1044     1.0  0.53973  0.86341  0.35074  1.0000
  H   H1045     1.0  0.69124  0.53488  0.29698  1.0000
  H   H1046     1.0  0.50602  0.84119  0.25563  1.0000
  H   H1047     1.0  0.64774  0.88354  0.37780  1.0000
  H   H1048     1.0  0.73318  0.61196  0.24477  1.0000
  C   C604      1.0  0.53961  0.67766  0.29943  1.0000
  C   C605      1.0  0.54318  0.65667  0.31004  1.0000
  N   N47       1.0  0.71313  0.55445  0.26007  1.0000
  C   C606      1.0  0.65292  0.51415  0.15960  1.0000
  H   H1049     1.0  0.66243  0.53555  0.08336  1.0000
  H   H1050     1.0  0.53846  0.57189  0.18376  1.0000
  H   H1051     1.0  0.69241  0.55606  0.22304  1.0000
  H   H1052     1.0  0.52151  0.51673  0.00139  1.0000
  S   S189      1.0  0.74455  0.80495  0.98759  1.0000
  H   H1053     1.0  0.51218  0.59088  0.19369  1.0000
  C   C607      1.0  0.52993  0.83620  0.28678  1.0000
  C   C608      1.0  0.53947  0.84277  0.31365  1.0000
  S   S190      1.0  0.74578  0.86914  0.02506  1.0000
  H   H1054     1.0  0.65010  0.50775  0.18078  1.0000
  H   H1055     1.0  0.55603  0.79983  0.17860  1.0000
  H   H1056     1.0  0.70228  0.55033  0.11346  1.0000
  H   H1057     1.0  0.55202  0.83533  0.32204  1.0000
  H   H1058     1.0  0.54942  0.57429  0.25820  1.0000
  H   H1059     1.0  0.73450  0.78817  0.14148  1.0000
  C   C609      1.0  0.65803  0.82941  0.35374  1.0000
  C   C610      1.0  0.63491  0.82314  0.36869  1.0000
  C   C611      1.0  0.63541  0.82272  0.39754  1.0000
  C   C612      1.0  0.65895  0.82845  0.41180  1.0000
  C   C613      1.0  0.68205  0.83450  0.39688  1.0000
  C   C614      1.0  0.68161  0.83516  0.36798  1.0000
  H   H1060     1.0  0.61673  0.81902  0.35802  1.0000
  H   H1061     1.0  0.61747  0.81811  0.40891  1.0000
  H   H1062     1.0  0.70024  0.83876  0.40758  1.0000
  H   H1063     1.0  0.69962  0.84007  0.35659  1.0000
  C   C615      1.0  0.63454  0.80928  0.15555  1.0000
  C   C616      1.0  0.66124  0.82905  0.16035  1.0000
  C   C617      1.0  0.67932  0.84100  0.13818  1.0000
  C   C618      1.0  0.67113  0.83357  0.11079  1.0000
  C   C619      1.0  0.64440  0.81386  0.10599  1.0000
  C   C620      1.0  0.62633  0.80189  0.12816  1.0000
  H   H1064     1.0  0.66803  0.83508  0.18116  1.0000
  H   H1065     1.0  0.69989  0.85615  0.14232  1.0000
  H   H1066     1.0  0.63764  0.80775  0.08519  1.0000
  H   H1067     1.0  0.54954  0.83667  0.13133  1.0000
  C   C621      1.0  0.51439  0.58039  0.21195  1.0000
  C   C622      1.0  0.65963  0.52972  0.10475  1.0000
  H   H1068     1.0  0.65616  0.89887  0.42071  1.0000
  H   H1069     1.0  0.58501  0.51710  0.44162  1.0000
  H   H1070     1.0  0.64125  0.87001  0.16458  1.0000
  H   H1071     1.0  0.70842  0.91786  0.36492  1.0000
  H   H1072     1.0  0.69190  0.88639  0.38224  1.0000
  H   H1073     1.0  0.52414  0.61490  0.32323  1.0000
  H   H1074     1.0  0.70600  0.98487  0.41910  1.0000
  H   H1075     1.0  0.69934  0.56900  0.29359  1.0000
  H   H1076     1.0  0.73178  0.93938  0.43461  1.0000
  C   C623      1.0  0.74083  0.57222  0.27178  1.0000
  H   H1077     1.0  0.69796  0.92780  0.98605  1.0000
  H   H1078     1.0  0.60653  0.85920  0.13499  1.0000
  H   H1079     1.0  0.71483  0.88872  0.43706  1.0000
  H   H1080     1.0  0.61198  0.89740  0.15957  1.0000
  H   H1081     1.0  0.55463  0.80794  0.13048  1.0000
  H   H1082     1.0  0.66324  0.91650  0.36135  1.0000
  C   C624      1.0  0.69263  0.55008  0.28171  1.0000
  H   H1083     1.0  0.57397  0.88234  0.12832  1.0000
  C   C625      1.0  0.59186  0.88453  0.16884  1.0000
  H   H1084     1.0  0.72728  0.57232  0.22006  1.0000
  H   H1085     1.0  0.59198  0.89411  0.18876  1.0000
  H   H1086     1.0  0.65005  0.87246  0.19987  1.0000
  H   H1087     1.0  0.70499  0.80885  0.05914  1.0000
  N   N48       1.0  0.61243  0.73655  0.36990  1.0000
  C   C626      1.0  0.59485  0.74683  0.35824  1.0000
  C   C627      1.0  0.64136  0.75807  0.36632  1.0000
  C   C628      1.0  0.60707  0.73019  0.40001  1.0000
  C   C629      1.0  0.60643  0.71115  0.35489  1.0000
  C   C630      1.0  0.56447  0.72923  0.36376  1.0000
  C   C631      1.0  0.65135  0.76504  0.33645  1.0000
  C   C632      1.0  0.60989  0.75347  0.41823  1.0000
  C   C633      1.0  0.62465  0.69922  0.36184  1.0000
  H   H1088     1.0  0.60122  0.76752  0.36561  1.0000
  H   H1089     1.0  0.59703  0.74886  0.33561  1.0000
  H   H1090     1.0  0.65502  0.75274  0.37750  1.0000
  H   H1091     1.0  0.64502  0.77727  0.37568  1.0000
  H   H1092     1.0  0.58674  0.71248  0.40338  1.0000
  H   H1093     1.0  0.62123  0.72421  0.40880  1.0000
  H   H1094     1.0  0.58551  0.69485  0.35893  1.0000
  H   H1095     1.0  0.60749  0.71448  0.33234  1.0000
  H   H1096     1.0  0.55604  0.70878  0.35492  1.0000
  H   H1097     1.0  0.55956  0.72777  0.38586  1.0000
  H   H1098     1.0  0.55388  0.73870  0.35355  1.0000
  H   H1099     1.0  0.67253  0.78170  0.33657  1.0000
  H   H1100     1.0  0.65097  0.74787  0.32562  1.0000
  H   H1101     1.0  0.63987  0.77245  0.32451  1.0000
  C   C634      1.0  0.74562  0.76872  0.06039  1.0000
  H   H1102     1.0  0.63099  0.77008  0.41932  1.0000
  H   H1103     1.0  0.70642  0.96252  0.44447  1.0000
  H   H1104     1.0  0.64589  0.71312  0.35633  1.0000
  H   H1105     1.0  0.61796  0.68057  0.34966  1.0000
  H   H1106     1.0  0.62335  0.69344  0.38371  1.0000
  H   H1107     1.0  0.70467  0.95469  0.38185  1.0000
  H   H1108     1.0  0.60503  0.83788  0.19789  1.0000
  H   H1109     1.0  0.54183  0.63173  0.26000  1.0000
  H   H1110     1.0  0.53080  0.79905  0.20082  1.0000
  C   C635      1.0  0.71141  0.96898  0.42290  1.0000
  C   C636      1.0  0.52104  0.63081  0.31517  1.0000
  H   H1111     1.0  0.64915  0.52391  0.28467  1.0000
  C   C637      1.0  0.57225  0.88772  0.14972  1.0000
  H   H1112     1.0  0.57779  0.90933  0.14928  1.0000
  H   H1113     1.0  0.59471  0.82799  0.15226  1.0000
  C   C638      1.0  0.63722  0.87569  0.18498  1.0000
  H   H1114     1.0  0.55957  0.61901  0.24200  1.0000
  C   C639      1.0  0.70917  0.79244  0.10972  1.0000
  H   H1115     1.0  0.70654  0.79055  0.15417  1.0000
  H   H1116     1.0  0.72846  0.89165  0.40285  1.0000
  H   H1117     1.0  0.67295  0.88098  0.42614  1.0000
  C   C640      1.0  0.51354  0.67253  0.29430  1.0000
  H   H1118     1.0  0.55719  0.59049  0.21215  1.0000
  H   H1119     1.0  0.62103  0.51544  0.46922  1.0000
  H   H1120     1.0  0.69972  0.80528  0.10761  1.0000
  H   H1121     1.0  0.70725  0.60254  0.22015  1.0000
  C   C641      1.0  0.50681  0.86236  0.29251  1.0000
  H   H1122     1.0  0.67721  0.76346  0.03588  1.0000
  H   H1123     1.0  0.65926  0.53441  0.25036  1.0000
  C   C642      1.0  0.69208  0.90577  0.37986  1.0000
  H   H1124     1.0  0.64382  0.89750  0.18549  1.0000
  C   C643      1.0  0.51352  0.84607  0.27638  1.0000
  S   S191      1.0  0.73638  0.85466  0.46352  1.0000
  H   H1125     1.0  0.66878  0.76459  0.07080  1.0000
  C   C644      1.0  0.67952  0.91046  0.45713  1.0000
  H   H1126     1.0  0.73499  0.82027  0.14186  1.0000
  C   C645      1.0  0.71254  0.59601  0.23955  1.0000
  H   H1127     1.0  0.60525  0.86577  0.21396  1.0000
  H   H1128     1.0  0.59683  0.76161  0.41161  1.0000
  H   H1129     1.0  0.69846  0.59505  0.25551  1.0000
  H   H1130     1.0  0.53323  0.64974  0.21717  1.0000
  C   C646      1.0  0.56457  0.83023  0.12849  1.0000
  H   H1131     1.0  0.73372  0.55517  0.31391  1.0000
  C   C647      1.0  0.63343  0.51351  0.11496  1.0000
  H   H1132     1.0  0.75245  0.54476  0.29186  1.0000
  H   H1133     1.0  0.54304  0.83802  0.17453  1.0000
  C   C648      1.0  0.71080  0.79296  0.06005  1.0000
  H   H1134     1.0  0.55866  0.84977  0.20640  1.0000
  C   C649      1.0  0.72249  0.79825  0.13825  1.0000
  H   H1135     1.0  0.56325  0.66038  0.31412  1.0000
  C   C650      1.0  0.53790  0.57787  0.27404  1.0000
  C   C651      1.0  0.60761  0.85814  0.19375  1.0000
  H   H1136     1.0  0.53299  0.55496  0.21627  1.0000
  C   C652      1.0  0.55973  0.83970  0.18727  1.0000
  H   H1137     1.0  0.74268  0.83953  0.08594  1.0000
  C   C653      1.0  0.72531  0.92698  0.41584  1.0000
  C   C654      1.0  0.66370  0.54109  0.27185  1.0000
  H   H1138     1.0  0.74346  0.59207  0.27810  1.0000
  C   C655      1.0  0.54174  0.62160  0.24053  1.0000
  C   C656      1.0  0.67608  0.90177  0.42688  1.0000
  H   H1139     1.0  0.53186  0.56149  0.28943  1.0000
  H   H1140     1.0  0.56775  0.65987  0.22042  1.0000
  N   N49       1.0  0.69747  0.92024  0.40696  1.0000
  H   H1141     1.0  0.72067  0.75682  0.09603  1.0000
  H   H1142     1.0  0.74033  0.93980  0.40007  1.0000
  C   C657      1.0  0.54755  0.64203  0.21715  1.0000
  H   H1143     1.0  0.57129  0.83473  0.10682  1.0000
  H   H1144     1.0  0.55120  0.87643  0.15691  1.0000
  C   C658      1.0  0.68475  0.76559  0.05724  1.0000
  H   H1145     1.0  0.56366  0.81080  0.21371  1.0000
  C   C659      1.0  0.53243  0.85872  0.32990  1.0000
  H   H1146     1.0  0.74972  0.91025  0.43053  1.0000
  H   H1147     1.0  0.55112  0.59711  0.28477  1.0000
  H   H1148     1.0  0.68783  0.74829  0.06155  1.0000
  H   H1149     1.0  0.66425  0.88883  0.34577  1.0000
  C   C660      1.0  0.51604  0.86860  0.31953  1.0000
  C   C661      1.0  0.71099  0.56861  0.23478  1.0000
  H   H1150     1.0  0.67503  0.94136  0.40195  1.0000
  N   N50       1.0  0.51599  0.59500  0.23815  1.0000
  C   C662      1.0  0.71135  0.52821  0.25178  1.0000
  H   H1151     1.0  0.70048  0.92051  0.46440  1.0000
  C   C663      1.0  0.66522  0.89853  0.36576  1.0000
  N   N51       1.0  0.72714  0.79638  0.08549  1.0000
  H   H1152     1.0  0.71532  0.51843  0.26948  1.0000
  C   C664      1.0  0.55240  0.81071  0.19525  1.0000
  H   H1153     1.0  0.73348  0.97869  0.41998  1.0000
  H   H1154     1.0  0.65895  0.55750  0.27501  1.0000
  C   C665      1.0  0.53709  0.57413  0.20621  1.0000
  H   H1155     1.0  0.54782  0.63362  0.19682  1.0000
  C   C666      1.0  0.72936  0.90273  0.42176  1.0000
  Fe  Fe97      1.0  0.75206  0.56912  0.16808  1.0000
  H   H1156     1.0  0.72701  0.53198  0.23620  1.0000
  C   C667      1.0  0.74865  0.56141  0.29717  1.0000
  C   C668      1.0  0.73684  0.77624  0.08744  1.0000
  H   H1157     1.0  0.72243  0.79605  0.04111  1.0000
  C   C669      1.0  0.63021  0.50612  0.14267  1.0000
  C   C670      1.0  0.51254  0.57746  0.26284  1.0000
  H   H1158     1.0  0.66899  0.89211  0.47019  1.0000
  H   H1159     1.0  0.67062  0.92348  0.46110  1.0000
  C   C671      1.0  0.75028  0.82495  0.08642  1.0000
  H   H1160     1.0  0.51648  0.53964  0.46510  1.0000
  S   S192      1.0  0.50715  0.88777  0.34158  1.0000
  H   H1161     1.0  0.51042  0.68841  0.28619  1.0000
  H   H1162     1.0  0.51126  0.98764  0.42325  1.0000
  H   H1163     1.0  0.75303  0.75955  0.98599  1.0000
  H   H1164     1.0  0.72936  0.74926  0.05232  1.0000
  H   H1165     1.0  0.75255  0.78406  0.04394  1.0000
  H   H1166     1.0  0.75391  0.78343  0.10211  1.0000
  C   C672      1.0  0.50584  0.51783  0.46582  1.0000
  C   C673      1.0  0.68432  0.50626  0.24018  1.0000
  C   C674      1.0  0.51749  0.00444  0.46419  1.0000
  H   H1167     1.0  0.74869  0.99356  0.47647  1.0000
  Fe  Fe98      1.0  0.69418  0.84133  0.47701  1.0000
  Fe  Fe99      1.0  0.61186  0.81402  0.78796  1.0000
  S   S193      1.0  0.56910  0.78561  0.80023  1.0000
  S   S194      1.0  0.64763  0.83217  0.81720  1.0000
  Fe  Fe100     1.0  0.60007  0.80689  0.72540  1.0000
  S   S195      1.0  0.55641  0.77771  0.73419  1.0000
  S   S196      1.0  0.60923  0.81402  0.67885  1.0000
  Fe  Fe101     1.0  0.55901  0.80686  0.76686  1.0000
  S   S197      1.0  0.52503  0.81705  0.76596  1.0000
  Fe  Fe102     1.0  0.56965  0.75881  0.76669  1.0000
  S   S198      1.0  0.56029  0.71475  0.76834  1.0000
  S   S199      1.0  0.60196  0.83706  0.75646  1.0000
  S   S200      1.0  0.61316  0.78631  0.75615  1.0000
  H   H1168     1.0  0.57297  0.54244  0.52578  1.0000
  S   S201      1.0  0.69413  0.81390  0.51059  1.0000
  C   C675      1.0  0.58433  0.51982  0.49848  1.0000
  S   S202      1.0  0.70538  0.87639  0.50574  1.0000
  Fe  Fe103     1.0  0.70821  0.84968  0.53866  1.0000
  S   S203      1.0  0.69982  0.84642  0.58549  1.0000
  H   H1169     1.0  0.60849  0.81985  0.62021  1.0000
  S   S204      1.0  0.64982  0.83402  0.94777  1.0000
  C   C676      1.0  0.57373  0.52340  0.52628  1.0000
  H   H1170     1.0  0.67496  0.89344  0.94816  1.0000
  C   C677      1.0  0.52513  0.86401  0.82913  1.0000
  C   C678      1.0  0.53410  0.96363  0.71293  1.0000
  S   S205      1.0  0.71075  0.56546  0.67470  1.0000
  C   C679      1.0  0.66563  0.52687  0.60689  1.0000
  H   H1171     1.0  0.74938  0.65773  0.65668  1.0000
  H   H1172     1.0  0.57741  0.69224  0.62399  1.0000
  C   C680      1.0  0.68372  0.54661  0.65157  1.0000
  C   C681      1.0  0.68777  0.54110  0.62463  1.0000
  C   C682      1.0  0.70558  0.93074  0.90415  1.0000
  H   H1173     1.0  0.55303  0.50694  0.53032  1.0000
  H   H1174     1.0  0.70794  0.54799  0.61745  1.0000
  C   C683      1.0  0.68807  0.60148  0.60360  1.0000
  H   H1175     1.0  0.63415  0.75215  0.72305  1.0000
  C   C684      1.0  0.50614  0.91995  0.75582  1.0000
  C   C685      1.0  0.53434  0.68444  0.78326  1.0000
  C   C686      1.0  0.53607  0.66077  0.78138  1.0000
  H   H1176     1.0  0.54357  0.98208  0.72565  1.0000
  S   S206      1.0  0.72935  0.86489  0.95987  1.0000
  H   H1177     1.0  0.69210  0.96470  0.92552  1.0000
  H   H1178     1.0  0.65837  0.90431  0.87897  1.0000
  H   H1179     1.0  0.55279  0.66133  0.77065  1.0000
  H   H1180     1.0  0.51827  0.54253  0.96176  1.0000
  H   H1181     1.0  0.66072  0.88198  0.90203  1.0000
  H   H1182     1.0  0.73570  0.91799  0.90385  1.0000
  C   C687      1.0  0.51769  0.83728  0.78797  1.0000
  H   H1183     1.0  0.74454  0.94897  0.48669  1.0000
  H   H1184     1.0  0.70898  0.95446  0.96160  1.0000
  C   C688      1.0  0.55041  0.94774  0.80002  1.0000
  H   H1185     1.0  0.56350  0.52571  0.89310  1.0000
  C   C689      1.0  0.56355  0.68943  0.64113  1.0000
  C   C690      1.0  0.73086  0.66015  0.59340  1.0000
  H   H1186     1.0  0.55961  0.96644  0.81250  1.0000
  H   H1187     1.0  0.62533  0.72435  0.70088  1.0000
  C   C691      1.0  0.64723  0.83090  0.85352  1.0000
  C   C692      1.0  0.62386  0.82315  0.86870  1.0000
  C   C693      1.0  0.62482  0.82343  0.89759  1.0000
  C   C694      1.0  0.64906  0.83130  0.91157  1.0000
  C   C695      1.0  0.67225  0.83840  0.89638  1.0000
  C   C696      1.0  0.67134  0.83837  0.86752  1.0000
  H   H1188     1.0  0.60520  0.81751  0.85819  1.0000
  H   H1189     1.0  0.60680  0.81805  0.90918  1.0000
  H   H1190     1.0  0.69100  0.84440  0.90684  1.0000
  H   H1191     1.0  0.68949  0.84433  0.85595  1.0000
  C   C697      1.0  0.63514  0.82414  0.65344  1.0000
  C   C698      1.0  0.66136  0.83034  0.65988  1.0000
  C   C699      1.0  0.68069  0.83709  0.63888  1.0000
  C   C700      1.0  0.67422  0.83755  0.61102  1.0000
  C   C701      1.0  0.64791  0.83112  0.60459  1.0000
  C   C702      1.0  0.62864  0.82459  0.62561  1.0000
  H   H1192     1.0  0.66683  0.83003  0.68104  1.0000
  H   H1193     1.0  0.70091  0.84203  0.64424  1.0000
  H   H1194     1.0  0.64247  0.83142  0.58341  1.0000
  H   H1195     1.0  0.54892  0.69545  0.63433  1.0000
  N   N52       1.0  0.59548  0.73342  0.85536  1.0000
  C   C703      1.0  0.57571  0.73803  0.87152  1.0000
  C   C704      1.0  0.61682  0.73569  0.87502  1.0000
  C   C705      1.0  0.58055  0.70501  0.84439  1.0000
  C   C706      1.0  0.60663  0.75384  0.83226  1.0000
  C   C707      1.0  0.54966  0.73194  0.85639  1.0000
  C   C708      1.0  0.63068  0.76194  0.89187  1.0000
  C   C709      1.0  0.63523  0.76234  0.82208  1.0000
  H   H1196     1.0  0.56962  0.72565  0.89066  1.0000
  H   H1197     1.0  0.58509  0.75941  0.87832  1.0000
  H   H1198     1.0  0.63285  0.73383  0.86437  1.0000
  H   H1199     1.0  0.60818  0.71866  0.89001  1.0000
  H   H1200     1.0  0.57113  0.69025  0.86150  1.0000
  H   H1201     1.0  0.56376  0.70213  0.83089  1.0000
  H   H1202     1.0  0.59314  0.74648  0.81411  1.0000
  H   H1203     1.0  0.60723  0.77298  0.83794  1.0000
  H   H1204     1.0  0.55343  0.73934  0.83497  1.0000
  H   H1205     1.0  0.53506  0.70995  0.85642  1.0000
  H   H1206     1.0  0.53995  0.74194  0.86714  1.0000
  H   H1207     1.0  0.61767  0.76149  0.90890  1.0000
  H   H1208     1.0  0.64935  0.76429  0.90129  1.0000
  H   H1209     1.0  0.63622  0.77997  0.87908  1.0000
  H   H1210     1.0  0.65072  0.77513  0.83723  1.0000
  H   H1211     1.0  0.63945  0.77499  0.80340  1.0000
  H   H1212     1.0  0.63796  0.74517  0.81653  1.0000
  N   N53       1.0  0.67883  0.92272  0.91709  1.0000
  C   C710      1.0  0.51635  0.63628  0.79321  1.0000
  C   C711      1.0  0.65736  0.89944  0.90120  1.0000
  H   H1213     1.0  0.53618  0.87232  0.84792  1.0000
  H   H1214     1.0  0.72594  0.58435  0.58382  1.0000
  C   C712      1.0  0.54508  0.91197  0.75521  1.0000
  H   H1215     1.0  0.56333  0.51853  0.83890  1.0000
  H   H1216     1.0  0.51101  0.51492  0.86418  1.0000
  H   H1217     1.0  0.51197  0.95438  0.71358  1.0000
  S   S207      1.0  0.75176  0.86440  0.52857  1.0000
  H   H1218     1.0  0.72527  0.62241  0.55979  1.0000
  C   C713      1.0  0.65726  0.53721  0.66057  1.0000
  H   H1219     1.0  0.58396  0.67391  0.82270  1.0000
  N   N54       1.0  0.53572  0.93207  0.74999  1.0000
  H   H1220     1.0  0.61442  0.87261  0.89720  1.0000
  H   H1221     1.0  0.72220  0.94916  0.91372  1.0000
  C   C714      1.0  0.63912  0.51756  0.61592  1.0000
  H   H1222     1.0  0.52987  0.93479  0.80801  1.0000
  H   H1223     1.0  0.66779  0.97374  0.89053  1.0000
  H   H1224     1.0  0.72228  0.52244  0.65831  1.0000
  Fe  Fe104     1.0  0.73748  0.82991  0.49902  1.0000
  H   H1225     1.0  0.60430  0.53816  0.49523  1.0000
  C   C715      1.0  0.54903  0.53149  0.88500  1.0000
  H   H1226     1.0  0.55126  0.66754  0.64575  1.0000
  H   H1227     1.0  0.56527  0.95336  0.71839  1.0000
  N   N55       1.0  0.58685  0.73341  0.66975  1.0000
  C   C716      1.0  0.59968  0.74307  0.69752  1.0000
  C   C717      1.0  0.56267  0.73725  0.66867  1.0000
  C   C718      1.0  0.60724  0.75057  0.64824  1.0000
  C   C719      1.0  0.57934  0.70425  0.66700  1.0000
  H   H1228     1.0  0.54860  0.84543  0.81753  1.0000
  C   C720      1.0  0.53974  0.71977  0.68875  1.0000
  H   H1229     1.0  0.58277  0.73410  0.61053  1.0000
  H   H1230     1.0  0.72128  0.60235  0.62542  1.0000
  H   H1231     1.0  0.60294  0.76365  0.70154  1.0000
  H   H1232     1.0  0.58639  0.73001  0.71421  1.0000
  H   H1233     1.0  0.55337  0.73317  0.64808  1.0000
  H   H1234     1.0  0.56879  0.75874  0.67256  1.0000
  H   H1235     1.0  0.61991  0.77156  0.65569  1.0000
  H   H1236     1.0  0.62155  0.74315  0.64427  1.0000
  H   H1237     1.0  0.59764  0.70228  0.66681  1.0000
  H   H1238     1.0  0.56821  0.69221  0.68534  1.0000
  H   H1239     1.0  0.58677  0.76607  0.62190  1.0000
  H   H1240     1.0  0.66903  0.52302  0.58603  1.0000
  H   H1241     1.0  0.71235  0.65142  0.58070  1.0000
  C   C721      1.0  0.54311  0.94331  0.72129  1.0000
  C   C722      1.0  0.52275  0.50697  0.87500  1.0000
  H   H1242     1.0  0.71970  0.92965  0.95911  1.0000
  C   C723      1.0  0.66981  0.95551  0.88806  1.0000
  H   H1243     1.0  0.75485  0.70520  0.87781  1.0000
  C   C724      1.0  0.50588  0.00443  0.48961  1.0000
  C   C725      1.0  0.67453  0.94671  0.91654  1.0000
  H   H1244     1.0  0.74898  0.68016  0.55420  1.0000
  H   H1245     1.0  0.54241  0.96935  0.76892  1.0000
  H   H1246     1.0  0.62525  0.87971  0.93193  1.0000
  C   C726      1.0  0.62698  0.74446  0.70206  1.0000
  C   C727      1.0  0.74199  0.62748  0.57444  1.0000
  H   H1247     1.0  0.51795  0.61827  0.79144  1.0000
  H   H1248     1.0  0.65090  0.93992  0.87851  1.0000
  H   H1249     1.0  0.71233  0.62608  0.63657  1.0000
  H   H1250     1.0  0.65723  0.94314  0.92966  1.0000
  C   C728      1.0  0.71568  0.61728  0.61774  1.0000
  H   H1251     1.0  0.70588  0.93683  0.88244  1.0000
  C   C729      1.0  0.72745  0.50787  0.66785  1.0000
  C   C730      1.0  0.55065  0.95535  0.76954  1.0000
  H   H1252     1.0  0.55250  0.90065  0.71431  1.0000
  C   C731      1.0  0.75144  0.51087  0.61068  1.0000
  C   C732      1.0  0.59659  0.75361  0.62019  1.0000
  H   H1253     1.0  0.62256  0.90466  0.91106  1.0000
  H   H1254     1.0  0.54569  0.87646  0.74058  1.0000
  C   C733      1.0  0.53985  0.89110  0.73266  1.0000
  C   C734      1.0  0.67793  0.91418  0.94657  1.0000
  H   H1255     1.0  0.51751  0.53045  0.55714  1.0000
  H   H1256     1.0  0.56721  0.92267  0.75861  1.0000
  H   H1257     1.0  0.53122  0.69793  0.68491  1.0000
  H   H1258     1.0  0.56240  0.93766  0.80367  1.0000
  H   H1259     1.0  0.60170  0.70598  0.80669  1.0000
  C   C735      1.0  0.51264  0.68336  0.79734  1.0000
  H   H1260     1.0  0.65382  0.54126  0.68136  1.0000
  H   H1261     1.0  0.61495  0.51573  0.65031  1.0000
  H   H1262     1.0  0.75044  0.70254  0.58110  1.0000
  H   H1263     1.0  0.61501  0.69836  0.83742  1.0000
  C   C736      1.0  0.53220  0.84873  0.81197  1.0000
  H   H1264     1.0  0.64264  0.75871  0.68774  1.0000
  H   H1265     1.0  0.75077  0.59761  0.55751  1.0000
  C   C737      1.0  0.59677  0.69579  0.82698  1.0000
  N   N56       1.0  0.73796  0.63882  0.60068  1.0000
  C   C738      1.0  0.62837  0.88887  0.91120  1.0000
  H   H1266     1.0  0.54433  0.54151  0.90183  1.0000
  Fe  Fe105     1.0  0.68684  0.84749  0.97484  1.0000
  H   H1267     1.0  0.72529  0.66772  0.61182  1.0000
  H   H1268     1.0  0.68683  0.96112  0.87391  1.0000
  H   H1269     1.0  0.61387  0.76469  0.60605  1.0000
  H   H1270     1.0  0.68878  0.59132  0.58462  1.0000
  H   H1271     1.0  0.66016  0.91273  0.95726  1.0000
  H   H1272     1.0  0.70601  0.89654  0.88422  1.0000
  H   H1273     1.0  0.54597  0.72427  0.71046  1.0000
  H   H1274     1.0  0.57214  0.96774  0.76349  1.0000
  Fe  Fe106     1.0  0.74776  0.88839  0.49391  1.0000
  H   H1275     1.0  0.70608  0.89468  0.92103  1.0000
  H   H1276     1.0  0.55855  0.54672  0.86844  1.0000
  C   C739      1.0  0.71354  0.90859  0.90327  1.0000
  C   C740      1.0  0.70266  0.93284  0.96402  1.0000
  H   H1277     1.0  0.53485  0.92731  0.70555  1.0000
  H   H1278     1.0  0.53605  0.90041  0.77440  1.0000
  C   C741      1.0  0.74502  0.60228  0.57761  1.0000
  H   H1279     1.0  0.74973  0.51904  0.66945  1.0000
  C   C742      1.0  0.63511  0.52268  0.64298  1.0000
  H   H1280     1.0  0.52026  0.51614  0.50645  1.0000
  H   H1281     1.0  0.58698  0.52505  0.54365  1.0000
  H   H1282     1.0  0.75152  0.51983  0.59040  1.0000
  H   H1283     1.0  0.70195  0.51079  0.69966  1.0000
  H   H1284     1.0  0.67917  0.61442  0.59923  1.0000
  H   H1285     1.0  0.53405  0.51526  0.82295  1.0000
  H   H1286     1.0  0.73270  0.51481  0.71199  1.0000
  H   H1287     1.0  0.67399  0.58540  0.61778  1.0000
  H   H1288     1.0  0.61892  0.51379  0.52488  1.0000
  H   H1289     1.0  0.57073  0.52069  0.48271  1.0000
  H   H1290     1.0  0.51102  0.70136  0.79905  1.0000
  C   C743      1.0  0.75205  0.68437  0.57653  1.0000
  H   H1291     1.0  0.54028  0.97021  0.69142  1.0000
  H   H1292     1.0  0.51856  0.87919  0.72671  1.0000
  H   H1293     1.0  0.52323  0.72437  0.68583  1.0000
  H   H1294     1.0  0.50610  0.53983  0.58690  1.0000
  Fe  Fe107     1.0  0.84369  0.14542  0.46004  1.0000
  H   H1295     1.0  0.88941  0.06703  0.01298  1.0000
  C   C744      1.0  0.90298  0.14524  0.02817  1.0000
  Fe  Fe108     1.0  0.84495  0.12967  0.39955  1.0000
  S   S208      1.0  0.85782  0.09987  0.41324  1.0000
  S   S209      1.0  0.83843  0.13028  0.35252  1.0000
  Fe  Fe109     1.0  0.82709  0.08672  0.44691  1.0000
  H   H1296     1.0  0.95402  0.49555  0.41828  1.0000
  Fe  Fe110     1.0  0.88642  0.13233  0.44232  1.0000
  S   S210      1.0  0.92946  0.13941  0.44523  1.0000
  S   S211      1.0  0.81256  0.11465  0.43172  1.0000
  S   S212      1.0  0.87536  0.16277  0.42682  1.0000
  Fe  Fe111     1.0  0.80087  0.22733  0.16317  1.0000
  S   S213      1.0  0.83244  0.21618  0.17349  1.0000
  S   S214      1.0  0.80596  0.26943  0.15635  1.0000
  H   H1297     1.0  0.94024  0.38082  0.02971  1.0000
  S   S215      1.0  0.78324  0.15392  0.18009  1.0000
  Fe  Fe112     1.0  0.80462  0.19006  0.20746  1.0000
  S   S216      1.0  0.81655  0.19224  0.25332  1.0000
  Fe  Fe113     1.0  0.80843  0.18060  0.14539  1.0000
  S   S217      1.0  0.82504  0.16159  0.11584  1.0000
  S   S218      1.0  0.77416  0.20318  0.19851  1.0000
  S   S219      1.0  0.77872  0.19335  0.13293  1.0000
  Fe  Fe114     1.0  0.90066  0.47463  0.10460  1.0000
  Fe  Fe115     1.0  0.91031  0.42608  0.10910  1.0000
  S   S220      1.0  0.95347  0.45237  0.09697  1.0000
  S   S221      1.0  0.90233  0.38273  0.11451  1.0000
  Fe  Fe116     1.0  0.95382  0.48309  0.12567  1.0000
  H   H1298     1.0  0.99838  0.45056  0.16465  1.0000
  Fe  Fe117     1.0  0.93984  0.47019  0.06371  1.0000
  H   H1299     1.0  0.91327  0.10890  0.35663  1.0000
  S   S222      1.0  0.91148  0.45596  0.13998  1.0000
  S   S223      1.0  0.89638  0.44248  0.07477  1.0000
  H   H1300     1.0  0.86165  0.07275  0.01141  1.0000
  C   C745      1.0  0.95506  0.21069  0.40156  1.0000
  H   H1301     1.0  0.91362  0.17039  0.06414  1.0000
  C   C746      1.0  0.99294  0.49431  0.24732  1.0000
  H   H1302     1.0  0.80165  0.03748  0.97791  1.0000
  H   H1303     1.0  0.92091  0.23501  0.04025  1.0000
  H   H1304     1.0  0.95477  0.22613  0.38818  1.0000
  H   H1305     1.0  0.95974  0.24811  0.02082  1.0000
  H   H1306     1.0  0.88494  0.43034  0.38443  1.0000
  C   C747      1.0  0.89922  0.43063  0.36895  1.0000
  C   C748      1.0  0.88877  0.35036  0.00919  1.0000
  C   C749      1.0  0.83305  0.30070  0.14453  1.0000
  C   C750      1.0  0.85727  0.30328  0.13530  1.0000
  C   C751      1.0  0.87803  0.32848  0.12596  1.0000
  C   C752      1.0  0.87499  0.35146  0.12587  1.0000
  C   C753      1.0  0.85084  0.34895  0.13508  1.0000
  C   C754      1.0  0.83000  0.32369  0.14426  1.0000
  H   H1307     1.0  0.85991  0.28582  0.13531  1.0000
  H   H1308     1.0  0.89660  0.33015  0.11882  1.0000
  H   H1309     1.0  0.84814  0.36638  0.13517  1.0000
  H   H1310     1.0  0.81135  0.32193  0.15131  1.0000
  C   C755      1.0  0.98375  0.16623  0.45658  1.0000
  H   H1311     1.0  0.84987  0.36141  0.99840  1.0000
  C   C756      1.0  0.88695  0.20675  0.06378  1.0000
  H   H1312     1.0  0.95230  0.15213  0.35378  1.0000
  H   H1313     1.0  0.95207  0.44028  0.34019  1.0000
  H   H1314     1.0  0.92048  0.48247  0.40719  1.0000
  H   H1315     1.0  0.87612  0.17534  0.00768  1.0000
  C   C757      1.0  0.83182  0.14768  0.32544  1.0000
  C   C758      1.0  0.82737  0.13716  0.29862  1.0000
  C   C759      1.0  0.82258  0.15028  0.27640  1.0000
  C   C760      1.0  0.82243  0.17445  0.28051  1.0000
  C   C761      1.0  0.82683  0.18495  0.30732  1.0000
  C   C762      1.0  0.83130  0.17165  0.32960  1.0000
  H   H1316     1.0  0.82769  0.11867  0.29497  1.0000
  H   H1317     1.0  0.81932  0.14184  0.25604  1.0000
  H   H1318     1.0  0.82668  0.20353  0.31094  1.0000
  H   H1319     1.0  0.83447  0.18006  0.34997  1.0000
  C   C763      1.0  0.81843  0.15775  0.02168  1.0000
  C   C764      1.0  0.82636  0.14168  0.03613  1.0000
  C   C765      1.0  0.82756  0.14258  0.06500  1.0000
  C   C766      1.0  0.82088  0.15952  0.07974  1.0000
  C   C767      1.0  0.81236  0.17513  0.06533  1.0000
  C   C768      1.0  0.81107  0.17416  0.03646  1.0000
  H   H1320     1.0  0.83173  0.12870  0.02506  1.0000
  H   H1321     1.0  0.83401  0.13031  0.07600  1.0000
  H   H1322     1.0  0.80730  0.18836  0.07638  1.0000
  H   H1323     1.0  0.80482  0.18660  0.02548  1.0000
  H   H1324     1.0  0.94756  0.43775  0.39225  1.0000
  C   C769      1.0  0.98267  0.43039  0.15741  1.0000
  H   H1325     1.0  0.83176  0.02588  0.45609  1.0000
  C   C770      1.0  0.94265  0.20364  0.02224  1.0000
  N   N57       1.0  0.94454  0.40222  0.19272  1.0000
  C   C771      1.0  0.92456  0.40610  0.20938  1.0000
  C   C772      1.0  0.96614  0.40480  0.21219  1.0000
  C   C773      1.0  0.93007  0.37394  0.18148  1.0000
  C   C774      1.0  0.95508  0.42298  0.16995  1.0000
  C   C775      1.0  0.89845  0.40033  0.19451  1.0000
  H   H1326     1.0  0.85863  0.39942  0.03720  1.0000
  C   C776      1.0  0.94640  0.36565  0.16302  1.0000
  H   H1327     1.0  0.96433  0.36732  0.17334  1.0000
  H   H1328     1.0  0.91845  0.39314  0.22811  1.0000
  H   H1329     1.0  0.93374  0.42722  0.21687  1.0000
  C   C777      1.0  0.96701  0.48824  0.20539  1.0000
  H   H1330     1.0  0.95736  0.38890  0.22838  1.0000
  H   H1331     1.0  0.92144  0.35893  0.19849  1.0000
  H   H1332     1.0  0.91274  0.37066  0.16869  1.0000
  H   H1333     1.0  0.94039  0.41661  0.15288  1.0000
  H   H1334     1.0  0.95709  0.44231  0.17719  1.0000
  H   H1335     1.0  0.88416  0.37833  0.19310  1.0000
  H   H1336     1.0  0.88822  0.40913  0.20642  1.0000
  H   H1337     1.0  0.90220  0.40928  0.17372  1.0000
  H   H1338     1.0  0.91949  0.21887  0.34695  1.0000
  N   N58       1.0  0.88614  0.37275  0.02231  1.0000
  H   H1339     1.0  0.92882  0.21901  0.06675  1.0000
  S   S224      1.0  0.99329  0.48809  0.28292  1.0000
  C   C778      1.0  0.96819  0.48507  0.23394  1.0000
  C   C779      1.0  0.93457  0.39402  0.04096  1.0000
  C   C780      1.0  0.81268  0.00920  0.46260  1.0000
  H   H1340     1.0  0.88786  0.42041  0.35011  1.0000
  H   H1341     1.0  0.76511  0.12353  0.06391  1.0000
  H   H1342     1.0  0.83087  0.34960  0.04249  1.0000
  C   C781      1.0  0.89558  0.21632  0.99459  1.0000
  S   S225      1.0  0.95204  0.46637  0.01929  1.0000
  H   H1343     1.0  0.92117  0.45996  0.44843  1.0000
  H   H1344     1.0  0.95187  0.37716  0.14347  1.0000
  S   S226      1.0  0.79243  0.04470  0.45920  1.0000
  H   H1345     1.0  0.88013  0.42201  0.01084  1.0000
  H   H1346     1.0  0.87610  0.38041  0.06303  1.0000
  H   H1347     1.0  0.94980  0.47521  0.24568  1.0000
  H   H1348     1.0  0.92352  0.14823  0.02618  1.0000
  C   C782      1.0  0.00477  0.47149  0.46208  1.0000
  H   H1349     1.0  0.81996  0.49110  0.10633  1.0000
  C   C783      1.0  0.95966  0.16700  0.45840  1.0000
  C   C784      1.0  0.99063  0.50072  0.18992  1.0000
  C   C785      1.0  0.93328  0.15228  0.34987  1.0000
  H   H1350     1.0  0.89310  0.16048  0.36829  1.0000
  C   C786      1.0  0.87742  0.07210  0.99884  1.0000
  H   H1351     1.0  0.88271  0.19195  0.08056  1.0000
  H   H1352     1.0  0.98120  0.40114  0.20203  1.0000
  H   H1353     1.0  0.88808  0.02266  0.98428  1.0000
  H   H1354     1.0  0.92822  0.38623  0.06204  1.0000
  H   H1355     1.0  0.98174  0.43258  0.13487  1.0000
  H   H1356     1.0  0.76575  0.16387  0.32318  1.0000
  H   H1357     1.0  0.97835  0.43909  0.35867  1.0000
  C   C787      1.0  0.90633  0.20165  0.36036  1.0000
  H   H1358     1.0  0.93352  0.34411  0.15741  1.0000
  H   H1359     1.0  0.95409  0.20343  0.04065  1.0000
  S   S227      1.0  0.94339  0.50346  0.09155  1.0000
  C   C788      1.0  0.84367  0.34169  0.05063  1.0000
  H   H1360     1.0  0.94394  0.20991  0.42046  1.0000
  H   H1361     1.0  0.91335  0.05645  0.98492  1.0000
  H   H1362     1.0  0.89089  0.12591  0.03935  1.0000
  C   C789      1.0  0.93702  0.47766  0.40843  1.0000
  H   H1363     1.0  0.98459  0.47032  0.34453  1.0000
  H   H1364     1.0  0.95712  0.17474  0.39408  1.0000
  C   C790      1.0  0.95907  0.23152  0.00862  1.0000
  H   H1365     1.0  0.90763  0.41802  0.37616  1.0000
  C   C791      1.0  0.91412  0.21507  0.04997  1.0000
  C   C792      1.0  0.89731  0.19155  0.00461  1.0000
  H   H1366     1.0  0.97606  0.21786  0.40819  1.0000
  C   C793      1.0  0.86910  0.37961  0.00415  1.0000
  H   H1367     1.0  0.87013  0.19810  0.04899  1.0000
  S   S228      1.0  0.86583  0.48366  0.10415  1.0000
  H   H1368     1.0  0.92645  0.46046  0.33980  1.0000
  N   N59       1.0  0.91406  0.19504  0.02989  1.0000
  H   H1369     1.0  0.98019  0.23606  0.00659  1.0000
  N   N60       1.0  0.94483  0.47318  0.38015  1.0000
  H   H1370     1.0  0.89388  0.14282  0.00760  1.0000
  H   H1371     1.0  0.94342  0.18923  0.00758  1.0000
  H   H1372     1.0  0.89883  0.34278  0.02330  1.0000
  C   C794      1.0  0.96894  0.45168  0.35455  1.0000
  H   H1373     1.0  0.88751  0.22465  0.07326  1.0000
  H   H1374     1.0  0.84472  0.39910  0.00502  1.0000
  H   H1375     1.0  0.94211  0.19053  0.47195  1.0000
  C   C795      1.0  0.98479  0.20450  0.34354  1.0000
  H   H1376     1.0  0.94784  0.48101  0.19534  1.0000
  H   H1377     1.0  0.95302  0.41405  0.04288  1.0000
  C   C796      1.0  0.96040  0.18959  0.47030  1.0000
  C   C797      1.0  0.90277  0.16821  0.04449  1.0000
  C   C798      1.0  0.79059  0.01303  0.46562  1.0000
  H   H1378     1.0  0.95813  0.22040  0.34586  1.0000
  H   H1379     1.0  0.88425  0.35455  0.06192  1.0000
  H   H1380     1.0  0.88545  0.19683  0.35574  1.0000
  H   H1381     1.0  0.90453  0.18449  0.98702  1.0000
  H   H1382     1.0  0.85135  0.03118  0.98733  1.0000
  C   C799      1.0  0.91108  0.12624  0.36336  1.0000
  C   C800      1.0  0.95956  0.45752  0.38197  1.0000
  H   H1383     1.0  0.88147  0.16046  0.05021  1.0000
  H   H1384     1.0  0.98939  0.41557  0.16064  1.0000
  H   H1385     1.0  0.99180  0.20624  0.36501  1.0000
  H   H1386     1.0  0.89009  0.09265  0.99034  1.0000
  C   C801      1.0  0.98176  0.43210  0.22694  1.0000
  H   H1387     1.0  0.89071  0.12173  0.35692  1.0000
  H   H1388     1.0  0.94587  0.45254  0.43617  1.0000
  H   H1389     1.0  0.91099  0.41328  0.03727  1.0000
  H   H1390     1.0  0.91262  0.12690  0.38601  1.0000
  H   H1391     1.0  0.94998  0.19678  0.31966  1.0000
  C   C802      1.0  0.92849  0.45471  0.42965  1.0000
  H   H1392     1.0  0.92470  0.16875  0.40191  1.0000
  C   C803      1.0  0.94270  0.18194  0.38944  1.0000
  H   H1393     1.0  0.97758  0.46845  0.39516  1.0000
  C   C804      1.0  0.90389  0.35729  0.98158  1.0000
  H   H1394     1.0  0.98614  0.18799  0.33317  1.0000
  H   H1395     1.0  0.99903  0.22349  0.33281  1.0000
  H   H1396     1.0  0.96917  0.49855  0.34643  1.0000
  H   H1397     1.0  0.87922  0.38764  0.98412  1.0000
  H   H1398     1.0  0.91537  0.23448  0.99154  1.0000
  H   H1399     1.0  0.91213  0.43515  0.42229  1.0000
  H   H1400     1.0  0.90963  0.20740  0.38225  1.0000
  C   C805      1.0  0.87367  0.36328  0.05024  1.0000
  C   C806      1.0  0.91310  0.39775  0.02570  1.0000
  H   H1401     1.0  0.96936  0.43429  0.24302  1.0000
  C   C807      1.0  0.86312  0.40141  0.01504  1.0000
  H   H1402     1.0  0.92163  0.40747  0.00557  1.0000
  C   C808      1.0  0.92065  0.45979  0.36169  1.0000
  H   H1403     1.0  0.92987  0.14987  0.32730  1.0000
  H   H1404     1.0  0.88342  0.22115  0.00861  1.0000
  H   H1405     1.0  0.90144  0.16988  0.33339  1.0000
  C   C809      1.0  0.90847  0.17631  0.35482  1.0000
  N   N61       1.0  0.93544  0.17844  0.35940  1.0000
  C   C810      1.0  0.95623  0.20056  0.34159  1.0000
  H   H1406     1.0  0.83742  0.33560  0.07225  1.0000
  C   C811      1.0  0.97149  0.48527  0.99012  1.0000
  H   H1407     1.0  0.90976  0.47133  0.36157  1.0000
  H   H1408     1.0  0.99947  0.43331  0.23751  1.0000
  S   S229      1.0  0.99032  0.50442  0.15382  1.0000
  H   H1409     1.0  0.98348  0.14887  0.44748  1.0000
  H   H1410     1.0  0.83960  0.32324  0.03943  1.0000
  S   S230      1.0  0.81784  0.15845  0.98532  1.0000
  C   C812      1.0  0.96408  0.50044  0.36801  1.0000
  H   H1411     1.0  0.95191  0.23149  0.98751  1.0000
  H   H1412     1.0  0.86863  0.33264  0.00524  1.0000
  H   H1413     1.0  0.77033  0.13891  0.30662  1.0000
  H   H1414     1.0  0.76365  0.16965  0.27355  1.0000
  H   H1415     1.0  0.98927  0.44936  0.21254  1.0000
  H   H1416     1.0  0.92468  0.37440  0.98318  1.0000
  H   H1417     1.0  0.76962  0.13969  0.24571  1.0000
  H   H1418     1.0  0.97319  0.14976  0.98055  1.0000
  H   H1419     1.0  0.75786  0.11343  0.27050  1.0000
  H   H1420     1.0  0.75810  0.09748  0.22413  1.0000
  H   H1421     1.0  0.75592  0.18332  0.06952  1.0000
  S   S231      1.0  0.85645  0.11693  0.47705  1.0000
  Fe  Fe118     1.0  0.83442  0.13984  0.95528  1.0000
  C   C813      1.0  0.98929  0.47131  0.48470  1.0000
  H   H1422     1.0  0.76443  0.12042  0.50565  1.0000
  Fe  Fe119     1.0  0.84974  0.14286  0.89429  1.0000
  S   S232      1.0  0.86557  0.11418  0.90171  1.0000
  S   S233      1.0  0.85567  0.16199  0.85107  1.0000
  Fe  Fe120     1.0  0.82846  0.08943  0.92715  1.0000
  H   H1423     1.0  0.86501  0.12262  0.81638  1.0000
  Fe  Fe121     1.0  0.88465  0.13751  0.94026  1.0000
  H   H1424     1.0  0.92337  0.09873  0.90799  1.0000
  S   S234      1.0  0.81151  0.11679  0.91757  1.0000
  S   S235      1.0  0.87169  0.16794  0.93142  1.0000
  Fe  Fe122     1.0  0.81663  0.23489  0.66729  1.0000
  S   S236      1.0  0.82968  0.20493  0.67970  1.0000
  S   S237      1.0  0.85038  0.27921  0.66613  1.0000
  S   S238      1.0  0.84848  0.11066  0.96628  1.0000
  S   S239      1.0  0.76731  0.15713  0.67145  1.0000
  Fe  Fe123     1.0  0.79261  0.18442  0.70600  1.0000
  S   S240      1.0  0.78522  0.16598  0.74982  1.0000
  Fe  Fe124     1.0  0.80373  0.18021  0.64452  1.0000
  S   S241      1.0  0.82073  0.16058  0.61642  1.0000
  S   S242      1.0  0.78120  0.21612  0.69606  1.0000
  S   S243      1.0  0.79256  0.21091  0.63098  1.0000
  Fe  Fe125     1.0  0.91096  0.48465  0.60237  1.0000
  Fe  Fe126     1.0  0.90489  0.42813  0.59664  1.0000
  S   S244      1.0  0.94838  0.44425  0.58506  1.0000
  S   S245      1.0  0.87243  0.38332  0.59551  1.0000
  Fe  Fe127     1.0  0.95656  0.47378  0.61949  1.0000
  C   C814      1.0  0.86365  0.05058  0.97630  1.0000
  Fe  Fe128     1.0  0.94365  0.47345  0.55740  1.0000
  H   H1425     1.0  0.87489  0.46858  0.69076  1.0000
  S   S246      1.0  0.91358  0.45605  0.63279  1.0000
  S   S247      1.0  0.89957  0.45585  0.56685  1.0000
  C   C815      1.0  0.00556  0.41514  0.74912  1.0000
  H   H1426     1.0  0.79864  0.11617  0.74220  1.0000
  H   H1427     1.0  0.91841  0.30713  0.55126  1.0000
  H   H1428     1.0  0.81184  0.48710  0.65292  1.0000
  C   C816      1.0  0.83679  0.25439  0.58210  1.0000
  H   H1429     1.0  0.89307  0.06951  0.89795  1.0000
  C   C817      1.0  0.91862  0.03456  0.95284  1.0000
  C   C818      1.0  0.96975  0.47759  0.72638  1.0000
  C   C819      1.0  0.96970  0.47635  0.69756  1.0000
  H   H1430     1.0  0.95130  0.46534  0.73753  1.0000
  H   H1431     1.0  0.95134  0.46317  0.68671  1.0000
  C   C820      1.0  0.85573  0.30797  0.64661  1.0000
  C   C821      1.0  0.83703  0.30703  0.62756  1.0000
  C   C822      1.0  0.84254  0.33024  0.61219  1.0000
  C   C823      1.0  0.86660  0.35483  0.61583  1.0000
  C   C824      1.0  0.88526  0.35579  0.63494  1.0000
  C   C825      1.0  0.87987  0.33249  0.65012  1.0000
  H   H1432     1.0  0.81823  0.28850  0.62483  1.0000
  H   H1433     1.0  0.82788  0.32926  0.59758  1.0000
  H   H1434     1.0  0.90386  0.37446  0.63799  1.0000
  H   H1435     1.0  0.89448  0.33353  0.66481  1.0000
  S   S248      1.0  0.92442  0.14349  0.95753  1.0000
  H   H1436     1.0  0.81122  0.10829  0.51723  1.0000
  H   H1437     1.0  0.98942  0.47384  0.92643  1.0000
  H   H1438     1.0  0.99431  0.23623  0.59687  1.0000
  S   S249      1.0  0.99212  0.49507  0.77714  1.0000
  S   S250      1.0  0.83252  0.17129  0.48642  1.0000
  C   C826      1.0  0.97763  0.16927  0.97268  1.0000
  C   C827      1.0  0.83575  0.16470  0.82411  1.0000
  C   C828      1.0  0.84841  0.17784  0.79947  1.0000
  C   C829      1.0  0.83349  0.17892  0.77680  1.0000
  C   C830      1.0  0.80552  0.16688  0.77834  1.0000
  C   C831      1.0  0.79288  0.15408  0.80314  1.0000
  C   C832      1.0  0.80780  0.15303  0.82584  1.0000
  H   H1439     1.0  0.86997  0.18703  0.79776  1.0000
  H   H1440     1.0  0.84365  0.18889  0.75805  1.0000
  H   H1441     1.0  0.77131  0.14477  0.80477  1.0000
  H   H1442     1.0  0.79766  0.14302  0.84457  1.0000
  C   C833      1.0  0.83004  0.16893  0.52264  1.0000
  C   C834      1.0  0.84342  0.15856  0.53806  1.0000
  C   C835      1.0  0.84058  0.15648  0.56676  1.0000
  C   C836      1.0  0.82444  0.16480  0.58040  1.0000
  C   C837      1.0  0.81136  0.17558  0.56505  1.0000
  C   C838      1.0  0.81430  0.17778  0.53631  1.0000
  H   H1443     1.0  0.85595  0.15209  0.52787  1.0000
  H   H1444     1.0  0.85094  0.14831  0.57849  1.0000
  H   H1445     1.0  0.79860  0.18174  0.57526  1.0000
  H   H1446     1.0  0.80385  0.18582  0.52455  1.0000
  H   H1447     1.0  0.89129  0.24513  0.58215  1.0000
  C   C839      1.0  0.86439  0.02789  0.93461  1.0000
  H   H1448     1.0  0.76885  0.05725  0.83614  1.0000
  C   C840      1.0  0.81799  0.08519  0.54757  1.0000
  H   H1449     1.0  0.92307  0.02022  0.96396  1.0000
  N   N62       1.0  0.88201  0.04849  0.95558  1.0000
  C   C841      1.0  0.80045  0.08712  0.52465  1.0000
  H   H1450     1.0  0.88088  0.29613  0.59958  1.0000
  C   C842      1.0  0.96334  0.19749  0.94965  1.0000
  H   H1451     1.0  0.89388  0.48714  0.66180  1.0000
  H   H1452     1.0  0.84914  0.05516  0.96573  1.0000
  H   H1453     1.0  0.76676  0.05157  0.56588  1.0000
  H   H1454     1.0  0.88825  0.26767  0.62619  1.0000
  H   H1455     1.0  0.97040  0.41319  0.72995  1.0000
  H   H1456     1.0  0.87794  0.30316  0.56542  1.0000
  H   H1457     1.0  0.98510  0.22827  0.48945  1.0000
  H   H1458     1.0  0.77849  0.03237  0.52371  1.0000
  C   C843      1.0  0.86211  0.11830  0.79412  1.0000
  C   C844      1.0  0.95725  0.17210  0.95965  1.0000
  H   H1459     1.0  0.79014  0.04043  0.80801  1.0000
  H   H1460     1.0  0.81629  0.12197  0.78778  1.0000
  H   H1461     1.0  0.77096  0.05022  0.78731  1.0000
  H   H1462     1.0  0.88204  0.24706  0.50813  1.0000
  C   C845      1.0  0.77268  0.09903  0.55273  1.0000
  H   H1463     1.0  0.98391  0.45638  0.50077  1.0000
  C   C846      1.0  0.79425  0.01787  0.96869  1.0000
  H   H1464     1.0  0.82393  0.10687  0.74157  1.0000
  H   H1465     1.0  0.82272  0.23226  0.58090  1.0000
  H   H1466     1.0  0.83499  0.29038  0.56795  1.0000
  C   C847      1.0  0.98485  0.21097  0.48026  1.0000
  H   H1467     1.0  0.84477  0.07537  0.79899  1.0000
  H   H1468     1.0  0.81992  0.07643  0.83774  1.0000
  H   H1469     1.0  0.93782  0.05341  0.94874  1.0000
  S   S251      1.0  0.96167  0.49171  0.51476  1.0000
  N   N63       1.0  0.81139  0.08269  0.79579  1.0000
  H   H1470     1.0  0.90800  0.49969  0.72279  1.0000
  H   H1471     1.0  0.83702  0.26007  0.60390  1.0000
  H   H1472     1.0  0.97873  0.20411  0.61328  1.0000
  C   C848      1.0  0.78365  0.07885  0.83920  1.0000
  H   H1473     1.0  0.92030  0.28715  0.57922  1.0000
  H   H1474     1.0  0.87599  0.02715  0.91689  1.0000
  H   H1475     1.0  0.85900  0.13372  0.78353  1.0000
  H   H1476     1.0  0.90473  0.26357  0.53581  1.0000
  C   C849      1.0  0.98945  0.21975  0.95287  1.0000
  H   H1477     1.0  0.92089  0.06648  0.91162  1.0000
  C   C850      1.0  0.79334  0.01548  0.94014  1.0000
  C   C851      1.0  0.80324  0.10086  0.78130  1.0000
  C   C852      1.0  0.81125  0.08725  0.82626  1.0000
  H   H1478     1.0  0.96339  0.44946  0.96794  1.0000
  H   H1479     1.0  0.99544  0.39274  0.74912  1.0000
  S   S252      1.0  0.95462  0.50374  0.59124  1.0000
  H   H1480     1.0  0.75644  0.48430  0.65113  1.0000
  C   C853      1.0  0.79745  0.04009  0.76554  1.0000
  S   S253      1.0  0.80572  0.04404  0.91786  1.0000
  C   C854      1.0  0.83947  0.08928  0.78811  1.0000
  H   H1481     1.0  0.83850  0.09252  0.53936  1.0000
  C   C855      1.0  0.82361  0.26813  0.56600  1.0000
  H   H1482     1.0  0.78847  0.08127  0.74137  1.0000
  C   C856      1.0  0.86295  0.25490  0.54254  1.0000
  H   H1483     1.0  0.81045  0.06415  0.55454  1.0000
  H   H1484     1.0  0.88106  0.23352  0.62923  1.0000
  H   H1485     1.0  0.92514  0.31935  0.58604  1.0000
  H   H1486     1.0  0.80342  0.26138  0.57482  1.0000
  C   C857      1.0  0.88388  0.24821  0.53083  1.0000
  H   H1487     1.0  0.92190  0.48481  0.70188  1.0000
  H   H1488     1.0  0.80180  0.05183  0.74632  1.0000
  H   H1489     1.0  0.89299  0.36150  0.96526  1.0000
  C   C858      1.0  0.89844  0.07598  0.94243  1.0000
  C   C859      1.0  0.87388  0.24665  0.62012  1.0000
  H   H1490     1.0  0.82056  0.26241  0.54407  1.0000
  H   H1491     1.0  0.88136  0.12076  0.78634  1.0000
  H   H1492     1.0  0.78219  0.09813  0.57229  1.0000
  H   H1493     1.0  0.85404  0.24015  0.62940  1.0000
  H   H1494     1.0  0.82408  0.10888  0.83136  1.0000
  H   H1495     1.0  0.98772  0.20624  0.57812  1.0000
  H   H1496     1.0  0.82010  0.09808  0.56532  1.0000
  H   H1497     1.0  0.87988  0.22803  0.53790  1.0000
  H   H1498     1.0  0.85703  0.22136  0.58482  1.0000
  H   H1499     1.0  0.86418  0.27193  0.53020  1.0000
  C   C860      1.0  0.79157  0.05332  0.79012  1.0000
  H   H1500     1.0  0.77966  0.01997  0.76169  1.0000
  H   H1501     1.0  0.84318  0.23704  0.53729  1.0000
  H   H1502     1.0  0.96941  0.41411  0.76640  1.0000
  H   H1503     1.0  0.90960  0.02447  0.93327  1.0000
  C   C861      1.0  0.98076  0.49033  0.48643  1.0000
  C   C862      1.0  0.91334  0.30126  0.57309  1.0000
  H   H1504     1.0  0.99380  0.23934  0.94535  1.0000
  H   H1505     1.0  0.84105  0.08607  0.76596  1.0000
  H   H1506     1.0  0.85010  0.03362  0.92556  1.0000
  H   H1507     1.0  0.84755  0.47992  0.63277  1.0000
  C   C863      1.0  0.88326  0.29044  0.57837  1.0000
  C   C864      1.0  0.80378  0.10090  0.74982  1.0000
  C   C865      1.0  0.97344  0.47124  0.96731  1.0000
  H   H1508     1.0  0.80096  0.07517  0.50702  1.0000
  H   H1509     1.0  0.78255  0.09583  0.78706  1.0000
  C   C866      1.0  0.99428  0.21686  0.59801  1.0000
  C   C867      1.0  0.87188  0.24289  0.58880  1.0000
  H   H1510     1.0  0.88645  0.08639  0.94063  1.0000
  C   C868      1.0  0.88986  0.48910  0.68354  1.0000
  H   H1511     1.0  0.88023  0.50174  0.68497  1.0000
  N   N64       1.0  0.86445  0.26095  0.57285  1.0000
  C   C869      1.0  0.98295  0.42229  0.74847  1.0000
  H   H1512     1.0  0.77531  0.09152  0.83171  1.0000
  H   H1513     1.0  0.94792  0.20004  0.93962  1.0000
  H   H1514     1.0  0.81449  0.03668  0.77017  1.0000
  C   C870      1.0  0.99336  0.49213  0.68286  1.0000
  Fe  Fe129     1.0  0.75783  0.18970  0.66033  1.0000
  H   H1515     1.0  0.78541  0.11992  0.54500  1.0000
  H   H1516     1.0  0.78633  0.08208  0.86170  1.0000
  C   C871      1.0  0.76655  0.10582  0.49255  1.0000
  H   H1517     1.0  0.99084  0.44426  0.74690  1.0000
  C   C872      1.0  0.85048  0.50009  0.63429  1.0000
  C   C873      1.0  0.90946  0.07725  0.91337  1.0000
  C   C874      1.0  0.89985  0.04031  0.97053  1.0000
  H   H1518     1.0  0.99471  0.41970  0.80276  1.0000
  S   S254      1.0  0.99404  0.49198  0.64648  1.0000
  H   H1519     1.0  0.99847  0.39150  0.79751  1.0000
  C   C875      1.0  0.99346  0.49437  0.74088  1.0000
  C   C876      1.0  0.98825  0.48505  0.94365  1.0000
  H   H1520     1.0  0.91597  0.08928  0.95554  1.0000
  N   N65       1.0  0.77202  0.07893  0.53240  1.0000
  H   H1521     1.0  0.76209  0.49930  0.60796  1.0000
  C   C877      1.0  0.91516  0.50004  0.70168  1.0000
  C   C878      1.0  0.83022  0.50424  0.64569  1.0000
  H   H1522     1.0  0.78756  0.11491  0.48544  1.0000
  C   C879      1.0  0.00375  0.19151  0.97581  1.0000
  H   H1523     1.0  0.75871  0.06527  0.49097  1.0000
  H   H1524     1.0  0.88503  0.21149  0.97454  1.0000
  H   H1525     1.0  0.90538  0.33957  0.97473  1.0000
  C   C880      1.0  0.75806  0.05130  0.54538  1.0000
  C   C881      1.0  0.75802  0.02855  0.52843  1.0000
  C   C882      1.0  0.75702  0.07834  0.50677  1.0000
  H   H1526     1.0  0.00184  0.26395  0.89372  1.0000
  H   H1527     1.0  0.82636  0.89866  0.43955  1.0000
  C   C883      1.0  0.88242  0.57051  0.06829  1.0000
  H   H1528     1.0  0.88710  0.65744  0.03565  1.0000
  H   H1529     1.0  0.79270  0.87209  0.43702  1.0000
  Fe  Fe130     1.0  0.80942  0.57787  0.17128  1.0000
  S   S255      1.0  0.82682  0.62221  0.18004  1.0000
  S   S256      1.0  0.84239  0.56632  0.17062  1.0000
  Fe  Fe131     1.0  0.79267  0.61111  0.20902  1.0000
  S   S257      1.0  0.79087  0.63259  0.24828  1.0000
  Fe  Fe132     1.0  0.79978  0.62112  0.14620  1.0000
  S   S258      1.0  0.82013  0.65881  0.11955  1.0000
  H   H1530     1.0  0.80971  0.52236  0.13214  1.0000
  S   S259      1.0  0.78376  0.57734  0.13590  1.0000
  Fe  Fe133     1.0  0.85447  0.70483  0.40026  1.0000
  S   S260      1.0  0.88080  0.74961  0.40726  1.0000
  S   S261      1.0  0.85566  0.68389  0.36008  1.0000
  C   C884      1.0  0.87833  0.52512  0.14165  1.0000
  C   C885      1.0  0.83625  0.58169  0.06195  1.0000
  C   C886      1.0  0.78578  0.99483  0.98545  1.0000
  Fe  Fe134     1.0  0.84734  0.74603  0.43494  1.0000
  S   S262      1.0  0.83283  0.77676  0.42945  1.0000
  Fe  Fe135     1.0  0.89691  0.73966  0.44509  1.0000
  S   S263      1.0  0.76647  0.61301  0.17559  1.0000
  S   S264      1.0  0.82020  0.70183  0.42556  1.0000
  S   S265      1.0  0.87235  0.69514  0.43674  1.0000
  C   C887      1.0  0.87576  0.63361  0.11874  1.0000
  C   C888      1.0  0.87091  0.64153  0.04839  1.0000
  H   H1531     1.0  0.79804  0.54421  0.06311  1.0000
  C   C889      1.0  0.84779  0.54223  0.15283  1.0000
  C   C890      1.0  0.95437  0.52126  0.36721  1.0000
  H   H1532     1.0  0.86644  0.65200  0.06483  1.0000
  C   C891      1.0  0.82885  0.52331  0.13485  1.0000
  C   C892      1.0  0.77162  0.83335  0.06378  1.0000
  H   H1533     1.0  0.80964  0.55810  0.09630  1.0000
  C   C893      1.0  0.87447  0.58525  0.08948  1.0000
  H   H1534     1.0  0.82469  0.59201  0.05674  1.0000
  H   H1535     1.0  0.87346  0.92262  0.44727  1.0000
  H   H1536     1.0  0.84059  0.59491  0.11696  1.0000
  C   C894      1.0  0.83660  0.66876  0.32967  1.0000
  C   C895      1.0  0.84642  0.65730  0.31057  1.0000
  C   C896      1.0  0.83253  0.64561  0.28591  1.0000
  C   C897      1.0  0.80854  0.64527  0.27988  1.0000
  C   C898      1.0  0.79853  0.65644  0.29907  1.0000
  C   C899      1.0  0.81241  0.66810  0.32373  1.0000
  H   H1537     1.0  0.86506  0.65761  0.31488  1.0000
  H   H1538     1.0  0.84062  0.63720  0.27150  1.0000
  H   H1539     1.0  0.78007  0.65644  0.29471  1.0000
  H   H1540     1.0  0.80454  0.67679  0.33809  1.0000
  C   C900      1.0  0.82076  0.66005  0.08326  1.0000
  C   C901      1.0  0.80646  0.63691  0.06733  1.0000
  C   C902      1.0  0.80784  0.63886  0.03852  1.0000
  C   C903      1.0  0.82349  0.66388  0.02537  1.0000
  C   C904      1.0  0.83775  0.68700  0.04133  1.0000
  C   C905      1.0  0.83636  0.68506  0.07014  1.0000
  H   H1541     1.0  0.79421  0.61758  0.07716  1.0000
  H   H1542     1.0  0.79667  0.62090  0.02629  1.0000
  H   H1543     1.0  0.84987  0.70635  0.03146  1.0000
  H   H1544     1.0  0.84747  0.70307  0.08228  1.0000
  S   S266      1.0  0.86544  0.73917  0.47334  1.0000
  C   C906      1.0  0.81625  0.55492  0.07609  1.0000
  C   C907      1.0  0.00146  0.82793  0.46624  1.0000
  H   H1545     1.0  0.82458  0.54121  0.07853  1.0000
  H   H1546     1.0  0.89100  0.65316  0.47433  1.0000
  H   H1547     1.0  0.85654  0.73113  0.25637  1.0000
  H   H1548     1.0  0.81845  0.73002  0.23410  1.0000
  C   C908      1.0  0.87252  0.54296  0.15612  1.0000
  C   C909      1.0  0.97157  0.77934  0.46357  1.0000
  C   C910      1.0  0.80038  0.79879  0.43906  1.0000
  H   H1549     1.0  0.81852  0.86363  0.43855  1.0000
  H   H1550     1.0  0.98346  0.52467  0.00598  1.0000
  H   H1551     1.0  0.89887  0.58489  0.05478  1.0000
  C   C911      1.0  0.99326  0.77587  0.47160  1.0000
  H   H1552     1.0  0.81786  0.74965  0.20548  1.0000
  H   H1553     1.0  0.90015  0.63480  0.06986  1.0000
  S   S267      1.0  0.76746  0.94106  0.99619  1.0000
  H   H1554     1.0  0.84464  0.76374  0.22938  1.0000
  H   H1555     1.0  0.95943  0.80864  0.45486  1.0000
  H   H1556     1.0  0.79852  0.71119  0.17541  1.0000
  H   H1557     1.0  0.82732  0.98099  0.46536  1.0000
  H   H1558     1.0  0.85320  0.63083  0.03483  1.0000
  N   N66       1.0  0.84091  0.70748  0.20112  1.0000
  C   C912      1.0  0.85127  0.70125  0.17533  1.0000
  C   C913      1.0  0.81113  0.68788  0.20209  1.0000
  C   C914      1.0  0.85410  0.70214  0.22527  1.0000
  C   C915      1.0  0.84774  0.73662  0.20007  1.0000
  C   C916      1.0  0.88192  0.71704  0.17079  1.0000
  H   H1559     1.0  0.84166  0.57657  0.04184  1.0000
  Fe  Fe136     1.0  0.84019  0.69530  0.46247  1.0000
  C   C917      1.0  0.83094  0.74484  0.21833  1.0000
  H   H1560     1.0  0.84500  0.67944  0.17444  1.0000
  H   H1561     1.0  0.84245  0.70529  0.15681  1.0000
  H   H1562     1.0  0.86472  0.88805  0.45064  1.0000
  H   H1563     1.0  0.80738  0.66681  0.20161  1.0000
  H   H1564     1.0  0.84879  0.68050  0.22572  1.0000
  H   H1565     1.0  0.87630  0.71405  0.22373  1.0000
  H   H1566     1.0  0.86923  0.75002  0.20549  1.0000
  H   H1567     1.0  0.84566  0.74233  0.17870  1.0000
  H   H1568     1.0  0.88615  0.71345  0.14948  1.0000
  H   H1569     1.0  0.89055  0.73909  0.17312  1.0000
  H   H1570     1.0  0.89239  0.70964  0.18442  1.0000
  H   H1571     1.0  0.78336  0.82284  0.06610  1.0000
  H   H1572     1.0  0.99786  0.82660  0.00179  1.0000
  C   C918      1.0  0.79443  0.69031  0.17857  1.0000
  H   H1573     1.0  0.97078  0.54053  0.35880  1.0000
  H   H1574     1.0  0.86693  0.64058  0.13475  1.0000
  H   H1575     1.0  0.82620  0.69837  0.25857  1.0000
  H   H1576     1.0  0.80646  0.80742  0.41879  1.0000
  H   H1577     1.0  0.98341  0.50991  0.37956  1.0000
  H   H1578     1.0  0.88736  0.55750  0.16993  1.0000
  H   H1579     1.0  0.86529  0.55597  0.05570  1.0000
  H   H1580     1.0  0.83937  0.61899  0.09514  1.0000
  C   C919      1.0  0.77307  0.80229  0.97772  1.0000
  C   C920      1.0  0.80992  0.78206  0.44948  1.0000
  C   C921      1.0  0.78301  0.80441  0.45460  1.0000
  H   H1581     1.0  0.99034  0.75573  0.47341  1.0000
  H   H1582     1.0  0.76792  0.57789  0.30539  1.0000
  C   C922      1.0  0.88043  0.62239  0.05960  1.0000
  H   H1583     1.0  0.88895  0.65159  0.10621  1.0000
  H   H1584     1.0  0.98869  0.77874  0.06187  1.0000
  C   C923      1.0  0.85273  0.61118  0.10199  1.0000
  H   H1585     1.0  0.88776  0.62609  0.12958  1.0000
  H   H1586     1.0  0.83591  0.85040  0.47003  1.0000
  C   C924      1.0  0.84789  0.70909  0.25379  1.0000
  H   H1587     1.0  0.89322  0.59921  0.10056  1.0000
  H   H1588     1.0  0.89004  0.55863  0.07944  1.0000
  H   H1589     1.0  0.86164  0.57025  0.10513  1.0000
  H   H1590     1.0  0.89743  0.52599  0.14444  1.0000
  H   H1591     1.0  0.76313  0.83036  0.04289  1.0000
  H   H1592     1.0  0.78703  0.99701  0.00750  1.0000
  H   H1593     1.0  0.77577  0.81715  0.44623  1.0000
  H   H1594     1.0  0.77278  0.67761  0.18352  1.0000
  H   H1595     1.0  0.99361  0.78112  0.40883  1.0000
  C   C925      1.0  0.98821  0.50961  0.46523  1.0000
  C   C926      1.0  0.81009  0.98367  0.46790  1.0000
  H   H1596     1.0  0.80187  0.68883  0.22159  1.0000
  N   N67       1.0  0.86100  0.60014  0.07823  1.0000
  S   S268      1.0  0.94003  0.75014  0.45652  1.0000
  H   H1597     1.0  0.85758  0.70269  0.26959  1.0000
  H   H1598     1.0  0.76264  0.76522  0.06476  1.0000
  H   H1599     1.0  0.79764  0.68242  0.15907  1.0000
  C   C927      1.0  0.99835  0.81489  0.98470  1.0000
  S   S269      1.0  0.82512  0.66505  0.98910  1.0000
  S   S270      1.0  0.77686  0.56663  0.20301  1.0000
  H   H1600     1.0  0.78610  0.85526  0.06571  1.0000
  C   C928      1.0  0.97581  0.80556  0.46105  1.0000
  H   H1601     1.0  0.88495  0.61384  0.04127  1.0000
  C   C929      1.0  0.81239  0.87782  0.44658  1.0000
  C   C930      1.0  0.76596  0.99096  0.47411  1.0000
  H   H1602     1.0  0.94968  0.52582  0.38785  1.0000
  C   C931      1.0  0.00373  0.50983  0.44263  1.0000
  C   C932      1.0  0.98470  0.51348  0.98879  1.0000
  C   C933      1.0  0.80179  0.77096  0.47569  1.0000
  H   H1603     1.0  0.98200  0.52462  0.46636  1.0000
  C   C934      1.0  0.87298  0.90733  0.46176  1.0000
  C   C935      1.0  0.85946  0.50629  0.12355  1.0000
  H   H1604     1.0  0.76171  0.82884  0.10584  1.0000
  H   H1605     1.0  0.89421  0.91374  0.46676  1.0000
  C   C936      1.0  0.77139  0.77685  0.97894  1.0000
  H   H1606     1.0  0.93690  0.51492  0.35341  1.0000
  H   H1607     1.0  0.00455  0.84812  0.46398  1.0000
  H   H1608     1.0  0.95528  0.79469  0.97833  1.0000
  C   C937      1.0  0.83474  0.50560  0.12022  1.0000
  H   H1609     1.0  0.75644  0.57665  0.25596  1.0000
  C   C938      1.0  0.78548  0.96165  0.47645  1.0000
  H   H1610     1.0  0.00528  0.56096  0.28775  1.0000
  H   H1611     1.0  0.00566  0.76494  0.08064  1.0000
  C   C939      1.0  0.77708  0.79351  0.89477  1.0000
  C   C940      1.0  0.81716  0.79561  0.96192  1.0000
  C   C941      1.0  0.88985  0.66175  0.49432  1.0000
  S   S271      1.0  0.78429  0.62737  0.68458  1.0000
  Fe  Fe137     1.0  0.80341  0.57215  0.66838  1.0000
  S   S272      1.0  0.83445  0.61501  0.67843  1.0000
  S   S273      1.0  0.80696  0.53419  0.66183  1.0000
  Fe  Fe138     1.0  0.80673  0.61360  0.71221  1.0000
  S   S274      1.0  0.82288  0.62644  0.75657  1.0000
  Fe  Fe139     1.0  0.81014  0.62626  0.65039  1.0000
  S   S275      1.0  0.82935  0.66258  0.62168  1.0000
  S   S276      1.0  0.77713  0.56978  0.70381  1.0000
  S   S277      1.0  0.78094  0.58364  0.63796  1.0000
  Fe  Fe140     1.0  0.84882  0.71627  0.90045  1.0000
  S   S278      1.0  0.87877  0.75988  0.90903  1.0000
  S   S279      1.0  0.83348  0.70586  0.85561  1.0000
  H   H1612     1.0  0.97345  0.52824  0.71101  1.0000
  H   H1613     1.0  0.76034  0.64294  0.56356  1.0000
  S   S280      1.0  0.81756  0.65969  0.49176  1.0000
  Fe  Fe141     1.0  0.85286  0.75703  0.94510  1.0000
  S   S281      1.0  0.84504  0.79259  0.95030  1.0000
  Fe  Fe142     1.0  0.89974  0.74531  0.93762  1.0000
  S   S282      1.0  0.94443  0.75903  0.93070  1.0000
  S   S283      1.0  0.82170  0.71445  0.93491  1.0000
  S   S284      1.0  0.87091  0.70169  0.92731  1.0000
  C   C942      1.0  0.76559  0.66854  0.64147  1.0000
  S   S285      1.0  0.78342  0.92985  0.48261  1.0000
  H   H1614     1.0  0.92603  0.71625  0.77343  1.0000
  C   C943      1.0  0.83346  0.53030  0.64764  1.0000
  H   H1615     1.0  0.76747  0.94701  0.93638  1.0000
  H   H1616     1.0  0.97121  0.56577  0.65078  1.0000
  H   H1617     1.0  0.77299  0.69005  0.58152  1.0000
  C   C944      1.0  0.87765  0.54808  0.62687  1.0000
  C   C945      1.0  0.85740  0.55223  0.63823  1.0000
  C   C946      1.0  0.92913  0.54785  0.68931  1.0000
  H   H1618     1.0  0.91838  0.74089  0.78563  1.0000
  H   H1619     1.0  0.80562  0.86271  0.52965  1.0000
  H   H1620     1.0  0.86027  0.57238  0.63957  1.0000
  C   C947      1.0  0.83073  0.68345  0.82845  1.0000
  C   C948      1.0  0.82030  0.68545  0.80289  1.0000
  C   C949      1.0  0.81765  0.66829  0.78077  1.0000
  C   C950      1.0  0.82554  0.64882  0.78374  1.0000
  C   C951      1.0  0.83619  0.64700  0.80926  1.0000
  C   C952      1.0  0.83864  0.66400  0.83144  1.0000
  H   H1621     1.0  0.81405  0.70030  0.80015  1.0000
  H   H1622     1.0  0.80946  0.67010  0.76141  1.0000
  H   H1623     1.0  0.84224  0.63199  0.81201  1.0000
  H   H1624     1.0  0.84626  0.66171  0.85093  1.0000
  C   C953      1.0  0.82534  0.66122  0.58562  1.0000
  C   C954      1.0  0.81435  0.63690  0.57133  1.0000
  C   C955      1.0  0.81172  0.63674  0.54261  1.0000
  C   C956      1.0  0.82034  0.66088  0.52791  1.0000
  C   C957      1.0  0.83092  0.68515  0.54227  1.0000
  C   C958      1.0  0.83351  0.68531  0.57098  1.0000
  H   H1625     1.0  0.80834  0.61828  0.58231  1.0000
  H   H1626     1.0  0.80349  0.61787  0.53164  1.0000
  H   H1627     1.0  0.83719  0.70379  0.53119  1.0000
  H   H1628     1.0  0.84194  0.70422  0.58191  1.0000
  C   C959      1.0  0.97429  0.78173  0.94894  1.0000
  C   C960      1.0  0.90055  0.75473  0.83353  1.0000
  N   N68       1.0  0.93812  0.52743  0.69376  1.0000
  C   C961      1.0  0.77078  0.71353  0.89367  1.0000
  C   C962      1.0  0.97409  0.79678  0.97140  1.0000
  C   C963      1.0  0.91752  0.68631  0.50058  1.0000
  H   H1629     1.0  0.77220  0.73350  0.81352  1.0000
  C   C964      1.0  0.91439  0.55237  0.71327  1.0000
  C   C965      1.0  0.77436  0.96656  0.94545  1.0000
  H   H1630     1.0  0.96858  0.70417  0.54119  1.0000
  H   H1631     1.0  0.80899  0.75816  0.48404  1.0000
  C   C966      1.0  0.94921  0.52408  0.66695  1.0000
  H   H1632     1.0  0.99963  0.77344  0.92298  1.0000
  H   H1633     1.0  0.81823  0.83776  0.50062  1.0000
  C   C967      1.0  0.87435  0.52202  0.62470  1.0000
  H   H1634     1.0  0.76124  0.78459  0.87888  1.0000
  H   H1635     1.0  0.91643  0.54326  0.67057  1.0000
  C   C968      1.0  0.81884  0.82106  0.96076  1.0000
  H   H1636     1.0  0.86113  0.99059  0.95212  1.0000
  H   H1637     1.0  0.97078  0.54221  0.75803  1.0000
  H   H1638     1.0  0.83676  0.79069  0.83951  1.0000
  H   H1639     1.0  0.78790  0.77607  0.83889  1.0000
  H   H1640     1.0  0.80939  0.90933  0.52253  1.0000
  H   H1641     1.0  0.83365  0.99597  0.96133  1.0000
  H   H1642     1.0  0.87989  0.87487  0.49809  1.0000
  H   H1643     1.0  0.81301  0.80663  0.87163  1.0000
  C   C969      1.0  0.90223  0.73215  0.54673  1.0000
  C   C970      1.0  0.82409  0.90601  0.53409  1.0000
  H   H1644     1.0  0.89960  0.72244  0.56706  1.0000
  H   H1645     1.0  0.88562  0.67477  0.88489  1.0000
  N   N69       1.0  0.91974  0.70237  0.52590  1.0000
  H   H1646     1.0  0.99188  0.55609  0.67086  1.0000
  C   C971      1.0  0.90114  0.71379  0.52314  1.0000
  C   C972      1.0  0.97489  0.54905  0.65629  1.0000
  C   C973      1.0  0.91488  0.68564  0.55153  1.0000
  C   C974      1.0  0.83588  0.85583  0.49175  1.0000
  H   H1647     1.0  0.99166  0.54381  0.54947  1.0000
  C   C975      1.0  0.84803  0.99851  0.94498  1.0000
  C   C976      1.0  0.88537  0.66664  0.56004  1.0000
  H   H1648     1.0  0.80664  0.74830  0.82275  1.0000
  H   H1649     1.0  0.95372  0.50733  0.66834  1.0000
  H   H1650     1.0  0.87998  0.69795  0.52088  1.0000
  H   H1651     1.0  0.76095  0.60547  0.59238  1.0000
  C   C977      1.0  0.82535  0.88085  0.52467  1.0000
  H   H1652     1.0  0.84402  0.92456  0.53322  1.0000
  H   H1653     1.0  0.92469  0.67311  0.54979  1.0000
  H   H1654     1.0  0.92459  0.69903  0.56947  1.0000
  H   H1655     1.0  0.92885  0.56827  0.72724  1.0000
  H   H1656     1.0  0.76293  0.52774  0.62494  1.0000
  H   H1657     1.0  0.81753  0.90313  0.55584  1.0000
  H   H1658     1.0  0.79095  0.85690  0.48302  1.0000
  H   H1659     1.0  0.92112  0.75185  0.54631  1.0000
  C   C978      1.0  0.78602  0.73845  0.83124  1.0000
  C   C979      1.0  0.77963  0.74321  0.89971  1.0000
  C   C980      1.0  0.95245  0.53138  0.74520  1.0000
  H   H1660     1.0  0.77905  0.76858  0.51180  1.0000
  H   H1661     1.0  0.88282  0.64683  0.56647  1.0000
  H   H1662     1.0  0.87027  0.66240  0.54400  1.0000
  C   C981      1.0  0.97096  0.71954  0.52582  1.0000
  C   C982      1.0  0.85764  0.90647  0.48818  1.0000
  H   H1663     1.0  0.93836  0.53817  0.75164  1.0000
  H   H1664     1.0  0.93428  0.51825  0.65029  1.0000
  C   C983      1.0  0.79324  0.77349  0.97114  1.0000
  H   H1665     1.0  0.78235  0.98750  0.90662  1.0000
  H   H1666     1.0  0.92112  0.69045  0.88763  1.0000
  C   C984      1.0  0.99936  0.52728  0.96505  1.0000
  C   C985      1.0  0.78474  0.77689  0.49136  1.0000
  C   C986      1.0  0.86094  0.85732  0.50519  1.0000
  H   H1667     1.0  0.78491  0.67497  0.65225  1.0000
  N   N70       1.0  0.79647  0.76360  0.87810  1.0000
  C   C987      1.0  0.77535  0.79374  0.48103  1.0000
  C   C988      1.0  0.76349  0.65040  0.61722  1.0000
  C   C989      1.0  0.78195  0.75730  0.85090  1.0000
  Fe  Fe143     1.0  0.84610  0.70285  0.96240  1.0000
  H   H1668     1.0  0.97303  0.71311  0.50498  1.0000
  H   H1669     1.0  0.90548  0.72572  0.50382  1.0000
  H   H1670     1.0  0.90045  0.55885  0.70488  1.0000
  C   C990      1.0  0.76346  0.96554  0.47973  1.0000
  S   S286      1.0  0.90086  0.51840  0.61010  1.0000
  C   C991      1.0  0.80189  0.79100  0.88756  1.0000
  H   H1671     1.0  0.85423  0.80685  0.87081  1.0000
  H   H1672     1.0  0.86001  0.85724  0.52785  1.0000
  N   N71       1.0  0.83262  0.88031  0.49499  1.0000
  H   H1673     1.0  0.78756  0.71031  0.88773  1.0000
  H   H1674     1.0  0.78173  0.71910  0.84070  1.0000
  H   H1675     1.0  0.98142  0.54344  0.63724  1.0000
  H   H1676     1.0  0.99022  0.73819  0.53028  1.0000
  H   H1677     1.0  0.93141  0.67808  0.50174  1.0000
  H   H1678     1.0  0.84004  0.87975  0.53865  1.0000
  H   H1679     1.0  0.83719  0.83834  0.95366  1.0000
  H   H1680     1.0  0.81523  0.79762  0.90580  1.0000
  H   H1681     1.0  0.95144  0.74062  0.51017  1.0000
  C   C992      1.0  0.84480  0.78771  0.85906  1.0000
  H   H1682     1.0  0.88417  0.64549  0.50972  1.0000
  H   H1683     1.0  0.97400  0.55946  0.71282  1.0000
  H   H1684     1.0  0.79048  0.74845  0.91969  1.0000
  H   H1685     1.0  0.78323  0.81520  0.89661  1.0000
  C   C993      1.0  0.78304  0.98963  0.92866  1.0000
  H   H1686     1.0  0.76654  0.63408  0.62589  1.0000
  H   H1687     1.0  0.88869  0.73846  0.81867  1.0000
  H   H1688     1.0  0.89598  0.56522  0.61951  1.0000
  H   H1689     1.0  0.88029  0.67466  0.57837  1.0000
  C   C994      1.0  0.82312  0.76454  0.87646  1.0000
  H   H1690     1.0  0.95155  0.74555  0.79008  1.0000
  H   H1691     1.0  0.80350  0.89208  0.48268  1.0000
  H   H1692     1.0  0.82094  0.74551  0.86848  1.0000
  H   H1693     1.0  0.83173  0.76642  0.89732  1.0000
  H   H1694     1.0  0.95127  0.73780  0.54624  1.0000
  H   H1695     1.0  0.86095  0.78305  0.85419  1.0000
  C   C995      1.0  0.79700  0.82442  0.96859  1.0000
  C   C996      1.0  0.96045  0.53728  0.71475  1.0000
  H   H1696     1.0  0.90380  0.77409  0.82475  1.0000
  H   H1697     1.0  0.76188  0.70141  0.91256  1.0000
  H   H1698     1.0  0.87227  0.91250  0.50541  1.0000
  H   H1699     1.0  0.98121  0.77309  0.83151  1.0000
  H   H1700     1.0  0.97934  0.74211  0.81900  1.0000
  N   N72       1.0  0.92748  0.73060  0.84385  1.0000
  C   C997      1.0  0.90659  0.71426  0.86516  1.0000
  C   C998      1.0  0.92783  0.75703  0.84058  1.0000
  C   C999      1.0  0.95422  0.73607  0.85513  1.0000
  C   C1000     1.0  0.92059  0.71454  0.81760  1.0000
  H   H1701     1.0  0.88567  0.73670  0.54406  1.0000
  H   H1702     1.0  0.88839  0.75089  0.85233  1.0000
  C   C1001     1.0  0.97907  0.75336  0.83731  1.0000
  C   C1002     1.0  0.92993  0.73059  0.79045  1.0000
  H   H1703     1.0  0.91016  0.72630  0.88417  1.0000
  H   H1704     1.0  0.88622  0.70911  0.85801  1.0000
  H   H1705     1.0  0.94219  0.76987  0.82453  1.0000
  H   H1706     1.0  0.93512  0.76909  0.85981  1.0000
  H   H1707     1.0  0.95791  0.74608  0.87554  1.0000
  H   H1708     1.0  0.95442  0.71696  0.85880  1.0000
  H   H1709     1.0  0.92874  0.70047  0.81801  1.0000
  H   H1710     1.0  0.89843  0.70122  0.81544  1.0000
  H   H1711     1.0  0.99727  0.75787  0.84937  1.0000
  H   H1712     1.0  0.90420  0.67516  0.85560  1.0000
  C   C1003     1.0  0.90461  0.68720  0.87350  1.0000
  C   C1004     1.0  0.94798  0.72611  0.52705  1.0000
  H   H1713     1.0  0.94659  0.56802  0.68468  1.0000
  H   H1714     1.0  0.76061  0.74331  0.90341  1.0000
  H   H1715     1.0  0.85277  0.92304  0.48645  1.0000
  H   H1716     1.0  0.76603  0.68726  0.63457  1.0000
  H   H1717     1.0  0.75995  0.74827  0.85419  1.0000
  H   H1718     1.0  0.90144  0.53393  0.72519  1.0000
  H   H1719     1.0  0.92361  0.69959  0.48212  1.0000
  H   H1720     1.0  0.78133  0.66232  0.60412  1.0000
  H   H1721     1.0  0.87379  0.66696  0.49199  1.0000
  C   C1005     1.0  0.99911  0.78492  0.94027  1.0000
  H   H1722     1.0  0.94394  0.50961  0.74999  1.0000
  H   H1723     1.0  0.76877  0.78433  0.91508  1.0000
  C   C1006     1.0  0.77577  0.96901  0.97400  1.0000
  H   H1724     1.0  0.83583  0.98550  0.92776  1.0000
  C   C1007     1.0  0.80904  0.87655  0.47795  1.0000
  H   H1725     1.0  0.79157  0.75381  0.97229  1.0000
  H   H1726     1.0  0.00184  0.51139  0.55892  1.0000
  C   C1008     1.0  0.00131  0.51325  0.94225  1.0000
  H   H1727     1.0  0.79869  0.84411  0.96751  1.0000
  S   S287      1.0  0.87616  0.74549  0.97458  1.0000
  H   H1728     1.0  0.86180  0.83897  0.49937  1.0000
  Fe  Fe144     1.0  0.75657  0.58365  0.67382  1.0000
  S   S288      1.0  0.75594  0.80239  0.50287  1.0000
