data_image0
_chemical_formula_structural       FeSCHS2CSHFeHSH2CH3CFeC6H3CHCHSC2H3C2NH2C2SH9CH2FeHCSCH5CFeHSH2SCHFeSFeCS2C3HCH2CHSHCSCHCH3C2H4C3H4CH6C5H4NFeH2CHCNHCHSFeSC2H5CHC6HCHCH4FeH3CH4SHCH3CNSH2C2HCH2C2H2CHNSH8C2SFeSH2SC2NC6H5NHC2HCH2NH10C2HC2H3CHFeCHFeH3C2HCH2SCH4C2H4C2SHC2HCHCH2C2H3SH3CHCH2S2FeSHCH2CHC4H2C2H6C2HC2HCHFeH3NCH3CSHCH2CH3SCH7S2FeHFeSCHC2H2C4HC3H11NHSCH5NH3C3SC3H2FeHSC2H3CSFeSCS3FeSFeC7H4SH2SFeH3CH2C2SH4CHCHCHSNCHCHFeCH3CH3CH2CHC2H2NH2FeHCH3CH2C2H5CH2CH4CSFeSCHCH3CHCHCHCHCHCH2NHCH8C2H7SC2SFeSC7H4SFeC2HFeHCSHCH7SH2C2HSHCHCH2NCHCHCHFeH5CH6C3H2CH2S2CHCHFeSH3S2FeSH2C6H5CH2NC2HC3HCH2C2H4CH10CSH4CFeHSH
_chemical_formula_sum              "Fe32 S64 C224 H384 N16"
_cell_length_a       27.2491
_cell_length_b       27.0198
_cell_length_c       41.9421
_cell_angle_alpha    89.8137
_cell_angle_beta     89.6514
_cell_angle_gamma    90.1328

_space_group_name_H-M_alt    "P 1"
_space_group_IT_number       1

loop_
  _space_group_symop_operation_xyz
  'x, y, z'

loop_
  _atom_site_type_symbol
  _atom_site_label
  _atom_site_symmetry_multiplicity
  _atom_site_fract_x
  _atom_site_fract_y
  _atom_site_fract_z
  _atom_site_occupancy
  Fe  Fe1       1.0  0.25865  0.06888  0.11279  1.0000
  S   S1        1.0  0.21274  0.13956  0.11897  1.0000
  C   C1        1.0  0.26682  0.06353  0.21892  1.0000
  H   H1        1.0  0.27993  0.25412  0.21930  1.0000
  S   S2        1.0  0.25791  0.99907  0.14201  1.0000
  S   S3        1.0  0.34130  0.07596  0.11312  1.0000
  C   C2        1.0  0.33909  0.18136  0.19360  1.0000
  S   S4        1.0  0.06943  0.22660  0.22656  1.0000
  H   H2        1.0  0.37296  0.16043  0.18740  1.0000
  Fe  Fe2       1.0  0.34095  0.02945  0.06823  1.0000
  H   H3        1.0  0.22737  0.06570  0.21270  1.0000
  S   S5        1.0  0.04207  0.37567  0.23117  1.0000
  H   H4        1.0  0.22119  0.24217  0.23672  1.0000
  H   H5        1.0  0.34474  0.21999  0.14815  1.0000
  C   C3        1.0  0.46428  0.03624  0.20013  1.0000
  H   H6        1.0  0.16728  0.09484  0.17612  1.0000
  H   H7        1.0  0.27012  0.06784  0.24499  1.0000
  H   H8        1.0  0.27494  0.22752  0.25901  1.0000
  C   C4        1.0  0.31680  0.19831  0.16164  1.0000
  Fe  Fe3       1.0  0.02039  0.29561  0.22808  1.0000
  C   C5        1.0  0.17022  0.16150  0.14812  1.0000
  C   C6        1.0  0.15262  0.21031  0.14553  1.0000
  C   C7        1.0  0.12093  0.23049  0.16885  1.0000
  C   C8        1.0  0.10690  0.20223  0.19538  1.0000
  C   C9        1.0  0.12395  0.15317  0.19779  1.0000
  C   C10       1.0  0.15489  0.13268  0.17413  1.0000
  H   H9        1.0  0.16401  0.23291  0.12545  1.0000
  H   H10       1.0  0.10821  0.26823  0.16658  1.0000
  H   H11       1.0  0.11317  0.13082  0.21811  1.0000
  C   C11       1.0  0.33145  0.14479  0.24677  1.0000
  H   H12       1.0  0.00000  0.10516  0.15802  1.0000
  C   C12       1.0  0.37527  0.10877  0.24718  1.0000
  H   H13       1.0  0.40327  0.11811  0.22885  1.0000
  S   S6        1.0  0.37824  0.05346  0.02108  1.0000
  C   C13       1.0  0.29717  0.10151  0.19932  1.0000
  C   C14       1.0  0.04090  0.45929  0.03522  1.0000
  H   H14       1.0  0.36307  0.06993  0.24399  1.0000
  H   H15       1.0  0.39360  0.11057  0.27074  1.0000
  H   H16       1.0  0.27496  0.01088  0.99073  1.0000
  C   C15       1.0  0.25930  0.22780  0.23466  1.0000
  C   C16       1.0  0.25733  0.17542  0.22027  1.0000
  N   N1        1.0  0.30619  0.15074  0.21505  1.0000
  H   H17       1.0  0.30530  0.13281  0.26578  1.0000
  H   H18       1.0  0.30671  0.16666  0.14637  1.0000
  C   C17       1.0  0.42829  0.00365  0.21166  1.0000
  C   C18       1.0  0.45649  0.99272  0.00244  1.0000
  S   S7        1.0  0.25813  0.02750  0.06610  1.0000
  H   H19       1.0  0.35223  0.21519  0.20601  1.0000
  H   H20       1.0  0.01141  0.45129  0.05291  1.0000
  H   H21       1.0  0.28455  0.22279  0.16482  1.0000
  H   H22       1.0  0.34567  0.18102  0.25534  1.0000
  H   H23       1.0  0.28016  0.02556  0.21367  1.0000
  H   H24       1.0  0.23362  0.15274  0.23640  1.0000
  H   H25       1.0  0.23657  0.17780  0.19765  1.0000
  H   H26       1.0  0.33208  0.08377  0.19154  1.0000
  H   H27       1.0  0.27680  0.10657  0.17663  1.0000
  C   C19       1.0  0.42590  0.03259  0.99499  1.0000
  H   H28       1.0  0.02751  0.16417  0.15318  1.0000
  H   H29       1.0  0.07462  0.44117  0.04431  1.0000
  Fe  Fe4       1.0  0.34081  0.00374  0.14026  1.0000
  H   H30       1.0  0.46147  0.05078  0.17615  1.0000
  C   C20       1.0  0.47245  0.99929  0.26261  1.0000
  S   S8        1.0  0.00090  0.44790  0.16010  1.0000
  C   C21       1.0  0.02833  0.43803  0.00211  1.0000
  H   H31       1.0  0.00421  0.14578  0.20868  1.0000
  H   H32       1.0  0.02144  0.47962  0.25715  1.0000
  H   H33       1.0  0.06338  0.43474  0.98888  1.0000
  H   H34       1.0  0.01627  0.39896  0.00587  1.0000
  H   H35       1.0  0.10634  0.47142  0.23195  1.0000
  C   C22       1.0  0.99216  0.14539  0.15890  1.0000
  Fe  Fe5       1.0  0.98861  0.38313  0.27205  1.0000
  H   H36       1.0  0.98992  0.17063  0.25876  1.0000
  S   S9        1.0  0.01134  0.42256  0.31798  1.0000
  H   H37       1.0  0.44805  0.05968  0.53869  1.0000
  H   H38       1.0  0.15730  0.23262  0.62386  1.0000
  S   S10       1.0  0.23804  0.01742  0.56528  1.0000
  C   C23       1.0  0.45343  0.04569  0.51480  1.0000
  H   H39       1.0  0.30175  0.15705  0.64337  1.0000
  Fe  Fe6       1.0  0.24509  0.06380  0.60996  1.0000
  S   S11       1.0  0.20624  0.13879  0.61695  1.0000
  Fe  Fe7       1.0  0.31983  0.00305  0.56948  1.0000
  C   C24       1.0  0.46827  0.01059  0.45246  1.0000
  S   S12       1.0  0.23055  0.99961  0.64239  1.0000
  S   S13       1.0  0.32809  0.05547  0.61118  1.0000
  C   C25       1.0  0.41926  0.01246  0.50208  1.0000
  C   C26       1.0  0.14717  0.21049  0.64442  1.0000
  C   C27       1.0  0.42729  0.99493  0.47083  1.0000
  H   H40       1.0  0.47344  0.99682  0.42849  1.0000
  C   C28       1.0  0.16528  0.16182  0.64708  1.0000
  H   H41       1.0  0.04247  0.47065  0.37535  1.0000
  H   H42       1.0  0.99398  0.45639  0.58703  1.0000
  C   C29       1.0  0.00809  0.48744  0.36847  1.0000
  H   H43       1.0  0.37054  0.07502  0.77128  1.0000
  S   S14       1.0  0.06927  0.22943  0.72792  1.0000
  H   H44       1.0  0.20595  0.08726  0.72797  1.0000
  C   C30       1.0  0.15147  0.13380  0.67383  1.0000
  S   S15       1.0  0.02120  0.37581  0.73308  1.0000
  C   C31       1.0  0.11634  0.23110  0.66819  1.0000
  H   H45       1.0  0.38019  0.15070  0.71622  1.0000
  C   C32       1.0  0.38302  0.11000  0.75990  1.0000
  H   H46       1.0  0.05410  0.41481  0.93871  1.0000
  H   H47       1.0  0.31449  0.20041  0.72988  1.0000
  H   H48       1.0  0.28108  0.08497  0.76742  1.0000
  C   C33       1.0  0.44187  0.01173  0.69350  1.0000
  C   C34       1.0  0.46988  0.04204  0.94388  1.0000
  H   H49       1.0  0.22005  0.03011  0.74719  1.0000
  H   H50       1.0  0.25329  0.12170  0.68546  1.0000
  H   H51       1.0  0.22714  0.18950  0.71004  1.0000
  H   H52       1.0  0.11218  0.13304  0.71883  1.0000
  C   C35       1.0  0.10377  0.20364  0.69544  1.0000
  C   C36       1.0  0.12166  0.15483  0.69800  1.0000
  C   C37       1.0  0.43291  0.05703  0.96556  1.0000
  H   H53       1.0  0.30615  0.19819  0.67619  1.0000
  H   H54       1.0  0.23252  0.22202  0.74655  1.0000
  H   H55       1.0  0.47441  0.06112  0.92135  1.0000
  H   H56       1.0  0.16404  0.09604  0.67599  1.0000
  C   C38       1.0  0.28436  0.07734  0.74141  1.0000
  H   H57       1.0  0.29855  0.16841  0.76538  1.0000
  H   H58       1.0  0.35666  0.15707  0.66577  1.0000
  H   H59       1.0  0.30454  0.08335  0.67870  1.0000
  H   H60       1.0  0.40932  0.08773  0.95941  1.0000
  H   H61       1.0  0.37516  0.08571  0.71134  1.0000
  H   H62       1.0  0.30875  0.04435  0.73946  1.0000
  C   C39       1.0  0.23407  0.05818  0.72998  1.0000
  C   C40       1.0  0.29349  0.11962  0.68906  1.0000
  C   C41       1.0  0.23773  0.18515  0.73537  1.0000
  C   C42       1.0  0.36181  0.11713  0.72610  1.0000
  C   C43       1.0  0.29163  0.16937  0.73928  1.0000
  H   H63       1.0  0.43613  0.02515  0.66950  1.0000
  H   H64       1.0  0.23779  0.03921  0.70670  1.0000
  H   H65       1.0  0.37463  0.14172  0.77569  1.0000
  H   H66       1.0  0.21218  0.15971  0.74783  1.0000
  N   N2        1.0  0.30662  0.12121  0.72393  1.0000
  Fe  Fe8       1.0  0.01199  0.29242  0.73040  1.0000
  H   H67       1.0  0.10335  0.26872  0.66581  1.0000
  H   H68       1.0  0.42367  0.10747  0.75801  1.0000
  C   C44       1.0  0.02187  0.43429  0.92883  1.0000
  H   H69       1.0  0.03258  0.47076  0.91872  1.0000
  C   C45       1.0  0.31627  0.16065  0.66792  1.0000
  N   N3        1.0  0.99009  0.46620  0.98358  1.0000
  H   H70       1.0  0.00904  0.41188  0.90829  1.0000
  C   C46       1.0  0.48781  0.01848  0.70832  1.0000
  H   H71       1.0  0.99642  0.54237  0.99867  1.0000
  S   S16       1.0  0.34608  0.95750  0.09542  1.0000
  Fe  Fe9       1.0  0.26304  0.95789  0.09533  1.0000
  S   S17       1.0  0.22421  0.88321  0.08741  1.0000
  C   C47       1.0  0.34791  0.86563  0.00690  1.0000
  C   C48       1.0  0.33653  0.84455  0.04041  1.0000
  H   H72       1.0  0.37831  0.89276  0.01015  1.0000
  H   H73       1.0  0.37138  0.83324  0.05191  1.0000
  H   H74       1.0  0.24816  0.84774  0.01411  1.0000
  H   H75       1.0  0.01734  0.55542  0.18303  1.0000
  H   H76       1.0  0.31293  0.81107  0.03935  1.0000
  C   C49       1.0  0.09350  0.50568  0.24395  1.0000
  H   H77       1.0  0.17805  0.78816  0.08071  1.0000
  C   C50       1.0  0.17596  0.86255  0.06202  1.0000
  C   C51       1.0  0.15356  0.89363  0.03972  1.0000
  C   C52       1.0  0.11729  0.87476  0.01905  1.0000
  C   C53       1.0  0.10238  0.82479  0.02055  1.0000
  C   C54       1.0  0.12434  0.79389  0.04317  1.0000
  C   C55       1.0  0.16102  0.81263  0.06359  1.0000
  H   H78       1.0  0.16421  0.93214  0.03833  1.0000
  C   C56       1.0  0.01027  0.51897  0.11284  1.0000
  H   H79       1.0  0.11358  0.75539  0.04461  1.0000
  C   C57       1.0  0.03715  0.50893  0.24133  1.0000
  H   H80       1.0  0.31918  0.87228  0.05614  1.0000
  H   H81       1.0  0.27208  0.92637  0.02972  1.0000
  H   H82       1.0  0.07814  0.54723  0.98858  1.0000
  H   H83       1.0  0.02334  0.53833  0.29930  1.0000
  Fe  Fe10      1.0  0.00763  0.73510  0.98629  1.0000
  H   H84       1.0  0.04851  0.51970  0.11961  1.0000
  H   H85       1.0  0.06895  0.61363  0.23563  1.0000
  H   H86       1.0  0.01966  0.57457  0.07580  1.0000
  C   C58       1.0  0.03946  0.58672  0.19184  1.0000
  H   H87       1.0  0.45172  0.97348  0.02491  1.0000
  H   H88       1.0  0.07875  0.57992  0.18623  1.0000
  H   H89       1.0  0.10057  0.89909  0.00172  1.0000
  H   H90       1.0  0.02899  0.61928  0.17714  1.0000
  S   S18       1.0  0.05850  0.80279  0.99241  1.0000
  H   H91       1.0  0.02767  0.49673  0.21705  1.0000
  C   C59       1.0  0.03051  0.57038  0.28317  1.0000
  H   H92       1.0  0.40496  0.96047  0.25234  1.0000
  H   H93       1.0  0.07079  0.57697  0.28443  1.0000
  H   H94       1.0  0.11235  0.53736  0.23235  1.0000
  C   C60       1.0  0.00622  0.61597  0.29867  1.0000
  N   N4        1.0  0.01514  0.55853  0.24943  1.0000
  S   S19       1.0  0.37659  0.98514  0.18855  1.0000
  H   H95       1.0  0.00728  0.63187  0.22905  1.0000
  H   H96       1.0  0.36388  0.83463  0.99278  1.0000
  C   C61       1.0  0.25818  0.97338  0.98936  1.0000
  C   C62       1.0  0.29120  0.93567  0.00695  1.0000
  H   H97       1.0  0.00818  0.64920  0.28316  1.0000
  C   C63       1.0  0.03258  0.59962  0.22759  1.0000
  H   H98       1.0  0.47453  0.98559  0.28679  1.0000
  H   H99       1.0  0.32451  0.95632  0.01472  1.0000
  C   C64       1.0  0.43278  0.98532  0.24301  1.0000
  C   C65       1.0  0.99403  0.55021  0.08790  1.0000
  H   H100      1.0  0.22176  0.97554  0.00131  1.0000
  H   H101      1.0  0.10496  0.50283  0.26926  1.0000
  C   C66       1.0  0.26359  0.85214  0.98962  1.0000
  H   H102      1.0  0.04797  0.49967  0.03449  1.0000
  N   N5        1.0  0.30533  0.88901  0.98947  1.0000
  S   S20       1.0  0.02253  0.65254  0.98547  1.0000
  H   H103      1.0  0.10368  0.57911  0.60600  1.0000
  H   H104      1.0  0.12475  0.64846  0.54812  1.0000
  H   H105      1.0  0.38934  0.85901  0.60468  1.0000
  H   H106      1.0  0.40123  0.96930  0.46062  1.0000
  H   H107      1.0  0.00751  0.53868  0.40817  1.0000
  H   H108      1.0  0.47598  0.95205  0.63759  1.0000
  H   H109      1.0  0.08674  0.93910  0.46197  1.0000
  H   H110      1.0  0.04366  0.56343  0.59351  1.0000
  C   C67       1.0  0.08900  0.91388  0.48275  1.0000
  C   C68       1.0  0.02299  0.83712  0.44150  1.0000
  S   S21       1.0  0.30845  0.93554  0.60091  1.0000
  Fe  Fe11      1.0  0.22755  0.95212  0.59812  1.0000
  S   S22       1.0  0.16283  0.89675  0.59567  1.0000
  H   H111      1.0  0.03747  0.95031  0.51387  1.0000
  H   H112      1.0  0.01751  0.82158  0.49202  1.0000
  S   S23       1.0  0.08044  0.73710  0.49598  1.0000
  C   C69       1.0  0.09110  0.62574  0.54540  1.0000
  C   C70       1.0  0.00734  0.65924  0.61685  1.0000
  N   N6        1.0  0.99505  0.89778  0.48641  1.0000
  C   C71       1.0  0.14056  0.85322  0.56714  1.0000
  C   C72       1.0  0.16704  0.84037  0.53970  1.0000
  C   C73       1.0  0.14822  0.80469  0.51837  1.0000
  C   C74       1.0  0.10229  0.78201  0.52373  1.0000
  C   C75       1.0  0.07556  0.79519  0.55101  1.0000
  C   C76       1.0  0.09477  0.83015  0.57264  1.0000
  H   H113      1.0  0.20231  0.85752  0.53508  1.0000
  H   H114      1.0  0.16939  0.79481  0.49743  1.0000
  H   H115      1.0  0.04026  0.77827  0.55555  1.0000
  H   H116      1.0  0.07393  0.83969  0.59377  1.0000
  H   H117      1.0  0.04859  0.86636  0.43352  1.0000
  N   N7        1.0  0.05461  0.64215  0.60157  1.0000
  H   H118      1.0  0.00744  0.65455  0.64308  1.0000
  C   C77       1.0  0.04812  0.64563  0.56588  1.0000
  C   C78       1.0  0.09769  0.67427  0.61048  1.0000
  H   H119      1.0  0.47860  0.84808  0.59379  1.0000
  C   C79       1.0  0.06428  0.58843  0.60977  1.0000
  H   H120      1.0  0.13223  0.65904  0.60027  1.0000
  H   H121      1.0  0.35440  0.78689  0.63118  1.0000
  N   N8        1.0  0.44807  0.87633  0.63767  1.0000
  H   H122      1.0  0.09913  0.58624  0.55021  1.0000
  H   H123      1.0  0.04473  0.80239  0.44238  1.0000
  H   H124      1.0  0.04290  0.68461  0.55809  1.0000
  H   H125      1.0  0.08114  0.62847  0.51984  1.0000
  H   H126      1.0  0.41471  0.92282  0.57888  1.0000
  H   H127      1.0  0.09549  0.71167  0.59926  1.0000
  H   H128      1.0  0.02204  0.73989  0.61809  1.0000
  H   H129      1.0  0.48017  0.93365  0.58063  1.0000
  H   H130      1.0  0.43787  0.98224  0.58858  1.0000
  H   H131      1.0  0.41135  0.94761  0.63873  1.0000
  C   C80       1.0  0.44430  0.94193  0.59199  1.0000
  C   C81       1.0  0.44475  0.93034  0.62815  1.0000
  H   H132      1.0  0.09980  0.87607  0.47533  1.0000
  C   C82       1.0  0.39901  0.85325  0.63007  1.0000
  C   C83       1.0  0.04172  0.91295  0.50298  1.0000
  H   H133      1.0  0.05008  0.88739  0.52298  1.0000
  H   H134      1.0  0.11950  0.92778  0.49782  1.0000
  H   H135      1.0  0.41542  0.77562  0.61829  1.0000
  C   C84       1.0  0.99825  0.84524  0.47442  1.0000
  H   H136      1.0  0.01264  0.93582  0.44176  1.0000
  Fe  Fe12      1.0  0.00290  0.70530  0.48896  1.0000
  C   C85       1.0  0.99302  0.71359  0.61066  1.0000
  H   H137      1.0  0.01429  0.62543  0.55850  1.0000
  Fe  Fe13      1.0  0.31262  0.98899  0.64215  1.0000
  H   H138      1.0  0.02569  0.62481  0.32118  1.0000
  H   H139      1.0  0.00979  0.56886  0.64673  1.0000
  H   H140      1.0  0.36941  0.87164  0.64423  1.0000
  C   C86       1.0  0.39331  0.79714  0.63559  1.0000
  C   C87       1.0  0.05029  0.57067  0.64364  1.0000
  H   H141      1.0  0.99482  0.83084  0.42289  1.0000
  C   C88       1.0  0.10802  0.68067  0.64632  1.0000
  H   H142      1.0  0.12794  0.71616  0.64990  1.0000
  H   H143      1.0  0.06387  0.53225  0.64709  1.0000
  S   S24       1.0  0.36731  0.98977  0.52428  1.0000
  C   C89       1.0  0.98841  0.52612  0.38713  1.0000
  H   H144      1.0  0.33473  0.86325  0.94445  1.0000
  H   H145      1.0  0.07463  0.68402  0.66118  1.0000
  H   H146      1.0  0.06649  0.59373  0.66259  1.0000
  H   H147      1.0  0.25169  0.96605  0.96393  1.0000
  C   C90       1.0  0.32252  0.89849  0.95572  1.0000
  C   C91       1.0  0.21937  0.86334  0.96806  1.0000
  H   H148      1.0  0.37198  0.94297  0.92630  1.0000
  H   H149      1.0  0.35527  0.97253  0.96273  1.0000
  H   H150      1.0  0.38306  0.95177  0.75390  1.0000
  H   H151      1.0  0.19132  0.83388  0.97185  1.0000
  C   C92       1.0  0.00036  0.50228  0.82690  1.0000
  C   C93       1.0  0.05873  0.52980  0.96827  1.0000
  S   S25       1.0  0.00584  0.61300  0.89299  1.0000
  H   H152      1.0  0.29271  0.91154  0.94008  1.0000
  C   C94       1.0  0.45553  0.87478  0.67333  1.0000
  C   C95       1.0  0.45790  0.97810  0.75605  1.0000
  H   H153      1.0  0.03981  0.57078  0.83410  1.0000
  C   C96       1.0  0.41208  0.97090  0.74111  1.0000
  H   H154      1.0  0.05999  0.55758  0.94865  1.0000
  C   C97       1.0  0.98957  0.55712  0.87308  1.0000
  H   H155      1.0  0.01860  0.49395  0.80457  1.0000
  H   H156      1.0  0.40122  0.78546  0.66034  1.0000
  C   C98       1.0  0.01241  0.54579  0.84379  1.0000
  C   C99       1.0  0.36471  0.93629  0.95205  1.0000
  H   H157      1.0  0.39947  0.92241  0.96231  1.0000
  H   H158      1.0  0.27716  0.81483  0.98255  1.0000
  H   H159      1.0  0.22892  0.86236  0.94236  1.0000
  S   S26       1.0  0.34666  0.97301  0.69122  1.0000
  H   H160      1.0  0.44880  0.83760  0.68354  1.0000
  H   H161      1.0  0.46387  0.96442  0.77999  1.0000
  H   H162      1.0  0.20111  0.89848  0.97434  1.0000
  C   C100      1.0  0.00439  0.51939  0.97722  1.0000
  H   H163      1.0  0.42756  0.89805  0.68549  1.0000
  C   C101      1.0  0.40392  0.98703  0.70963  1.0000
  H   H164      1.0  0.13108  0.64993  0.65543  1.0000
  H   H165      1.0  0.08009  0.49779  0.95981  1.0000
  S   S27       1.0  0.95836  0.31037  0.19414  1.0000
  S   S28       1.0  0.92516  0.40314  0.24069  1.0000
  Fe  Fe14      1.0  0.91194  0.32015  0.23869  1.0000
  S   S29       1.0  0.83606  0.28433  0.24493  1.0000
  H   H166      1.0  0.82436  0.19092  0.21114  1.0000
  C   C102      1.0  0.83362  0.16373  0.19231  1.0000
  H   H167      1.0  0.89500  0.21001  0.17931  1.0000
  H   H168      1.0  0.83138  0.38271  0.28623  1.0000
  C   C103      1.0  0.92838  0.48640  0.11982  1.0000
  H   H169      1.0  0.78234  0.42518  0.29189  1.0000
  C   C104      1.0  0.74791  0.18908  0.29547  1.0000
  C   C105      1.0  0.76646  0.22286  0.27252  1.0000
  C   C106      1.0  0.81543  0.23955  0.27350  1.0000
  C   C107      1.0  0.84597  0.22118  0.29748  1.0000
  H   H170      1.0  0.70997  0.17726  0.29457  1.0000
  H   H171      1.0  0.74239  0.23659  0.25409  1.0000
  C   C108      1.0  0.88771  0.16948  0.18163  1.0000
  C   C109      1.0  0.92043  0.09009  0.20481  1.0000
  H   H172      1.0  0.88467  0.33816  0.31295  1.0000
  H   H173      1.0  0.89036  0.15498  0.15699  1.0000
  H   H174      1.0  0.96071  0.11038  0.26218  1.0000
  H   H175      1.0  0.94906  0.48546  0.02625  1.0000
  H   H176      1.0  0.88043  0.15571  0.24592  1.0000
  H   H177      1.0  0.93347  0.42687  0.01032  1.0000
  C   C110      1.0  0.97767  0.48678  0.12900  1.0000
  C   C111      1.0  0.91704  0.16672  0.23628  1.0000
  H   H178      1.0  0.80910  0.17169  0.17187  1.0000
  C   C112      1.0  0.50879  0.03138  0.25095  1.0000
  C   C113      1.0  0.89783  0.48929  0.98826  1.0000
  H   H179      1.0  0.95599  0.07321  0.21200  1.0000
  C   C114      1.0  0.95446  0.15088  0.26186  1.0000
  H   H180      1.0  0.53203  0.07469  0.21029  1.0000
  Fe  Fe15      1.0  0.97743  0.39174  0.19908  1.0000
  H   H181      1.0  0.59487  0.18220  0.99937  1.0000
  H   H182      1.0  0.89384  0.07853  0.22375  1.0000
  H   H183      1.0  0.86456  0.07034  0.16895  1.0000
  N   N9        1.0  0.92501  0.14582  0.20327  1.0000
  C   C115      1.0  0.97578  0.16115  0.19255  1.0000
  H   H184      1.0  0.92007  0.47964  0.31170  1.0000
  H   H185      1.0  0.60947  0.09410  0.00682  1.0000
  H   H186      1.0  0.82499  0.12614  0.20138  1.0000
  C   C116      1.0  0.50429  0.04976  0.21961  1.0000
  S   S30       1.0  0.56096  0.04914  0.27394  1.0000
  H   H187      1.0  0.88372  0.23334  0.29852  1.0000
  C   C117      1.0  0.90376  0.06335  0.17418  1.0000
  H   H188      1.0  0.52047  0.13407  0.00392  1.0000
  H   H189      1.0  0.91699  0.20801  0.23557  1.0000
  C   C118      1.0  0.79976  0.39148  0.30194  1.0000
  H   H190      1.0  0.92587  0.07311  0.15292  1.0000
  H   H191      1.0  0.96619  0.15643  0.14001  1.0000
  H   H192      1.0  0.97967  0.20214  0.19376  1.0000
  S   S31       1.0  0.97260  0.30129  0.27211  1.0000
  C   C119      1.0  0.94360  0.46548  0.00344  1.0000
  H   H193      1.0  0.77209  0.36142  0.30047  1.0000
  H   H194      1.0  0.94025  0.16135  0.28578  1.0000
  H   H195      1.0  0.90749  0.02276  0.17776  1.0000
  H   H196      1.0  0.65186  0.00381  0.23567  1.0000
  H   H197      1.0  0.90273  0.46198  0.13185  1.0000
  H   H198      1.0  0.67473  0.15149  0.98614  1.0000
  H   H199      1.0  0.50316  0.19239  0.98734  1.0000
  S   S32       1.0  0.67847  0.03321  0.39892  1.0000
  S   S33       1.0  0.60656  0.10193  0.35569  1.0000
  Fe  Fe16      1.0  0.68710  0.08247  0.35536  1.0000
  H   H200      1.0  0.91232  0.30275  0.59012  1.0000
  Fe  Fe17      1.0  0.59659  0.04658  0.39610  1.0000
  S   S34       1.0  0.55777  0.06129  0.44442  1.0000
  C   C120      1.0  0.85912  0.28562  0.62857  1.0000
  H   H201      1.0  0.83141  0.28291  0.36515  1.0000
  C   C121      1.0  0.98387  0.47046  0.34103  1.0000
  C   C122      1.0  0.77398  0.31470  0.63258  1.0000
  H   H202      1.0  0.91644  0.27573  0.34493  1.0000
  H   H203      1.0  0.80920  0.30014  0.32733  1.0000
  C   C123      1.0  0.88471  0.41674  0.39465  1.0000
  C   C124      1.0  0.83374  0.36524  0.60323  1.0000
  C   C125      1.0  0.96689  0.48173  0.59649  1.0000
  C   C126      1.0  0.49489  0.06072  0.49661  1.0000
  H   H204      1.0  0.84814  0.35870  0.55215  1.0000
  C   C127      1.0  0.50277  0.04335  0.46531  1.0000
  C   C128      1.0  0.84717  0.37519  0.38821  1.0000
  C   C129      1.0  0.81214  0.31323  0.35226  1.0000
  H   H205      1.0  0.88582  0.42420  0.42067  1.0000
  H   H206      1.0  0.93022  0.32550  0.62865  1.0000
  H   H207      1.0  0.87120  0.38206  0.60280  1.0000
  H   H208      1.0  0.92253  0.40650  0.38734  1.0000
  H   H209      1.0  0.76490  0.29178  0.61139  1.0000
  H   H210      1.0  0.81164  0.38829  0.39831  1.0000
  H   H211      1.0  0.75966  0.32264  0.39209  1.0000
  H   H212      1.0  0.74190  0.27866  0.36266  1.0000
  H   H213      1.0  0.87405  0.45185  0.38293  1.0000
  H   H214      1.0  0.78422  0.35122  0.56303  1.0000
  H   H215      1.0  0.82752  0.30220  0.56923  1.0000
  N   N10       1.0  0.82691  0.33091  0.63129  1.0000
  H   H216      1.0  0.80917  0.39788  0.60536  1.0000
  S   S35       1.0  0.75552  0.13285  0.35148  1.0000
  C   C130      1.0  0.92421  0.31368  0.35364  1.0000
  H   H217      1.0  0.84240  0.25696  0.61301  1.0000
  H   H218      1.0  0.85090  0.17514  0.33963  1.0000
  H   H219      1.0  0.91083  0.38701  0.33402  1.0000
  H   H220      1.0  0.93416  0.26097  0.61989  1.0000
  H   H221      1.0  0.85693  0.34282  0.40334  1.0000
  N   N11       1.0  0.84125  0.36059  0.35375  1.0000
  H   H222      1.0  0.83936  0.43560  0.33547  1.0000
  H   H223      1.0  0.52107  0.08614  0.50690  1.0000
  H   H224      1.0  0.92208  0.31348  0.37994  1.0000
  C   C131      1.0  0.94728  0.47324  0.62722  1.0000
  C   C132      1.0  0.91178  0.29479  0.61607  1.0000
  C   C133      1.0  0.89008  0.35193  0.33766  1.0000
  S   S36       1.0  0.96819  0.42087  0.64953  1.0000
  C   C134      1.0  0.82251  0.34279  0.57019  1.0000
  C   C135      1.0  0.75966  0.31537  0.36609  1.0000
  C   C136      1.0  0.81547  0.40215  0.33658  1.0000
  H   H225      1.0  0.73656  0.34298  0.35367  1.0000
  H   H226      1.0  0.78212  0.41413  0.34991  1.0000
  Fe  Fe18      1.0  0.59694  0.03620  0.32296  1.0000
  H   H227      1.0  0.96300  0.32330  0.34795  1.0000
  S   S37       1.0  0.67818  0.01899  0.32148  1.0000
  C   C137      1.0  0.82720  0.18812  0.32077  1.0000
  C   C138      1.0  0.77798  0.17190  0.32007  1.0000
  H   H228      1.0  0.74882  0.34699  0.63105  1.0000
  H   H229      1.0  0.61678  0.99748  0.48169  1.0000
  H   H230      1.0  0.70118  0.00894  0.49304  1.0000
  C   C139      1.0  0.97936  0.43920  0.95296  1.0000
  S   S38       1.0  0.57762  0.06281  0.84190  1.0000
  Fe  Fe19      1.0  0.66006  0.07317  0.84178  1.0000
  S   S39       1.0  0.70201  0.14695  0.84429  1.0000
  C   C140      1.0  0.89486  0.13105  0.82042  1.0000
  S   S40       1.0  0.67064  0.01843  0.88181  1.0000
  S   S41       1.0  0.95221  0.29617  0.69417  1.0000
  S   S42       1.0  0.89952  0.38292  0.73574  1.0000
  Fe  Fe20      1.0  0.89860  0.29927  0.73532  1.0000
  S   S43       1.0  0.83004  0.24941  0.73259  1.0000
  Fe  Fe21      1.0  0.95861  0.37946  0.69771  1.0000
  C   C141      1.0  0.96547  0.46921  0.83925  1.0000
  C   C142      1.0  0.73824  0.17408  0.81298  1.0000
  C   C143      1.0  0.73203  0.16119  0.78093  1.0000
  C   C144      1.0  0.76054  0.18438  0.75682  1.0000
  C   C145      1.0  0.79625  0.22029  0.76429  1.0000
  C   C146      1.0  0.80313  0.23249  0.79640  1.0000
  C   C147      1.0  0.77405  0.20986  0.82048  1.0000
  H   H231      1.0  0.70447  0.13412  0.77461  1.0000
  H   H232      1.0  0.75461  0.17464  0.73215  1.0000
  H   H233      1.0  0.83023  0.26009  0.80266  1.0000
  H   H234      1.0  0.77930  0.22035  0.84509  1.0000
  S   S44       1.0  0.95784  0.29136  0.77162  1.0000
  H   H235      1.0  0.91502  0.45569  0.87809  1.0000
  H   H236      1.0  0.81253  0.07215  0.74641  1.0000
  S   S45       1.0  0.67387  0.01636  0.80427  1.0000
  Fe  Fe22      1.0  0.58933  0.00243  0.87859  1.0000
  H   H237      1.0  0.91852  0.01869  0.81106  1.0000
  H   H238      1.0  0.57911  0.20590  0.96163  1.0000
  H   H239      1.0  0.56712  0.15018  0.88209  1.0000
  C   C148      1.0  0.86155  0.09896  0.79920  1.0000
  H   H240      1.0  0.56356  0.09038  0.92707  1.0000
  H   H241      1.0  0.84464  0.07191  0.87735  1.0000
  C   C149      1.0  0.66231  0.14587  0.96112  1.0000
  C   C150      1.0  0.80890  0.07978  0.86622  1.0000
  S   S46       1.0  0.95000  0.41249  0.82002  1.0000
  H   H242      1.0  0.87961  0.13732  0.84448  1.0000
  H   H243      1.0  0.89913  0.16811  0.80908  1.0000
  H   H244      1.0  0.88259  0.09428  0.77651  1.0000
  H   H245      1.0  0.67539  0.18493  0.91582  1.0000
  C   C151      1.0  0.83010  0.01750  0.78416  1.0000
  H   H246      1.0  0.90317  0.04585  0.84777  1.0000
  C   C152      1.0  0.59258  0.11940  0.92711  1.0000
  H   H247      1.0  0.96562  0.40110  0.95820  1.0000
  C   C153      1.0  0.67676  0.19229  0.94184  1.0000
  H   H248      1.0  0.80370  0.12040  0.86413  1.0000
  S   S47       1.0  0.55684  0.00625  0.75545  1.0000
  N   N12       1.0  0.84526  0.04920  0.81211  1.0000
  C   C154      1.0  0.88749  0.02347  0.82822  1.0000
  H   H249      1.0  0.94966  0.45788  0.93955  1.0000
  C   C155      1.0  0.80122  0.05429  0.83380  1.0000
  H   H250      1.0  0.63821  0.03429  0.94691  1.0000
  Fe  Fe23      1.0  0.96143  0.37516  0.77107  1.0000
  C   C156      1.0  0.94233  0.48080  0.86843  1.0000
  H   H251      1.0  0.82921  0.12201  0.79299  1.0000
  H   H252      1.0  0.71561  0.20166  0.94706  1.0000
  H   H253      1.0  0.93230  0.11518  0.82218  1.0000
  C   C157      1.0  0.63702  0.04141  0.97284  1.0000
  H   H254      1.0  0.62334  0.10309  0.91314  1.0000
  H   H255      1.0  0.65471  0.22527  0.94804  1.0000
  H   H256      1.0  0.86287  0.00541  0.77018  1.0000
  C   C158      1.0  0.52434  0.15811  0.98250  1.0000
  H   H257      1.0  0.83967  0.33302  0.68236  1.0000
  H   H258      1.0  0.53510  0.17422  0.91559  1.0000
  C   C159      1.0  0.84095  0.35806  0.66123  1.0000
  H   H259      1.0  0.77058  0.39616  0.67161  1.0000
  C   C160      1.0  0.57187  0.16266  0.90706  1.0000
  C   C161      1.0  0.50076  0.00244  0.95144  1.0000
  H   H260      1.0  0.77198  0.07562  0.82175  1.0000
  H   H261      1.0  0.82216  0.41892  0.69278  1.0000
  N   N13       1.0  0.60885  0.13110  0.96068  1.0000
  H   H262      1.0  0.76095  0.05591  0.77158  1.0000
  H   H263      1.0  0.68583  0.11597  0.95116  1.0000
  Fe  Fe24      1.0  0.59180  0.00309  0.80540  1.0000
  H   H264      1.0  0.51724  0.03663  0.69534  1.0000
  C   C162      1.0  0.79467  0.04173  0.76007  1.0000
  H   H265      1.0  0.88240  0.46607  0.96898  1.0000
  H   H266      1.0  0.59625  0.19532  0.90608  1.0000
  H   H267      1.0  0.78121  0.06531  0.88346  1.0000
  C   C163      1.0  0.75908  0.28390  0.66216  1.0000
  H   H268      1.0  0.67480  0.04730  0.98183  1.0000
  H   H269      1.0  0.76049  0.30602  0.68438  1.0000
  C   C164      1.0  0.49643  0.00124  0.73954  1.0000
  C   C165      1.0  0.81027  0.40439  0.66933  1.0000
  H   H270      1.0  0.78312  0.01794  0.83844  1.0000
  H   H271      1.0  0.87970  0.37049  0.65980  1.0000
  H   H272      1.0  0.72055  0.27114  0.65952  1.0000
  H   H273      1.0  0.78214  0.25041  0.66497  1.0000
  H   H274      1.0  0.78300  0.01349  0.74246  1.0000
  C   C166      1.0  0.57871  0.17141  0.97603  1.0000
  H   H275      1.0  0.86267  0.26684  0.65218  1.0000
  H   H276      1.0  0.50709  0.13915  0.96204  1.0000
  C   C167      1.0  0.60324  0.08528  0.98120  1.0000
  H   H277      1.0  0.81659  0.43474  0.65192  1.0000
  H   H278      1.0  0.62267  0.00726  0.98450  1.0000
  H   H279      1.0  0.56511  0.07057  0.97997  1.0000
  H   H280      1.0  0.60535  0.86470  0.21374  1.0000
  C   C168      1.0  0.63812  0.80080  0.23624  1.0000
  S   S48       1.0  0.93521  0.72710  0.01248  1.0000
  Fe  Fe25      1.0  0.94806  0.64442  0.00924  1.0000
  S   S49       1.0  0.92212  0.58597  0.04610  1.0000
  C   C169      1.0  0.94479  0.54953  0.07855  1.0000
  H   H281      1.0  0.94253  0.58992  0.25614  1.0000
  C   C170      1.0  0.61560  0.93963  0.25629  1.0000
  H   H282      1.0  0.87407  0.51634  0.08776  1.0000
  H   H283      1.0  0.65167  0.95172  0.20977  1.0000
  H   H284      1.0  0.94757  0.52644  0.26712  1.0000
  C   C171      1.0  0.65224  0.87416  0.29037  1.0000
  H   H285      1.0  0.56715  0.82719  0.27789  1.0000
  C   C172      1.0  0.56751  0.86738  0.27216  1.0000
  H   H286      1.0  0.58030  0.94921  0.24442  1.0000
  C   C173      1.0  0.70772  0.88216  0.28483  1.0000
  H   H287      1.0  0.54295  0.93376  0.29888  1.0000
  C   C174      1.0  0.54430  0.89299  0.30146  1.0000
  H   H288      1.0  0.64674  0.83611  0.30008  1.0000
  C   C175      1.0  0.65595  0.96287  0.23506  1.0000
  H   H289      1.0  0.66456  0.79046  0.25510  1.0000
  C   C176      1.0  0.93580  0.54058  0.21733  1.0000
  H   H290      1.0  0.72835  0.85653  0.30060  1.0000
  H   H291      1.0  0.66795  0.87091  0.22279  1.0000
  N   N14       1.0  0.61842  0.88469  0.26284  1.0000
  H   H292      1.0  0.64268  0.89812  0.31101  1.0000
  C   C177      1.0  0.63271  0.85741  0.23288  1.0000
  H   H293      1.0  0.65263  0.78570  0.21345  1.0000
  H   H294      1.0  0.60235  0.78225  0.24057  1.0000
  H   H295      1.0  0.72053  0.87353  0.26048  1.0000
  H   H296      1.0  0.94915  0.50500  0.20770  1.0000
  H   H297      1.0  0.89572  0.53585  0.22131  1.0000
  H   H298      1.0  0.93998  0.57055  0.19940  1.0000
  H   H299      1.0  0.61567  0.96062  0.27901  1.0000
  H   H300      1.0  0.69341  0.95448  0.24330  1.0000
  C   C178      1.0  0.91222  0.51736  0.09473  1.0000
  C   C179      1.0  0.95991  0.55434  0.24920  1.0000
  H   H301      1.0  0.54157  0.87238  0.25190  1.0000
  H   H302      1.0  0.71856  0.92056  0.29110  1.0000
  H   H303      1.0  0.50575  0.88011  0.30423  1.0000
  H   H304      1.0  0.96755  0.60821  0.30560  1.0000
  H   H305      1.0  0.51733  0.94727  0.98702  1.0000
  H   H306      1.0  0.86874  0.49265  0.00683  1.0000
  H   H307      1.0  0.93389  0.94907  0.42088  1.0000
  S   S50       1.0  0.69873  0.89328  0.36996  1.0000
  C   C180      1.0  0.58919  0.87919  0.42308  1.0000
  C   C181      1.0  0.95195  0.52266  0.57782  1.0000
  S   S51       1.0  0.86936  0.65759  0.47794  1.0000
  Fe  Fe26      1.0  0.89586  0.73672  0.47644  1.0000
  S   S52       1.0  0.85477  0.81107  0.47157  1.0000
  C   C182      1.0  0.61910  0.91844  0.44139  1.0000
  C   C183      1.0  0.74380  0.87161  0.39754  1.0000
  C   C184      1.0  0.75637  0.82105  0.39780  1.0000
  C   C185      1.0  0.79083  0.80201  0.41975  1.0000
  C   C186      1.0  0.81294  0.83324  0.44207  1.0000
  C   C187      1.0  0.80046  0.88386  0.44171  1.0000
  C   C188      1.0  0.76661  0.90302  0.41944  1.0000
  H   H308      1.0  0.73925  0.79627  0.38097  1.0000
  H   H309      1.0  0.79982  0.76302  0.41964  1.0000
  H   H310      1.0  0.81697  0.90847  0.45887  1.0000
  H   H311      1.0  0.75817  0.94209  0.41922  1.0000
  S   S53       1.0  0.94072  0.72597  0.52114  1.0000
  Fe  Fe27      1.0  0.92030  0.64490  0.51966  1.0000
  C   C189      1.0  0.63556  0.96380  0.49091  1.0000
  C   C190      1.0  0.91701  0.55589  0.58961  1.0000
  H   H312      1.0  0.88581  0.54866  0.34404  1.0000
  Fe  Fe28      1.0  0.93548  0.64012  0.44691  1.0000
  H   H313      1.0  0.71293  0.94510  0.49939  1.0000
  C   C191      1.0  0.67852  0.84817  0.47725  1.0000
  S   S54       1.0  0.89757  0.60922  0.56762  1.0000
  H   H314      1.0  0.53891  0.88612  0.47611  1.0000
  C   C192      1.0  0.63239  0.87156  0.49259  1.0000
  H   H315      1.0  0.59112  0.84215  0.43440  1.0000
  H   H316      1.0  0.64103  0.87852  0.51811  1.0000
  H   H317      1.0  0.95959  0.72225  0.62486  1.0000
  H   H318      1.0  0.50259  0.77324  0.61216  1.0000
  H   H319      1.0  0.94764  0.93991  0.51808  1.0000
  H   H320      1.0  0.65808  0.91372  0.43441  1.0000
  H   H321      1.0  0.69176  0.81753  0.49267  1.0000
  S   S55       1.0  0.95975  0.72008  0.44412  1.0000
  H   H322      1.0  0.70924  0.87444  0.47453  1.0000
  H   H323      1.0  0.55020  0.89059  0.42098  1.0000
  C   C193      1.0  0.69086  0.97120  0.48498  1.0000
  C   C194      1.0  0.92006  0.53162  0.35093  1.0000
  H   H324      1.0  0.96956  0.83091  0.53617  1.0000
  S   S56       1.0  0.91746  0.59775  0.40076  1.0000
  H   H325      1.0  0.67061  0.83171  0.45363  1.0000
  C   C195      1.0  0.89727  0.54731  0.62031  1.0000
  H   H326      1.0  0.91854  0.88820  0.50006  1.0000
  C   C196      1.0  0.94426  0.54860  0.37845  1.0000
  H   H327      1.0  0.54906  0.96807  0.52593  1.0000
  H   H328      1.0  0.60436  0.84147  0.49302  1.0000
  N   N15       1.0  0.61235  0.91786  0.47710  1.0000
  C   C197      1.0  0.55786  0.92064  0.48370  1.0000
  H   H329      1.0  0.87026  0.57270  0.62978  1.0000
  C   C198      1.0  0.54237  0.92913  0.51868  1.0000
  H   H330      1.0  0.63101  0.96485  0.51726  1.0000
  C   C199      1.0  0.95380  0.90083  0.51060  1.0000
  H   H331      1.0  0.60865  0.95529  0.43153  1.0000
  Fe  Fe29      1.0  0.66541  0.97111  0.36487  1.0000
  H   H332      1.0  0.50210  0.92311  0.52090  1.0000
  H   H333      1.0  0.60372  0.87589  0.39841  1.0000
  H   H334      1.0  0.56362  0.88310  0.32380  1.0000
  H   H335      1.0  0.90313  0.93871  0.45793  1.0000
  H   H336      1.0  0.98323  0.72002  0.58543  1.0000
  C   C200      1.0  0.93453  0.92638  0.44301  1.0000
  H   H337      1.0  0.52184  0.87779  0.61872  1.0000
  H   H338      1.0  0.96747  0.52842  0.55429  1.0000
  H   H339      1.0  0.54119  0.95073  0.46935  1.0000
  H   H340      1.0  0.56094  0.90328  0.53523  1.0000
  H   H341      1.0  0.92869  0.88726  0.43606  1.0000
  H   H342      1.0  0.92474  0.86940  0.55468  1.0000
  C   C201      1.0  0.96007  0.86988  0.54132  1.0000
  C   C202      1.0  0.93947  0.49259  0.33247  1.0000
  C   C203      1.0  0.50779  0.80154  0.63102  1.0000
  H   H343      1.0  0.54785  0.80327  0.63576  1.0000
  H   H344      1.0  0.96079  0.82900  0.47244  1.0000
  C   C204      1.0  0.91220  0.50636  0.63899  1.0000
  H   H345      1.0  0.97635  0.63566  0.60879  1.0000
  H   H346      1.0  0.70113  0.96933  0.45949  1.0000
  S   S57       1.0  0.58292  0.98193  0.36332  1.0000
  S   S58       1.0  0.98474  0.62325  0.48885  1.0000
  C   C205      1.0  0.48933  0.85260  0.61922  1.0000
  H   H347      1.0  0.98311  0.97288  0.47018  1.0000
  C   C206      1.0  0.98372  0.93458  0.46036  1.0000
  H   H348      1.0  0.98781  0.88634  0.55744  1.0000
  Fe  Fe30      1.0  0.68048  0.96060  0.84426  1.0000
  S   S59       1.0  0.75056  0.91281  0.84502  1.0000
  H   H349      1.0  0.93046  0.60457  0.80972  1.0000
  H   H350      1.0  0.80916  0.61488  0.89781  1.0000
  H   H351      1.0  0.86516  0.94496  0.82432  1.0000
  S   S60       1.0  0.59964  0.94160  0.84197  1.0000
  S   S61       1.0  0.90708  0.63913  0.96258  1.0000
  Fe  Fe31      1.0  0.90059  0.72249  0.96375  1.0000
  S   S62       1.0  0.82732  0.76092  0.95203  1.0000
  H   H352      1.0  0.90886  0.95761  0.85468  1.0000
  H   H353      1.0  0.92825  0.74768  0.87440  1.0000
  C   C207      1.0  0.77191  0.87271  0.87605  1.0000
  C   C208      1.0  0.82102  0.85633  0.87550  1.0000
  C   C209      1.0  0.83911  0.82371  0.89911  1.0000
  C   C210      1.0  0.80788  0.80546  0.92305  1.0000
  C   C211      1.0  0.75881  0.82180  0.92357  1.0000
  C   C212      1.0  0.74105  0.85551  0.90050  1.0000
  H   H354      1.0  0.84534  0.86896  0.85674  1.0000
  H   H355      1.0  0.87712  0.81244  0.89871  1.0000
  H   H356      1.0  0.73421  0.80820  0.94197  1.0000
  H   H357      1.0  0.70318  0.86741  0.90134  1.0000
  H   H358      1.0  0.80245  0.66842  0.92175  1.0000
  C   C213      1.0  0.91230  0.69194  0.83783  1.0000
  H   H359      1.0  0.76399  0.73604  0.82276  1.0000
  H   H360      1.0  0.77401  0.66777  0.88362  1.0000
  N   N16       1.0  0.86475  0.66771  0.84820  1.0000
  C   C214      1.0  0.87140  0.61231  0.84581  1.0000
  C   C215      1.0  0.85435  0.67912  0.88275  1.0000
  H   H361      1.0  0.95487  0.76003  0.83646  1.0000
  C   C216      1.0  0.82305  0.68212  0.82659  1.0000
  C   C217      1.0  0.89194  0.59263  0.81388  1.0000
  C   C218      1.0  0.80714  0.65580  0.89675  1.0000
  H   H362      1.0  0.89098  0.77105  0.84222  1.0000
  C   C219      1.0  0.80365  0.73568  0.82878  1.0000
  H   H363      1.0  0.80508  0.75182  0.85289  1.0000
  H   H364      1.0  0.83612  0.59241  0.84992  1.0000
  C   C220      1.0  0.49367  0.97791  0.98083  1.0000
  C   C221      1.0  0.92119  0.74578  0.84843  1.0000
  H   H365      1.0  0.91613  0.69130  0.81139  1.0000
  H   H366      1.0  0.89648  0.59904  0.86480  1.0000
  H   H367      1.0  0.83374  0.67679  0.80121  1.0000
  H   H368      1.0  0.79101  0.65682  0.82968  1.0000
  C   C222      1.0  0.95407  0.52450  0.88517  1.0000
  H   H369      1.0  0.89259  0.55149  0.81485  1.0000
  H   H370      1.0  0.93534  0.53318  0.90723  1.0000
  H   H371      1.0  0.86888  0.60319  0.79331  1.0000
  H   H372      1.0  0.82315  0.76042  0.81171  1.0000
  H   H373      1.0  0.84634  0.97434  0.86120  1.0000
  H   H374      1.0  0.81167  0.98284  0.79246  1.0000
  H   H375      1.0  0.88573  0.66693  0.89771  1.0000
  H   H376      1.0  0.85185  0.71930  0.88731  1.0000
  H   H377      1.0  0.51649  0.92935  0.67845  1.0000
  H   H378      1.0  0.94426  0.67074  0.84726  1.0000
  C   C223      1.0  0.50656  0.89110  0.68538  1.0000
  S   S63       1.0  0.97169  0.73389  0.93779  1.0000
  H   H379      1.0  0.53605  0.86573  0.67755  1.0000
  H   H380      1.0  0.50620  0.89039  0.71189  1.0000
  H   H381      1.0  0.90512  0.52726  0.97936  1.0000
  H   H382      1.0  0.98139  0.53536  0.95791  1.0000
  C   C224      1.0  0.87562  0.97228  0.84274  1.0000
  Fe  Fe32      1.0  0.98028  0.65093  0.93916  1.0000
  H   H383      1.0  0.89676  0.50061  0.66253  1.0000
  S   S64       1.0  0.54969  0.98298  0.92585  1.0000
  H   H384      1.0  0.48986  0.78756  0.65295  1.0000
