data_image0
_chemical_formula_structural       SFeSCFeSCFeSFeSCHC7H4C2SH5CHCH3CH2CH2CH3C2HNC2HCH14NCH2SH2CH8SH5C2HSCHCHCHC2FeSFeSFeSFeHS2FeS2CSFeHFeS3H2SFeHC7H4C6H4CNC8H14NH7CH3C2H2CH2SHC2HNHC3HC2H8C2H7CHCH2CHSHFeCHFeS2FeCFeHS2HCS2H2C3H2C8H3NC5H6CH5CH3SCSH3C3HSHSCH10CHSH2FeS2FeHCHCSC7H2CHFeH6NH4CHCH2C2HSCFeCHCHCH3CNH3SH3CH2CH3CHC4H7FeS2FeS2HFeS2CH3CH3C2HC7H3FeHC2H4CH3SH3NC2H2CH2CH2C2NHCH3C2H3CH10CH2C2H3SH5SHCH4C4HSHCH2C2H4SCH2CHCHCH2CNCHCH3CHCH2C2NCH8CH6CHCH2CH2CSFeS2FeHFeS2HCHC6H4CHC2H3CHC3H3CH6CH2CHCH3C2HCH2CHSCFeH4NCHCH2CH5NH3CH2CSCFeSFeS2FeSFeS3C2HC6H3C3HC2HNH6CH2C3HCSH4CH3CH3CHNH2CH2CH2CH2CH5CSH4C3H5CSHSHFeS2FeSC2SH6FeH2CH2C2H2C8H4NCH2C2H4CHCH5C2HFeH3CH8CH2C2H3C3NH4SHSFeHFeSHSFeS2FeSFeSFeCS2CHC6H4CHCHC6H4CHCHCHCH2FeH4NC2HC2FeHCSH2C4H7SH2CH3CHC2HSH3CNH3C3H4NH2CH10NH2SFeS2FeHFeHSCH2C6H4C2HCH7C4SHCH2C3HNCSH3SH4CSC3H2SC2H4CH2SCFeH3CHC2H2SCHCH3C2H8C3H2NH
_chemical_formula_sum              "S96 Fe48 C336 H576 N24"
_cell_length_a       35.0428
_cell_length_b       35.0219
_cell_length_c       31.3389
_cell_angle_alpha    89.8899
_cell_angle_beta     90.0563
_cell_angle_gamma    119.869

_space_group_name_H-M_alt    "P 1"
_space_group_IT_number       1

loop_
  _space_group_symop_operation_xyz
  'x, y, z'

loop_
  _atom_site_type_symbol
  _atom_site_label
  _atom_site_symmetry_multiplicity
  _atom_site_fract_x
  _atom_site_fract_y
  _atom_site_fract_z
  _atom_site_occupancy
  S   S1        1.0  0.27636  0.38757  0.29786  1.0000
  Fe  Fe1       1.0  0.14029  0.39296  0.04884  1.0000
  S   S2        1.0  0.10279  0.32775  0.08157  1.0000
  C   C1        1.0  0.23677  0.06930  0.11984  1.0000
  Fe  Fe2       1.0  0.07231  0.42015  0.07316  1.0000
  S   S3        1.0  0.03079  0.35676  0.10887  1.0000
  C   C2        1.0  0.30219  0.04419  0.15093  1.0000
  Fe  Fe3       1.0  0.09448  0.36514  0.13514  1.0000
  S   S4        1.0  0.09804  0.34498  0.20364  1.0000
  Fe  Fe4       1.0  0.04268  0.32477  0.05252  1.0000
  S   S5        1.0  0.13529  0.43113  0.10432  1.0000
  C   C3        1.0  0.02016  0.23029  0.14172  1.0000
  H   H1        1.0  0.36232  0.06575  0.05497  1.0000
  C   C4        1.0  0.22585  0.02377  0.13744  1.0000
  C   C5        1.0  0.22650  0.37860  0.27420  1.0000
  C   C6        1.0  0.22803  0.39771  0.23427  1.0000
  C   C7        1.0  0.18905  0.38832  0.21257  1.0000
  C   C8        1.0  0.14804  0.35960  0.23064  1.0000
  C   C9        1.0  0.14651  0.34137  0.27107  1.0000
  C   C10       1.0  0.18551  0.35084  0.29281  1.0000
  H   H2        1.0  0.25957  0.41998  0.22007  1.0000
  H   H3        1.0  0.19071  0.40312  0.18177  1.0000
  H   H4        1.0  0.11496  0.31935  0.28546  1.0000
  H   H5        1.0  0.18382  0.33585  0.32350  1.0000
  C   C11       1.0  0.24507  0.30046  0.08640  1.0000
  C   C12       1.0  0.21605  0.03683  0.23247  1.0000
  S   S6        1.0  0.20834  0.41445  0.02200  1.0000
  H   H6        1.0  0.31779  0.33972  0.08099  1.0000
  H   H7        1.0  0.15134  0.24183  0.15103  1.0000
  H   H8        1.0  0.27355  0.28770  0.16454  1.0000
  H   H9        1.0  0.36823  0.44195  0.30879  1.0000
  H   H10       1.0  0.29701  0.28354  0.09933  1.0000
  C   C13       1.0  0.23978  0.28306  0.16273  1.0000
  H   H11       1.0  0.31474  0.07941  0.14294  1.0000
  C   C14       1.0  0.40233  0.45676  0.32057  1.0000
  H   H12       1.0  0.03530  0.20952  0.13559  1.0000
  H   H13       1.0  0.29146  0.29472  0.04499  1.0000
  H   H14       1.0  0.28145  0.04785  0.23408  1.0000
  C   C15       1.0  0.15318  0.26480  0.12574  1.0000
  H   H15       1.0  0.22884  0.26329  0.22954  1.0000
  H   H16       1.0  0.32972  0.01009  0.18957  1.0000
  C   C16       1.0  0.29066  0.30522  0.07827  1.0000
  H   H17       1.0  0.21847  0.24803  0.15328  1.0000
  H   H18       1.0  0.97935  0.18615  0.19115  1.0000
  C   C17       1.0  0.25964  0.04998  0.20951  1.0000
  H   H19       1.0  0.24923  0.39754  0.10253  1.0000
  H   H20       1.0  0.30099  0.02784  0.12013  1.0000
  H   H21       1.0  0.23828  0.09190  0.14530  1.0000
  C   C18       1.0  0.22775  0.28854  0.20889  1.0000
  C   C19       1.0  0.33847  0.04362  0.17862  1.0000
  H   H22       1.0  0.20176  0.00353  0.24668  1.0000
  N   N1        1.0  0.23785  0.31369  0.13004  1.0000
  C   C20       1.0  0.19365  0.31129  0.13032  1.0000
  C   C21       1.0  0.27291  0.36007  0.14065  1.0000
  H   H23       1.0  0.19183  0.03910  0.21143  1.0000
  C   C22       1.0  0.27960  0.39579  0.10784  1.0000
  H   H24       1.0  0.23948  0.31953  0.06132  1.0000
  H   H25       1.0  0.01705  0.24606  0.23555  1.0000
  H   H26       1.0  0.19123  0.33108  0.10369  1.0000
  H   H27       1.0  0.26540  0.37055  0.17139  1.0000
  H   H28       1.0  0.30533  0.36208  0.14563  1.0000
  H   H29       1.0  0.19412  0.28378  0.21170  1.0000
  H   H30       1.0  0.22059  0.26543  0.07967  1.0000
  H   H31       1.0  0.00366  0.29070  0.17957  1.0000
  H   H32       1.0  0.18921  0.32624  0.15979  1.0000
  H   H33       1.0  0.29191  0.39107  0.07690  1.0000
  H   H34       1.0  0.30482  0.42843  0.12022  1.0000
  H   H35       1.0  0.15185  0.25061  0.09379  1.0000
  H   H36       1.0  0.39460  0.39244  0.30663  1.0000
  H   H37       1.0  0.27510  0.08554  0.20122  1.0000
  N   N2        1.0  0.25688  0.02340  0.17067  1.0000
  C   C23       1.0  0.42069  0.42758  0.30415  1.0000
  H   H38       1.0  0.35813  0.47294  0.03594  1.0000
  H   H39       1.0  0.25180  0.32100  0.22245  1.0000
  S   S7        1.0  0.05262  0.47333  0.07681  1.0000
  H   H40       1.0  0.12295  0.26729  0.12897  1.0000
  H   H41       1.0  0.26760  0.08486  0.10094  1.0000
  C   C24       1.0  0.35128  0.08678  0.04082  1.0000
  H   H42       1.0  0.36885  0.05601  0.15910  1.0000
  H   H43       1.0  0.44131  0.42625  0.03082  1.0000
  H   H44       1.0  0.22268  0.05996  0.25936  1.0000
  H   H45       1.0  0.19162  0.00840  0.14954  1.0000
  H   H46       1.0  0.04302  0.25733  0.16295  1.0000
  H   H47       1.0  0.44854  0.43154  0.32426  1.0000
  H   H48       1.0  0.39553  0.45805  0.21932  1.0000
  H   H49       1.0  0.01810  0.24391  0.11047  1.0000
  S   S8        1.0  0.26905  0.01208  0.03220  1.0000
  H   H50       1.0  0.43117  0.43430  0.27035  1.0000
  H   H51       1.0  0.22416  0.00318  0.10967  1.0000
  H   H52       1.0  0.01275  0.29076  0.25696  1.0000
  H   H53       1.0  0.34711  0.06587  0.20649  1.0000
  H   H54       1.0  0.36043  0.47095  0.25110  1.0000
  C   C25       1.0  0.02211  0.48439  0.03835  1.0000
  C   C26       1.0  0.30777  0.06869  0.02677  1.0000
  H   H55       1.0  0.21030  0.06486  0.09740  1.0000
  S   S9        1.0  0.99190  0.25844  0.02590  1.0000
  C   C27       1.0  0.46416  0.46016  0.02253  1.0000
  H   H56       1.0  0.31382  0.48016  0.05406  1.0000
  C   C28       1.0  0.38068  0.13233  0.03630  1.0000
  H   H57       1.0  0.41440  0.14614  0.04692  1.0000
  C   C29       1.0  0.99380  0.25841  0.24069  1.0000
  H   H58       1.0  0.33852  0.48221  0.32317  1.0000
  C   C30       1.0  0.36691  0.15993  0.01744  1.0000
  C   C31       1.0  0.39250  0.48499  0.23466  1.0000
  Fe  Fe5       1.0  0.32400  0.03116  0.55010  1.0000
  S   S10       1.0  0.38943  0.07376  0.51846  1.0000
  Fe  Fe6       1.0  0.35375  0.08387  0.63418  1.0000
  S   S11       1.0  0.42145  0.12898  0.60854  1.0000
  Fe  Fe7       1.0  0.38644  0.13047  0.54874  1.0000
  S   S12       1.0  0.40824  0.19578  0.51529  1.0000
  Fe  Fe8       1.0  0.41784  0.06773  0.58060  1.0000
  H   H59       1.0  0.39864  0.45219  0.35575  1.0000
  S   S13       1.0  0.31894  0.08852  0.57573  1.0000
  S   S14       1.0  0.35227  0.02191  0.61100  1.0000
  Fe  Fe9       1.0  0.28996  0.32655  0.44532  1.0000
  S   S15       1.0  0.31098  0.38296  0.49093  1.0000
  S   S16       1.0  0.27081  0.25928  0.47270  1.0000
  C   C32       1.0  0.40758  0.24201  0.62301  1.0000
  S   S17       1.0  0.30456  0.43878  0.41029  1.0000
  Fe  Fe10      1.0  0.35569  0.42475  0.43802  1.0000
  H   H60       1.0  0.11076  0.18666  0.61699  1.0000
  Fe  Fe11      1.0  0.25814  0.39144  0.45898  1.0000
  S   S18       1.0  0.21233  0.40520  0.49883  1.0000
  S   S19       1.0  0.33812  0.36744  0.39398  1.0000
  S   S20       1.0  0.23446  0.33288  0.41613  1.0000
  H   H61       1.0  0.16073  0.41134  0.41350  1.0000
  H   H62       1.0  0.35835  0.25728  0.57363  1.0000
  S   S21       1.0  0.00748  0.26831  0.50013  1.0000
  Fe  Fe12      1.0  0.28429  0.37936  0.36917  1.0000
  H   H63       1.0  0.04902  0.34500  0.39653  1.0000
  C   C33       1.0  0.46420  0.46221  0.50576  1.0000
  C   C34       1.0  0.06412  0.30699  0.50028  1.0000
  C   C35       1.0  0.08300  0.34007  0.53116  1.0000
  C   C36       1.0  0.12858  0.36991  0.53054  1.0000
  C   C37       1.0  0.15544  0.36684  0.49911  1.0000
  C   C38       1.0  0.13641  0.33394  0.46811  1.0000
  C   C39       1.0  0.09096  0.30409  0.46878  1.0000
  H   H64       1.0  0.06256  0.34253  0.55560  1.0000
  H   H65       1.0  0.14305  0.39543  0.55453  1.0000
  H   H66       1.0  0.15650  0.33175  0.44326  1.0000
  H   H67       1.0  0.07645  0.27873  0.44464  1.0000
  C   C40       1.0  0.36975  0.21295  0.50293  1.0000
  C   C41       1.0  0.32476  0.18570  0.51065  1.0000
  C   C42       1.0  0.29499  0.20046  0.50129  1.0000
  C   C43       1.0  0.30979  0.24256  0.48403  1.0000
  C   C44       1.0  0.35481  0.27006  0.47653  1.0000
  C   C45       1.0  0.38464  0.25523  0.48591  1.0000
  H   H68       1.0  0.31277  0.15303  0.52335  1.0000
  H   H69       1.0  0.26023  0.17892  0.50703  1.0000
  H   H70       1.0  0.36663  0.30259  0.46328  1.0000
  H   H71       1.0  0.41940  0.27659  0.47990  1.0000
  C   C46       1.0  0.06913  0.38113  0.39117  1.0000
  N   N3        1.0  0.16521  0.25290  0.55955  1.0000
  C   C47       1.0  0.15793  0.21954  0.52534  1.0000
  C   C48       1.0  0.17836  0.23836  0.59959  1.0000
  C   C49       1.0  0.20293  0.29668  0.54526  1.0000
  C   C50       1.0  0.12348  0.25514  0.56465  1.0000
  C   C51       1.0  0.14782  0.22974  0.48019  1.0000
  C   C52       1.0  0.14471  0.19208  0.61618  1.0000
  C   C53       1.0  0.21778  0.33552  0.57638  1.0000
  C   C54       1.0  0.11634  0.27220  0.60778  1.0000
  H   H72       1.0  0.18715  0.21494  0.52256  1.0000
  H   H73       1.0  0.12971  0.18663  0.53360  1.0000
  H   H74       1.0  0.18523  0.26134  0.62644  1.0000
  H   H75       1.0  0.21006  0.23873  0.59440  1.0000
  H   H76       1.0  0.23240  0.29358  0.53784  1.0000
  H   H77       1.0  0.19470  0.30788  0.51519  1.0000
  H   H78       1.0  0.12118  0.27595  0.53912  1.0000
  H   H79       1.0  0.09413  0.22185  0.56017  1.0000
  H   H80       1.0  0.17763  0.25675  0.46515  1.0000
  H   H81       1.0  0.13751  0.20041  0.45960  1.0000
  H   H82       1.0  0.12078  0.23749  0.47989  1.0000
  H   H83       1.0  0.09263  0.24436  0.62798  1.0000
  H   H84       1.0  0.10017  0.38732  0.37610  1.0000
  H   H85       1.0  0.14541  0.16599  0.59669  1.0000
  N   N4        1.0  0.38080  0.26205  0.63887  1.0000
  H   H86       1.0  0.22821  0.32956  0.60784  1.0000
  H   H87       1.0  0.19225  0.34520  0.57983  1.0000
  H   H88       1.0  0.11684  0.46210  0.36689  1.0000
  H   H89       1.0  0.03648  0.44569  0.39014  1.0000
  H   H90       1.0  0.38147  0.33225  0.55744  1.0000
  H   H91       1.0  0.10033  0.29224  0.60153  1.0000
  H   H92       1.0  0.21078  0.46053  0.42322  1.0000
  C   C55       1.0  0.36492  0.27856  0.60209  1.0000
  H   H93       1.0  0.46885  0.25477  0.59400  1.0000
  H   H94       1.0  0.24698  0.36472  0.56272  1.0000
  H   H95       1.0  0.44814  0.03306  0.49754  1.0000
  C   C56       1.0  0.17600  0.44768  0.41339  1.0000
  C   C57       1.0  0.31281  0.18349  0.63673  1.0000
  H   H96       1.0  0.43329  0.43174  0.50880  1.0000
  H   H97       1.0  0.33261  0.27597  0.60942  1.0000
  C   C58       1.0  0.07578  0.40473  0.43442  1.0000
  H   H98       1.0  0.38849  0.21507  0.59990  1.0000
  H   H99       1.0  0.14637  0.29338  0.62628  1.0000
  S   S22       1.0  0.47411  0.05289  0.58676  1.0000
  H   H100      1.0  0.28133  0.16301  0.65396  1.0000
  C   C59       1.0  0.34117  0.22633  0.66196  1.0000
  C   C60       1.0  0.10912  0.47677  0.39457  1.0000
  H   H101      1.0  0.32920  0.16337  0.63489  1.0000
  N   N5        1.0  0.10781  0.45373  0.43573  1.0000
  H   H102      1.0  0.08562  0.38734  0.45777  1.0000
  C   C61       1.0  0.45095  0.27301  0.59993  1.0000
  C   C62       1.0  0.39503  0.32665  0.58740  1.0000
  C   C63       1.0  0.15374  0.46305  0.44613  1.0000
  H   H103      1.0  0.44462  0.28227  0.56795  1.0000
  C   C64       1.0  0.06660  0.47751  0.38337  1.0000
  C   C65       1.0  0.98126  0.45945  0.53307  1.0000
  H   H104      1.0  0.41573  0.22651  0.64992  1.0000
  H   H105      1.0  0.30487  0.18991  0.60418  1.0000
  H   H106      1.0  0.15429  0.44714  0.47666  1.0000
  H   H107      1.0  0.04225  0.39705  0.44484  1.0000
  H   H108      1.0  0.07467  0.42057  0.51858  1.0000
  H   H109      1.0  0.39592  0.35052  0.61112  1.0000
  H   H110      1.0  0.15365  0.18807  0.64926  1.0000
  H   H111      1.0  0.47058  0.99860  0.44116  1.0000
  C   C66       1.0  0.40778  0.29747  0.67095  1.0000
  C   C67       1.0  0.47043  0.02105  0.50512  1.0000
  H   H112      1.0  0.43612  0.32623  0.65576  1.0000
  H   H113      1.0  0.42907  0.33460  0.58033  1.0000
  H   H114      1.0  0.17703  0.46022  0.38073  1.0000
  H   H115      1.0  0.05062  0.39004  0.36835  1.0000
  H   H116      1.0  0.31847  0.23830  0.67192  1.0000
  H   H117      1.0  0.36041  0.32170  0.67636  1.0000
  H   H118      1.0  0.47329  0.30250  0.61878  1.0000
  C   C68       1.0  0.09401  0.47388  0.47082  1.0000
  H   H119      1.0  0.07718  0.46955  0.53815  1.0000
  C   C69       1.0  0.09358  0.45701  0.51649  1.0000
  H   H120      1.0  0.06001  0.46744  0.46533  1.0000
  H   H121      1.0  0.12734  0.46952  0.52907  1.0000
  C   C70       1.0  0.98969  0.48202  0.45854  1.0000
  H   H122      1.0  0.98246  0.47326  0.42525  1.0000
  S   S23       1.0  0.42492  0.48456  0.44046  1.0000
  H   H123      1.0  0.15294  0.32052  0.00432  1.0000
  Fe  Fe13      1.0  0.32323  0.28704  0.94046  1.0000
  C   C71       1.0  0.21975  0.37412  0.00172  1.0000
  H   H124      1.0  0.41407  0.17019  0.70145  1.0000
  Fe  Fe14      1.0  0.38477  0.28017  0.87491  1.0000
  S   S24       1.0  0.43971  0.30600  0.92295  1.0000
  S   S25       1.0  0.40391  0.26671  0.80898  1.0000
  Fe  Fe15      1.0  0.38851  0.25990  0.96934  1.0000
  C   C72       1.0  0.38239  0.31516  0.69674  1.0000
  Fe  Fe16      1.0  0.42024  0.35601  0.94164  1.0000
  H   H125      1.0  0.31210  0.16268  0.98978  1.0000
  S   S26       1.0  0.33470  0.23159  0.92053  1.0000
  S   S27       1.0  0.36844  0.33350  0.89016  1.0000
  H   H126      1.0  0.34612  0.46137  0.94449  1.0000
  C   C73       1.0  0.38177  0.47586  0.93920  1.0000
  S   S28       1.0  0.40520  0.21656  0.01034  1.0000
  S   S29       1.0  0.47284  0.42925  0.94326  1.0000
  H   H127      1.0  0.02031  0.43911  0.99108  1.0000
  H   H128      1.0  0.34306  0.06468  0.90961  1.0000
  C   C74       1.0  0.24080  0.31111  0.97081  1.0000
  C   C75       1.0  0.27391  0.35493  0.97595  1.0000
  C   C76       1.0  0.26327  0.38626  0.99112  1.0000
  H   H129      1.0  0.98188  0.33762  0.88075  1.0000
  H   H130      1.0  0.30762  0.36459  0.96820  1.0000
  C   C77       1.0  0.43640  0.16665  0.90149  1.0000
  C   C78       1.0  0.34997  0.13890  0.73047  1.0000
  C   C79       1.0  0.39321  0.17324  0.72502  1.0000
  C   C80       1.0  0.40949  0.21163  0.75010  1.0000
  C   C81       1.0  0.38289  0.21612  0.78102  1.0000
  C   C82       1.0  0.33989  0.18145  0.78700  1.0000
  C   C83       1.0  0.32366  0.14298  0.76201  1.0000
  C   C84       1.0  0.32328  0.14178  0.00390  1.0000
  H   H131      1.0  0.44287  0.23816  0.74534  1.0000
  H   H132      1.0  0.31887  0.18461  0.81030  1.0000
  H   H133      1.0  0.29675  0.09106  0.91124  1.0000
  N   N6        1.0  0.39161  0.13013  0.88801  1.0000
  C   C85       1.0  0.36037  0.14795  0.89191  1.0000
  C   C86       1.0  0.40502  0.07055  0.92344  1.0000
  C   C87       1.0  0.37613  0.09203  0.91875  1.0000
  C   C88       1.0  0.18666  0.33026  0.99667  1.0000
  C   C89       1.0  0.31116  0.11477  0.88441  1.0000
  H   H134      1.0  0.38914  0.48340  0.90474  1.0000
  H   H135      1.0  0.30533  0.09696  0.85376  1.0000
  H   H136      1.0  0.43901  0.09398  0.93390  1.0000
  H   H137      1.0  0.36326  0.16279  0.92397  1.0000
  H   H138      1.0  0.36901  0.17520  0.86883  1.0000
  H   H139      1.0  0.43556  0.17571  0.93549  1.0000
  C   C90       1.0  0.19716  0.29892  0.98108  1.0000
  H   H140      1.0  0.37230  0.10246  0.95121  1.0000
  H   H141      1.0  0.28887  0.41991  0.99512  1.0000
  H   H142      1.0  0.38743  0.13843  0.82016  1.0000
  H   H143      1.0  0.45118  0.10935  0.85182  1.0000
  H   H144      1.0  0.36055  0.08276  0.83698  1.0000
  C   C91       1.0  0.45828  0.00417  0.99969  1.0000
  H   H145      1.0  0.40493  0.05319  0.89389  1.0000
  H   H146      1.0  0.39056  0.04494  0.94878  1.0000
  H   H147      1.0  0.29023  0.11650  0.76663  1.0000
  S   S30       1.0  0.25292  0.27044  0.95332  1.0000
  C   C92       1.0  0.01041  0.46299  0.99890  1.0000
  S   S31       1.0  0.37389  0.31221  0.99287  1.0000
  H   H148      1.0  0.29279  0.13303  0.88302  1.0000
  H   H149      1.0  0.45179  0.14082  0.80583  1.0000
  H   H150      1.0  0.42646  0.00154  0.99507  1.0000
  C   C93       1.0  0.43070  0.11231  0.82672  1.0000
  C   C94       1.0  0.39046  0.11536  0.84254  1.0000
  C   C95       1.0  0.98596  0.47266  0.96942  1.0000
  H   H151      1.0  0.17139  0.26507  0.97709  1.0000
  S   S32       1.0  0.08084  0.38748  0.01478  1.0000
  H   H152      1.0  0.41895  0.08281  0.80601  1.0000
  S   S33       1.0  0.32766  0.09027  0.69914  1.0000
  C   C96       1.0  0.45498  0.20941  0.87495  1.0000
  H   H153      1.0  0.45285  0.20328  0.84013  1.0000
  H   H154      1.0  0.38893  0.44920  0.94773  1.0000
  H   H155      1.0  0.98678  0.31438  0.93049  1.0000
  H   H156      1.0  0.43798  0.22806  0.88269  1.0000
  H   H157      1.0  0.46160  0.15645  0.90086  1.0000
  H   H158      1.0  0.36280  0.29176  0.72257  1.0000
  H   H159      1.0  0.42285  0.28511  0.69467  1.0000
  H   H160      1.0  0.40623  0.34645  0.71261  1.0000
  H   H161      1.0  0.98830  0.28949  0.88253  1.0000
  H   H162      1.0  0.35122  0.21698  0.69208  1.0000
  C   C97       1.0  0.29390  0.09641  0.00858  1.0000
  H   H163      1.0  0.26020  0.08269  0.99793  1.0000
  S   S34       1.0  0.09782  0.73864  0.30146  1.0000
  H   H164      1.0  0.99666  0.78698  0.10434  1.0000
  H   H165      1.0  0.18602  0.80543  0.33000  1.0000
  Fe  Fe17      1.0  0.27554  0.89980  0.13019  1.0000
  S   S35       1.0  0.29529  0.85963  0.08987  1.0000
  S   S36       1.0  0.26420  0.89034  0.20225  1.0000
  Fe  Fe18      1.0  0.34752  0.92382  0.06148  1.0000
  H   H166      1.0  0.46041  0.50935  0.24917  1.0000
  C   C98       1.0  0.43351  0.51402  0.26247  1.0000
  H   H167      1.0  0.18155  0.75206  0.14613  1.0000
  C   C99       1.0  0.47467  0.49409  0.05246  1.0000
  S   S37       1.0  0.22684  0.89803  0.08252  1.0000
  C   C100      1.0  0.47470  0.52121  0.32839  1.0000
  C   C101      1.0  0.21799  0.84703  0.22890  1.0000
  C   C102      1.0  0.17899  0.81864  0.20736  1.0000
  C   C103      1.0  0.14259  0.78575  0.23007  1.0000
  C   C104      1.0  0.14480  0.78055  0.27443  1.0000
  C   C105      1.0  0.18382  0.80891  0.29592  1.0000
  C   C106      1.0  0.22006  0.84208  0.27329  1.0000
  H   H168      1.0  0.17667  0.82252  0.17340  1.0000
  H   H169      1.0  0.11237  0.76443  0.21330  1.0000
  C   C107      1.0  0.08264  0.70593  0.08790  1.0000
  H   H170      1.0  0.24995  0.86397  0.29031  1.0000
  Fe  Fe19      1.0  0.24968  0.86164  0.04038  1.0000
  H   H171      1.0  0.17256  0.69202  0.09430  1.0000
  H   H172      1.0  0.01832  0.69344  0.06676  1.0000
  H   H173      1.0  0.01638  0.64533  0.08558  1.0000
  H   H174      1.0  0.09112  0.71826  0.05467  1.0000
  H   H175      1.0  0.06512  0.63963  0.20367  1.0000
  H   H176      1.0  0.06314  0.60509  0.16099  1.0000
  N   N7        1.0  0.10650  0.68199  0.10129  1.0000
  H   H177      1.0  0.36166  0.52842  0.28602  1.0000
  H   H178      1.0  0.10932  0.62274  0.08812  1.0000
  H   H179      1.0  0.25881  0.96292  0.16094  1.0000
  H   H180      1.0  0.99622  0.80767  0.05231  1.0000
  C   C108      1.0  0.15423  0.71000  0.08854  1.0000
  H   H181      1.0  0.09430  0.73663  0.10680  1.0000
  C   C109      1.0  0.36267  0.51761  0.31907  1.0000
  H   H182      1.0  0.10872  0.70609  0.16558  1.0000
  H   H183      1.0  0.21472  0.77142  0.09947  1.0000
  C   C110      1.0  0.46278  0.97648  0.02901  1.0000
  C   C111      1.0  0.08737  0.63918  0.03001  1.0000
  H   H184      1.0  0.18209  0.93369  0.14810  1.0000
  S   S38       1.0  0.41689  0.93352  0.05588  1.0000
  C   C112      1.0  0.19386  0.94186  0.18155  1.0000
  Fe  Fe20      1.0  0.28404  0.95913  0.05438  1.0000
  C   C113      1.0  0.08917  0.63813  0.07920  1.0000
  H   H185      1.0  0.05542  0.61393  0.08963  1.0000
  C   C114      1.0  0.18020  0.75505  0.11101  1.0000
  H   H186      1.0  0.13331  0.67263  0.16039  1.0000
  C   C115      1.0  0.10500  0.67621  0.14921  1.0000
  H   H187      1.0  0.02166  0.68667  0.12346  1.0000
  H   H188      1.0  0.44351  0.54908  0.25608  1.0000
  H   H189      1.0  0.01778  0.53195  0.07846  1.0000
  C   C116      1.0  0.06379  0.63644  0.16832  1.0000
  N   N8        1.0  0.42932  0.50507  0.30992  1.0000
  H   H190      1.0  0.16739  0.77740  0.10274  1.0000
  H   H191      1.0  0.17292  0.95192  0.19892  1.0000
  H   H192      1.0  0.15746  0.71749  0.05382  1.0000
  S   S39       1.0  0.33131  0.96432  0.10561  1.0000
  H   H193      1.0  0.07323  0.60506  0.01768  1.0000
  H   H194      1.0  0.39129  0.50524  0.20792  1.0000
  H   H195      1.0  0.42986  0.56558  0.32630  1.0000
  C   C117      1.0  0.00914  0.51555  0.04788  1.0000
  H   H196      1.0  0.03275  0.63439  0.15784  1.0000
  H   H197      1.0  0.41006  0.59978  0.02330  1.0000
  C   C118      1.0  0.24345  0.97645  0.18284  1.0000
  H   H198      1.0  0.18878  0.91086  0.19649  1.0000
  H   H199      1.0  0.97997  0.75049  0.05947  1.0000
  H   H200      1.0  0.36873  0.52084  0.06731  1.0000
  C   C119      1.0  0.97845  0.77866  0.07361  1.0000
  H   H201      1.0  0.43288  0.56573  0.03554  1.0000
  C   C120      1.0  0.03203  0.68103  0.09172  1.0000
  C   C121      1.0  0.98480  0.52535  0.01832  1.0000
  C   C122      1.0  0.34814  0.49796  0.04176  1.0000
  C   C123      1.0  0.40971  0.52956  0.33206  1.0000
  H   H202      1.0  0.06575  0.65181  0.01863  1.0000
  H   H203      1.0  0.14846  0.83488  0.02876  1.0000
  H   H204      1.0  0.45935  0.48604  0.08362  1.0000
  H   H205      1.0  0.35151  0.53558  0.34019  1.0000
  H   H206      1.0  0.25588  0.97496  0.21520  1.0000
  H   H207      1.0  0.06667  0.48508  0.34891  1.0000
  H   H208      1.0  0.38443  0.94415  0.47630  1.0000
  Fe  Fe21      1.0  0.13877  0.73546  0.45847  1.0000
  S   S40       1.0  0.10533  0.76822  0.42652  1.0000
  S   S41       1.0  0.20054  0.77538  0.49814  1.0000
  Fe  Fe22      1.0  0.06578  0.64219  0.43344  1.0000
  S   S42       1.0  0.02772  0.66948  0.39958  1.0000
  S   S43       1.0  0.03569  0.56723  0.42908  1.0000
  H   H209      1.0  0.11528  0.51045  0.47110  1.0000
  Fe  Fe23      1.0  0.04370  0.71387  0.45631  1.0000
  S   S44       1.0  0.13046  0.69113  0.40278  1.0000
  S   S45       1.0  0.07781  0.68377  0.49185  1.0000
  C   C124      1.0  0.01533  0.52666  0.46999  1.0000
  H   H210      1.0  0.28491  0.77365  0.49901  1.0000
  H   H211      1.0  0.09065  0.87194  0.59020  1.0000
  H   H212      1.0  0.40961  0.52505  0.36730  1.0000
  C   C125      1.0  0.16046  0.91823  0.58860  1.0000
  H   H213      1.0  0.36379  0.93818  0.55153  1.0000
  H   H214      1.0  0.27922  0.92044  0.56712  1.0000
  H   H215      1.0  0.14002  0.80085  0.57345  1.0000
  C   C126      1.0  0.40834  0.87391  0.48317  1.0000
  C   C127      1.0  0.37394  0.91543  0.53760  1.0000
  H   H216      1.0  0.06182  0.82409  0.48386  1.0000
  C   C128      1.0  0.42204  0.84439  0.45880  1.0000
  C   C129      1.0  0.25661  0.92482  0.50438  1.0000
  C   C130      1.0  0.23531  0.90131  0.46737  1.0000
  C   C131      1.0  0.21901  0.85572  0.46480  1.0000
  C   C132      1.0  0.22382  0.83317  0.49932  1.0000
  C   C133      1.0  0.24694  0.85696  0.53567  1.0000
  C   C134      1.0  0.26315  0.90268  0.53832  1.0000
  H   H217      1.0  0.23052  0.91833  0.44087  1.0000
  H   H218      1.0  0.20217  0.83793  0.43627  1.0000
  H   H219      1.0  0.25091  0.83973  0.56248  1.0000
  Fe  Fe24      1.0  0.09325  0.72124  0.37254  1.0000
  H   H220      1.0  0.29969  0.83637  0.45473  1.0000
  C   C135      1.0  0.36331  0.91033  0.48939  1.0000
  C   C136      1.0  0.02406  0.53752  0.51316  1.0000
  H   H221      1.0  0.15200  0.92081  0.42416  1.0000
  H   H222      1.0  0.47259  0.51155  0.36260  1.0000
  H   H223      1.0  0.03521  0.88267  0.53548  1.0000
  H   H224      1.0  0.32902  0.90380  0.48554  1.0000
  C   C137      1.0  0.11490  0.89526  0.56675  1.0000
  H   H225      1.0  0.41447  0.92409  0.41823  1.0000
  H   H226      1.0  0.34353  0.92808  0.41245  1.0000
  H   H227      1.0  0.39403  0.81082  0.45324  1.0000
  S   S46       1.0  0.00060  0.73065  0.49710  1.0000
  H   H228      1.0  0.15931  0.93668  0.61690  1.0000
  H   H229      1.0  0.40204  0.86205  0.51669  1.0000
  H   H230      1.0  0.01320  0.51288  0.57788  1.0000
  N   N9        1.0  0.11235  0.87282  0.52494  1.0000
  C   C138      1.0  0.00679  0.50411  0.54451  1.0000
  C   C139      1.0  0.03813  0.86717  0.50578  1.0000
  H   H231      1.0  0.17244  0.92602  0.49826  1.0000
  H   H232      1.0  0.09702  0.87762  0.43325  1.0000
  C   C140      1.0  0.13366  0.84476  0.52829  1.0000
  H   H233      1.0  0.10548  0.92105  0.56232  1.0000
  H   H234      1.0  0.13199  0.82874  0.49736  1.0000
  C   C141      1.0  0.31555  0.80539  0.50498  1.0000
  H   H235      1.0  0.14294  0.86822  0.43999  1.0000
  H   H236      1.0  0.12666  0.93361  0.49268  1.0000
  C   C142      1.0  0.06482  0.84358  0.51300  1.0000
  C   C143      1.0  0.13651  0.90793  0.49160  1.0000
  N   N10       1.0  0.37015  0.87697  0.46480  1.0000
  H   H237      1.0  0.43791  0.90719  0.48480  1.0000
  C   C144      1.0  0.13131  0.89203  0.44490  1.0000
  H   H238      1.0  0.16949  0.86500  0.53437  1.0000
  H   H239      1.0  0.44686  0.84101  0.47806  1.0000
  H   H240      1.0  0.40990  0.93075  0.54328  1.0000
  C   C145      1.0  0.32848  0.83272  0.46361  1.0000
  C   C146      1.0  0.38177  0.89334  0.41941  1.0000
  H   H241      1.0  0.33057  0.81156  0.43830  1.0000
  H   H242      1.0  0.16986  0.89412  0.60032  1.0000
  H   H243      1.0  0.43843  0.85967  0.42813  1.0000
  C   C147      1.0  0.11366  0.80684  0.56119  1.0000
  H   H244      1.0  0.18667  0.94240  0.56731  1.0000
  H   H245      1.0  0.00420  0.84230  0.49591  1.0000
  H   H246      1.0  0.34064  0.79687  0.51532  1.0000
  H   H247      1.0  0.31601  0.87233  0.39191  1.0000
  H   H248      1.0  0.09956  0.81410  0.58944  1.0000
  H   H249      1.0  0.08773  0.77608  0.54611  1.0000
  H   H250      1.0  0.05201  0.89207  0.47996  1.0000
  H   H251      1.0  0.04716  0.81849  0.53827  1.0000
  H   H252      1.0  0.35663  0.88420  0.55548  1.0000
  H   H253      1.0  0.04404  0.57165  0.52242  1.0000
  C   C148      1.0  0.34832  0.90269  0.39615  1.0000
  H   H254      1.0  0.30786  0.82168  0.53097  1.0000
  H   H255      1.0  0.38513  0.86916  0.39908  1.0000
  C   C149      1.0  0.00633  0.69642  0.62980  1.0000
  C   C150      1.0  0.46869  0.49330  0.47515  1.0000
  H   H256      1.0  0.06511  0.50406  0.40126  1.0000
  H   H257      1.0  0.03004  0.72288  0.65108  1.0000
  H   H258      1.0  0.02182  0.70311  0.59766  1.0000
  S   S47       1.0  0.26913  0.98010  0.50866  1.0000
  H   H259      1.0  0.00187  0.66420  0.64026  1.0000
  H   H260      1.0  0.36100  0.91548  0.36367  1.0000
  H   H261      1.0  0.17609  0.49906  0.45101  1.0000
  H   H262      1.0  0.13625  0.51174  0.39542  1.0000
  H   H263      1.0  0.13740  0.72462  0.95862  1.0000
  S   S48       1.0  0.00109  0.73193  0.97440  1.0000
  H   H264      1.0  0.05758  0.69697  0.94723  1.0000
  C   C151      1.0  0.08372  0.78928  0.00435  1.0000
  H   H265      1.0  0.47608  0.95102  0.94641  1.0000
  H   H266      1.0  0.33717  0.54581  0.00887  1.0000
  H   H267      1.0  0.44225  0.53523  0.94896  1.0000
  H   H268      1.0  0.32270  0.49773  0.97974  1.0000
  C   C152      1.0  0.05772  0.75027  0.98145  1.0000
  C   C153      1.0  0.41073  0.51676  0.96668  1.0000
  C   C154      1.0  0.12247  0.74273  0.97150  1.0000
  C   C155      1.0  0.07722  0.72695  0.96508  1.0000
  H   H269      1.0  0.42201  0.90718  0.87689  1.0000
  S   S49       1.0  0.20455  0.79893  0.00393  1.0000
  H   H270      1.0  0.31778  0.54075  0.92765  1.0000
  C   C156      1.0  0.42484  0.58120  0.00851  1.0000
  H   H271      1.0  0.06896  0.80765  0.01692  1.0000
  H   H272      1.0  0.44052  0.83361  0.94645  1.0000
  C   C157      1.0  0.45766  0.84942  0.91607  1.0000
  C   C158      1.0  0.45660  0.91545  0.93895  1.0000
  H   H273      1.0  0.44265  0.90011  0.97041  1.0000
  H   H274      1.0  0.43070  0.84106  0.89266  1.0000
  H   H275      1.0  0.38698  0.87584  0.92064  1.0000
  H   H276      1.0  0.42031  0.50538  0.99572  1.0000
  S   S50       1.0  0.30345  0.92241  0.00841  1.0000
  C   C159      1.0  0.41658  0.90741  0.91159  1.0000
  H   H277      1.0  0.99263  0.72544  0.70667  1.0000
  H   H278      1.0  0.46598  0.63816  0.96653  1.0000
  C   C160      1.0  0.14844  0.78165  0.99460  1.0000
  H   H279      1.0  0.40957  0.93470  0.91699  1.0000
  C   C161      1.0  0.46955  0.61599  0.98948  1.0000
  H   H280      1.0  0.35143  0.56466  0.88186  1.0000
  C   C162      1.0  0.34758  0.54489  0.91098  1.0000
  H   H281      1.0  0.45909  0.78995  0.89924  1.0000
  H   H282      1.0  0.41812  0.58019  0.91758  1.0000
  C   C163      1.0  0.38914  0.56997  0.93888  1.0000
  N   N11       1.0  0.39275  0.54663  0.97798  1.0000
  C   C164      1.0  0.12883  0.80485  0.01105  1.0000
  H   H283      1.0  0.38967  0.60095  0.94825  1.0000
  C   C165      1.0  0.34894  0.52246  0.00051  1.0000
  H   H284      1.0  0.34195  0.51255  0.90004  1.0000
  H   H285      1.0  0.12043  0.65830  0.01539  1.0000
  H   H286      1.0  0.95577  0.28112  0.20667  1.0000
  C   C166      1.0  0.90267  0.39107  0.04043  1.0000
  H   H287      1.0  0.84546  0.13187  0.19397  1.0000
  C   C167      1.0  0.93634  0.23753  0.13092  1.0000
  H   H288      1.0  0.92772  0.29554  0.13099  1.0000
  H   H289      1.0  0.91740  0.17726  0.22363  1.0000
  C   C168      1.0  0.85230  0.36924  0.03520  1.0000
  C   C169      1.0  0.90837  0.19277  0.19737  1.0000
  N   N12       1.0  0.94864  0.22433  0.17221  1.0000
  C   C170      1.0  0.97443  0.20150  0.16207  1.0000
  H   H290      1.0  0.88195  0.24644  0.10928  1.0000
  H   H291      1.0  0.95575  0.17375  0.13957  1.0000
  H   H292      1.0  0.96632  0.26169  0.11352  1.0000
  H   H293      1.0  0.91803  0.42590  0.05069  1.0000
  H   H294      1.0  0.89345  0.21015  0.21413  1.0000
  H   H295      1.0  0.96722  0.23627  0.26279  1.0000
  H   H296      1.0  0.88368  0.13520  0.15436  1.0000
  H   H297      1.0  0.77133  0.37185  0.02425  1.0000
  C   C171      1.0  0.87156  0.15466  0.17165  1.0000
  H   H298      1.0  0.91012  0.37341  0.06567  1.0000
  H   H299      1.0  0.83815  0.36966  0.06692  1.0000
  H   H300      1.0  0.94644  0.30876  0.03332  1.0000
  H   H301      1.0  0.88934  0.25259  0.16531  1.0000
  H   H302      1.0  0.92038  0.20933  0.10829  1.0000
  H   H303      1.0  0.83878  0.43438  0.05044  1.0000
  C   C172      1.0  0.90733  0.25924  0.13480  1.0000
  H   H304      1.0  0.85568  0.16668  0.14878  1.0000
  C   C173      1.0  0.92290  0.27542  0.02393  1.0000
  H   H305      1.0  0.86831  0.28729  0.02053  1.0000
  H   H306      1.0  0.76594  0.30054  0.03215  1.0000
  C   C174      1.0  0.97551  0.26525  0.19834  1.0000
  H   H307      1.0  0.65962  0.99190  0.09162  1.0000
  H   H308      1.0  0.84044  0.33400  0.02914  1.0000
  C   C175      1.0  0.93658  0.24445  0.01861  1.0000
  S   S51       1.0  0.74311  0.01647  0.45213  1.0000
  Fe  Fe25      1.0  0.86221  0.25254  0.53926  1.0000
  S   S52       1.0  0.89943  0.22156  0.56644  1.0000
  S   S53       1.0  0.79435  0.21004  0.50989  1.0000
  Fe  Fe26      1.0  0.93237  0.34517  0.56790  1.0000
  H   H309      1.0  0.77550  0.17822  0.60549  1.0000
  Fe  Fe27      1.0  0.90959  0.26372  0.62383  1.0000
  S   S54       1.0  0.92142  0.30780  0.50663  1.0000
  S   S55       1.0  0.86928  0.29234  0.59830  1.0000
  H   H310      1.0  0.72049  0.22581  0.47661  1.0000
  C   C176      1.0  0.73796  0.06821  0.57868  1.0000
  H   H311      1.0  0.70364  0.09210  0.64805  1.0000
  C   C177      1.0  0.75694  0.07085  0.46527  1.0000
  C   C178      1.0  0.80044  0.10083  0.47708  1.0000
  C   C179      1.0  0.81250  0.14392  0.48958  1.0000
  C   C180      1.0  0.78113  0.15746  0.49046  1.0000
  C   C181      1.0  0.73782  0.12783  0.47752  1.0000
  C   C182      1.0  0.72562  0.08454  0.46519  1.0000
  H   H312      1.0  0.82493  0.09060  0.47679  1.0000
  H   H313      1.0  0.84615  0.16658  0.49839  1.0000
  H   H314      1.0  0.71359  0.13815  0.47754  1.0000
  H   H315      1.0  0.69208  0.06173  0.45580  1.0000
  C   C183      1.0  0.68459  0.20600  0.47004  1.0000
  H   H316      1.0  0.95305  0.41441  0.48057  1.0000
  C   C184      1.0  0.83571  0.09963  0.60286  1.0000
  C   C185      1.0  0.61631  0.12181  0.58450  1.0000
  H   H317      1.0  0.81151  0.14255  0.58471  1.0000
  H   H318      1.0  0.83814  0.08156  0.63086  1.0000
  H   H319      1.0  0.89576  0.48140  0.43644  1.0000
  C   C186      1.0  0.59398  0.13794  0.55232  1.0000
  H   H320      1.0  0.74705  0.09355  0.55361  1.0000
  C   C187      1.0  0.60572  0.10487  0.48869  1.0000
  C   C188      1.0  0.53896  0.13540  0.47671  1.0000
  C   C189      1.0  0.61337  0.10355  0.44030  1.0000
  H   H321      1.0  0.62733  0.09427  0.50458  1.0000
  H   H322      1.0  0.57200  0.07755  0.49562  1.0000
  H   H323      1.0  0.52578  0.15203  0.45612  1.0000
  C   C190      1.0  0.48325  0.00152  0.47320  1.0000
  H   H324      1.0  0.64668  0.10844  0.43394  1.0000
  H   H325      1.0  0.60857  0.12714  0.42095  1.0000
  H   H326      1.0  0.67661  0.02660  0.54567  1.0000
  H   H327      1.0  0.53191  0.10456  0.46029  1.0000
  H   H328      1.0  0.75496  0.13016  0.66959  1.0000
  H   H329      1.0  0.52956  0.01397  0.58757  1.0000
  C   C191      1.0  0.49988  0.47065  0.53264  1.0000
  H   H330      1.0  0.60290  0.17840  0.45122  1.0000
  H   H331      1.0  0.82351  0.07763  0.57469  1.0000
  C   C192      1.0  0.51239  0.98592  0.48230  1.0000
  H   H332      1.0  0.72424  0.16726  0.62749  1.0000
  C   C193      1.0  0.75240  0.05358  0.65154  1.0000
  H   H333      1.0  0.87122  0.46284  0.50790  1.0000
  H   H334      1.0  0.61424  0.09054  0.57434  1.0000
  H   H335      1.0  0.67392  0.22973  0.46029  1.0000
  C   C194      1.0  0.68730  0.04002  0.57836  1.0000
  C   C195      1.0  0.80730  0.12090  0.61248  1.0000
  H   H336      1.0  0.59855  0.11491  0.61544  1.0000
  C   C196      1.0  0.48706  0.02572  0.54648  1.0000
  H   H337      1.0  0.86974  0.12605  0.59531  1.0000
  H   H338      1.0  0.76296  0.03098  0.63786  1.0000
  C   C197      1.0  0.97306  0.44855  0.48982  1.0000
  H   H339      1.0  0.49611  0.44647  0.55629  1.0000
  S   S56       1.0  0.95749  0.41910  0.57394  1.0000
  C   C198      1.0  0.74100  0.15175  0.61080  1.0000
  Fe  Fe28      1.0  0.95943  0.27965  0.53880  1.0000
  H   H340      1.0  0.66637  0.20693  0.53475  1.0000
  H   H341      1.0  0.72441  0.13957  0.57963  1.0000
  H   H342      1.0  0.75062  0.04662  0.56692  1.0000
  H   H343      1.0  0.55876  0.11215  0.55211  1.0000
  N   N13       1.0  0.75909  0.08931  0.62054  1.0000
  C   C199      1.0  0.73861  0.11451  0.63909  1.0000
  H   H344      1.0  0.89540  0.45747  0.57751  1.0000
  C   C200      1.0  0.66102  0.18099  0.51104  1.0000
  H   H345      1.0  0.59293  0.19665  0.49982  1.0000
  H   H346      1.0  0.65095  0.14717  0.59079  1.0000
  C   C201      1.0  0.51648  0.01041  0.55562  1.0000
  H   H347      1.0  0.58902  0.07053  0.42774  1.0000
  H   H348      1.0  0.68075  0.18397  0.44326  1.0000
  H   H349      1.0  0.80782  0.47379  0.54995  1.0000
  H   H350      1.0  0.59492  0.16759  0.56651  1.0000
  H   H351      1.0  0.52024  0.12749  0.50707  1.0000
  N   N14       1.0  0.61263  0.14747  0.50760  1.0000
  H   H352      1.0  0.67123  0.05965  0.58558  1.0000
  H   H353      1.0  0.67985  0.16543  0.52339  1.0000
  H   H354      1.0  0.82287  0.14428  0.63947  1.0000
  C   C202      1.0  0.58879  0.16661  0.48335  1.0000
  H   H355      1.0  0.71673  0.03154  0.65791  1.0000
  H   H356      1.0  0.67500  0.01134  0.60014  1.0000
  C   C203      1.0  0.52892  0.99031  0.52375  1.0000
  S   S57       1.0  0.97359  0.31956  0.59852  1.0000
  C   C204      1.0  0.89910  0.26943  0.82528  1.0000
  Fe  Fe29      1.0  0.71131  0.04409  0.94549  1.0000
  S   S58       1.0  0.69281  0.08111  0.99218  1.0000
  Fe  Fe30      1.0  0.71950  0.10352  0.86990  1.0000
  S   S59       1.0  0.70036  0.14345  0.91133  1.0000
  S   S60       1.0  0.72941  0.12277  0.79917  1.0000
  Fe  Fe31      1.0  0.74657  0.14183  0.96001  1.0000
  S   S61       1.0  0.79342  0.20714  0.99212  1.0000
  Fe  Fe32      1.0  0.64817  0.07949  0.93958  1.0000
  S   S62       1.0  0.57929  0.07115  0.94441  1.0000
  S   S63       1.0  0.76869  0.10533  0.91707  1.0000
  S   S64       1.0  0.66363  0.03893  0.89447  1.0000
  C   C205      1.0  0.49474  0.03407  0.97504  1.0000
  C   C206      1.0  0.53595  0.03665  0.97951  1.0000
  H   H357      1.0  0.89575  0.29879  0.83234  1.0000
  C   C207      1.0  0.85537  0.20236  0.71952  1.0000
  C   C208      1.0  0.85425  0.17448  0.75243  1.0000
  C   C209      1.0  0.81652  0.15110  0.77813  1.0000
  C   C210      1.0  0.77945  0.15551  0.77126  1.0000
  C   C211      1.0  0.78059  0.18340  0.73831  1.0000
  C   C212      1.0  0.81833  0.20676  0.71256  1.0000
  H   H358      1.0  0.88254  0.17038  0.75754  1.0000
  H   H359      1.0  0.81560  0.12869  0.80245  1.0000
  H   H360      1.0  0.75187  0.18656  0.73233  1.0000
  C   C213      1.0  0.90572  0.20126  0.00664  1.0000
  C   C214      1.0  0.87867  0.26327  0.01653  1.0000
  C   C215      1.0  0.93978  0.28533  0.79626  1.0000
  H   H361      1.0  0.83819  0.15597  0.98932  1.0000
  C   C216      1.0  0.86161  0.18926  0.99893  1.0000
  C   C217      1.0  0.54085  0.01026  0.01007  1.0000
  H   H362      1.0  0.56241  0.41983  0.96267  1.0000
  N   N15       1.0  0.83654  0.38921  0.00168  1.0000
  H   H363      1.0  0.56527  0.41797  0.90627  1.0000
  H   H364      1.0  0.93760  0.30543  0.76987  1.0000
  H   H365      1.0  0.97114  0.30612  0.81307  1.0000
  H   H366      1.0  0.89525  0.18971  0.83405  1.0000
  H   H367      1.0  0.78943  0.21736  0.89211  1.0000
  H   H368      1.0  0.82199  0.25713  0.85303  1.0000
  C   C218      1.0  0.92192  0.27786  0.90151  1.0000
  H   H369      1.0  0.88340  0.36038  0.91913  1.0000
  H   H370      1.0  0.91870  0.38872  0.01084  1.0000
  C   C219      1.0  0.85804  0.39342  0.95895  1.0000
  C   C220      1.0  0.76468  0.31231  0.99952  1.0000
  C   C221      1.0  0.85039  0.21770  0.87928  1.0000
  H   H371      1.0  0.77596  0.37159  0.96775  1.0000
  C   C222      1.0  0.58488  0.43497  0.93510  1.0000
  S   S65       1.0  0.72427  0.99008  0.96906  1.0000
  H   H372      1.0  0.83216  0.19019  0.85643  1.0000
  H   H373      1.0  0.49075  0.05456  0.95164  1.0000
  H   H374      1.0  0.84754  0.20183  0.91073  1.0000
  H   H375      1.0  0.89351  0.41873  0.95969  1.0000
  C   C223      1.0  0.77369  0.06919  0.69598  1.0000
  H   H376      1.0  0.94042  0.21277  0.92262  1.0000
  H   H377      1.0  0.82417  0.33422  0.91914  1.0000
  H   H378      1.0  0.84445  0.40652  0.93457  1.0000
  C   C224      1.0  0.82381  0.24181  0.88339  1.0000
  H   H379      1.0  0.87043  0.24794  0.80457  1.0000
  H   H380      1.0  0.91425  0.26108  0.93303  1.0000
  H   H381      1.0  0.90971  0.30154  0.90482  1.0000
  C   C225      1.0  0.84799  0.22035  0.00350  1.0000
  H   H382      1.0  0.83655  0.26637  0.90939  1.0000
  N   N16       1.0  0.89798  0.24565  0.86603  1.0000
  H   H383      1.0  0.75080  0.07248  0.71825  1.0000
  H   H384      1.0  0.93245  0.16902  0.88817  1.0000
  C   C226      1.0  0.85408  0.35128  0.93939  1.0000
  H   H385      1.0  0.61257  0.42824  0.93675  1.0000
  H   H386      1.0  0.94921  0.23186  0.84461  1.0000
  C   C227      1.0  0.48339  0.47028  0.98197  1.0000
  H   H387      1.0  0.85410  0.32799  0.96316  1.0000
  H   H388      1.0  0.81877  0.22821  0.68743  1.0000
  C   C228      1.0  0.91564  0.21477  0.85835  1.0000
  H   H389      1.0  0.94047  0.25720  0.78074  1.0000
  H   H390      1.0  0.84092  0.46403  0.95685  1.0000
  C   C229      1.0  0.84918  0.43505  0.01670  1.0000
  H   H391      1.0  0.79399  0.44301  0.99250  1.0000
  H   H392      1.0  0.78229  0.04506  0.70938  1.0000
  H   H393      1.0  0.49022  0.23121  0.88310  1.0000
  H   H394      1.0  0.88543  0.16729  0.91161  1.0000
  H   H395      1.0  0.66478  0.47723  0.98210  1.0000
  C   C230      1.0  0.91827  0.18986  0.89785  1.0000
  S   S66       1.0  0.90411  0.23163  0.68887  1.0000
  H   H396      1.0  0.72925  0.29789  0.99149  1.0000
  H   H397      1.0  0.77849  0.29853  0.97656  1.0000
  H   H398      1.0  0.60078  0.46447  0.01670  1.0000
  H   H399      1.0  0.80489  0.10092  0.69515  1.0000
  C   C231      1.0  0.78694  0.36307  0.99790  1.0000
  C   C232      1.0  0.83037  0.45947  0.99067  1.0000
  C   C233      1.0  0.97238  0.30633  0.89786  1.0000
  H   H400      1.0  0.88551  0.45694  0.01651  1.0000
  H   H401      1.0  0.91608  0.17707  0.00275  1.0000
  H   H402      1.0  0.57248  0.01234  0.01419  1.0000
  H   H403      1.0  0.97707  0.45587  0.93900  1.0000
  H   H404      1.0  0.55245  0.98644  0.89942  1.0000
  C   C234      1.0  0.60087  0.48459  0.93118  1.0000
  S   S67       1.0  0.59010  0.86132  0.30979  1.0000
  H   H405      1.0  0.65472  0.75497  0.31876  1.0000
  S   S68       1.0  0.67174  0.77032  0.07071  1.0000
  H   H406      1.0  0.49154  0.50550  0.31202  1.0000
  Fe  Fe33      1.0  0.57248  0.65088  0.07430  1.0000
  S   S69       1.0  0.63768  0.66996  0.10529  1.0000
  S   S70       1.0  0.51513  0.58021  0.07990  1.0000
  Fe  Fe34      1.0  0.63639  0.73047  0.12867  1.0000
  S   S71       1.0  0.66277  0.76167  0.19399  1.0000
  C   C235      1.0  0.56119  0.84756  0.10906  1.0000
  C   C236      1.0  0.50485  0.53828  0.04236  1.0000
  S   S72       1.0  0.56896  0.70855  0.10242  1.0000
  H   H407      1.0  0.52796  0.82956  0.12376  1.0000
  H   H408      1.0  0.50870  0.58474  0.29351  1.0000
  H   H409      1.0  0.65952  0.53106  0.05507  1.0000
  H   H410      1.0  0.71974  0.90749  0.08929  1.0000
  H   H411      1.0  0.68018  0.89584  0.20780  1.0000
  H   H412      1.0  0.92598  0.68532  0.08730  1.0000
  Fe  Fe35      1.0  0.66682  0.70807  0.04490  1.0000
  H   H413      1.0  0.80272  0.72548  0.09915  1.0000
  H   H414      1.0  0.67365  0.86092  0.31014  1.0000
  C   C237      1.0  0.89209  0.67290  0.07522  1.0000
  H   H415      1.0  0.65605  0.96047  0.16471  1.0000
  H   H416      1.0  0.72673  0.90751  0.14675  1.0000
  C   C238      1.0  0.64762  0.92415  0.08649  1.0000
  C   C239      1.0  0.83101  0.71985  0.09464  1.0000
  H   H417      1.0  0.59242  0.76534  0.34030  1.0000
  H   H418      1.0  0.64124  0.84649  0.09756  1.0000
  C   C240      1.0  0.62697  0.52722  0.04720  1.0000
  C   C241      1.0  0.73065  0.64350  0.03849  1.0000
  C   C242      1.0  0.61088  0.83336  0.27880  1.0000
  C   C243      1.0  0.65284  0.83896  0.28534  1.0000
  C   C244      1.0  0.66837  0.81707  0.25887  1.0000
  C   C245      1.0  0.64228  0.78958  0.22551  1.0000
  C   C246      1.0  0.60052  0.78438  0.21871  1.0000
  C   C247      1.0  0.58497  0.80615  0.24524  1.0000
  H   H419      1.0  0.62120  0.95913  0.05041  1.0000
  H   H420      1.0  0.70094  0.82169  0.26408  1.0000
  H   H421      1.0  0.58006  0.76332  0.19321  1.0000
  H   H422      1.0  0.55257  0.80188  0.23974  1.0000
  N   N17       1.0  0.64206  0.90203  0.12909  1.0000
  C   C248      1.0  0.60647  0.68626  0.32243  1.0000
  H   H423      1.0  0.71399  0.86002  0.11611  1.0000
  H   H424      1.0  0.58358  0.90091  0.15440  1.0000
  C   C249      1.0  0.50440  0.98031  0.03460  1.0000
  C   C250      1.0  0.93070  0.76824  0.08155  1.0000
  H   H425      1.0  0.87986  0.63842  0.06477  1.0000
  H   H426      1.0  0.63549  0.90549  0.22176  1.0000
  H   H427      1.0  0.81640  0.68384  0.09041  1.0000
  H   H428      1.0  0.56900  0.82243  0.09718  1.0000
  C   C251      1.0  0.66859  0.93698  0.16156  1.0000
  H   H429      1.0  0.87078  0.67138  0.10182  1.0000
  C   C252      1.0  0.59449  0.87785  0.14291  1.0000
  H   H430      1.0  0.60379  0.95090  0.10420  1.0000
  H   H431      1.0  0.64761  0.84673  0.15338  1.0000
  H   H432      1.0  0.85095  0.73119  0.12414  1.0000
  H   H433      1.0  0.59004  0.85660  0.17107  1.0000
  H   H434      1.0  0.63146  0.89970  0.06072  1.0000
  C   C253      1.0  0.70741  0.88784  0.11897  1.0000
  C   C254      1.0  0.65749  0.86887  0.12510  1.0000
  H   H435      1.0  0.93225  0.80001  0.08945  1.0000
  Fe  Fe36      1.0  0.60459  0.74549  0.04300  1.0000
  H   H436      1.0  0.69119  0.94815  0.22746  1.0000
  H   H437      1.0  0.83258  0.72937  0.02793  1.0000
  H   H438      1.0  0.68281  0.94196  0.07676  1.0000
  C   C255      1.0  0.66858  0.92003  0.20698  1.0000
  H   H439      1.0  0.97471  0.54907  0.02622  1.0000
  H   H440      1.0  0.74172  0.59292  0.06524  1.0000
  H   H441      1.0  0.60539  0.51160  0.07532  1.0000
  H   H442      1.0  0.71097  0.64355  0.06505  1.0000
  H   H443      1.0  0.62246  0.67340  0.30066  1.0000
  H   H444      1.0  0.55891  0.86656  0.08181  1.0000
  H   H445      1.0  0.58682  0.66040  0.34620  1.0000
  H   H446      1.0  0.91941  0.74855  0.11134  1.0000
  C   C256      1.0  0.74810  0.61491  0.03852  1.0000
  H   H447      1.0  0.70335  0.95760  0.15096  1.0000
  H   H448      1.0  0.58424  0.69300  0.30248  1.0000
  C   C257      1.0  0.63226  0.95850  0.08354  1.0000
  C   C258      1.0  0.64207  0.72888  0.34374  1.0000
  H   H449      1.0  0.50828  0.95944  0.05762  1.0000
  H   H450      1.0  0.86209  0.77917  0.05702  1.0000
  H   H451      1.0  0.62988  0.56009  0.04349  1.0000
  C   C259      1.0  0.85638  0.74495  0.05450  1.0000
  C   C260      1.0  0.50687  0.57125  0.32595  1.0000
  C   C261      1.0  0.89131  0.69999  0.03659  1.0000
  N   N18       1.0  0.89909  0.74579  0.04522  1.0000
  H   H452      1.0  0.54038  0.57770  0.33438  1.0000
  H   H453      1.0  0.85932  0.67990  0.02025  1.0000
  H   H454      1.0  0.49832  0.58930  0.34968  1.0000
  H   H455      1.0  0.58098  0.68630  0.41928  1.0000
  S   S73       1.0  0.62240  0.94013  0.49223  1.0000
  H   H456      1.0  0.92254  0.52585  0.39945  1.0000
  S   S74       1.0  0.55545  0.86681  0.42365  1.0000
  Fe  Fe37      1.0  0.57614  0.93686  0.44059  1.0000
  H   H457      1.0  0.87712  0.66072  0.62731  1.0000
  Fe  Fe38      1.0  0.60649  0.87236  0.47059  1.0000
  S   S75       1.0  0.58923  0.81403  0.51409  1.0000
  H   H458      1.0  0.92586  0.60552  0.63123  1.0000
  S   S76       1.0  0.66011  0.89551  0.42159  1.0000
  Fe  Fe39      1.0  0.71156  0.67785  0.54967  1.0000
  S   S77       1.0  0.69238  0.61839  0.50861  1.0000
  S   S78       1.0  0.72457  0.74382  0.52375  1.0000
  Fe  Fe40      1.0  0.72727  0.63581  0.62896  1.0000
  S   S79       1.0  0.70857  0.57279  0.59426  1.0000
  Fe  Fe41      1.0  0.74924  0.61642  0.54009  1.0000
  S   S80       1.0  0.79466  0.60117  0.50107  1.0000
  Fe  Fe42      1.0  0.65292  0.57956  0.56550  1.0000
  C   C262      1.0  0.90525  0.60314  0.65891  1.0000
  S   S81       1.0  0.77156  0.67890  0.57665  1.0000
  S   S82       1.0  0.66844  0.63942  0.60471  1.0000
  C   C263      1.0  0.84365  0.51750  0.49615  1.0000
  H   H459      1.0  0.66470  0.81351  0.36905  1.0000
  C   C264      1.0  0.85104  0.64069  0.49712  1.0000
  C   C265      1.0  0.87659  0.63630  0.46507  1.0000
  C   C266      1.0  0.92253  0.66411  0.46424  1.0000
  C   C267      1.0  0.94296  0.69713  0.49489  1.0000
  C   C268      1.0  0.91718  0.70313  0.52540  1.0000
  C   C269      1.0  0.87143  0.67465  0.52693  1.0000
  H   H460      1.0  0.86086  0.61091  0.44116  1.0000
  H   H461      1.0  0.94207  0.65999  0.43993  1.0000
  H   H462      1.0  0.93272  0.72961  0.54816  1.0000
  H   H463      1.0  0.85204  0.67860  0.55142  1.0000
  C   C270      1.0  0.50921  0.53273  0.47162  1.0000
  H   H464      1.0  0.56496  0.74952  0.43572  1.0000
  C   C271      1.0  0.54488  0.54116  0.49849  1.0000
  H   H465      1.0  0.57581  0.57163  0.49556  1.0000
  C   C272      1.0  0.62746  0.79547  0.51969  1.0000
  C   C273      1.0  0.67159  0.82250  0.50857  1.0000
  C   C274      1.0  0.70107  0.80641  0.51120  1.0000
  C   C275      1.0  0.68668  0.76306  0.52449  1.0000
  C   C276      1.0  0.64280  0.73625  0.53678  1.0000
  C   C277      1.0  0.61335  0.75263  0.53475  1.0000
  H   H466      1.0  0.68298  0.85576  0.49762  1.0000
  H   H467      1.0  0.73509  0.82746  0.50204  1.0000
  H   H468      1.0  0.63133  0.70270  0.54688  1.0000
  H   H469      1.0  0.57924  0.73161  0.54361  1.0000
  C   C278      1.0  0.89679  0.49484  0.52149  1.0000
  H   H470      1.0  0.95091  0.55770  0.46615  1.0000
  C   C279      1.0  0.63524  0.70909  0.65937  1.0000
  H   H471      1.0  0.97053  0.61968  0.56602  1.0000
  C   C280      1.0  0.56924  0.76526  0.40400  1.0000
  H   H472      1.0  0.73663  0.72085  0.64530  1.0000
  C   C281      1.0  0.71275  0.80115  0.67934  1.0000
  H   H473      1.0  0.71411  0.74620  0.61397  1.0000
  H   H474      1.0  0.78928  0.78239  0.59660  1.0000
  Fe  Fe43      1.0  0.61030  0.89407  0.37546  1.0000
  H   H475      1.0  0.94273  0.67232  0.60070  1.0000
  H   H476      1.0  0.55113  0.97816  0.53124  1.0000
  H   H477      1.0  0.78592  0.82158  0.63057  1.0000
  H   H478      1.0  0.67860  0.71065  0.42517  1.0000
  N   N19       1.0  0.89149  0.53241  0.50454  1.0000
  C   C282      1.0  0.81324  0.50491  0.53532  1.0000
  C   C283      1.0  0.89203  0.68258  0.65547  1.0000
  H   H479      1.0  0.91489  0.57710  0.45031  1.0000
  C   C284      1.0  0.73534  0.75186  0.64205  1.0000
  C   C285      1.0  0.96075  0.59715  0.53827  1.0000
  Fe  Fe44      1.0  0.67272  0.96330  0.43963  1.0000
  H   H480      1.0  0.86697  0.48716  0.58590  1.0000
  C   C286      1.0  0.96231  0.69622  0.62623  1.0000
  S   S83       1.0  0.52533  0.95974  0.44104  1.0000
  H   H481      1.0  0.67792  0.82663  0.64152  1.0000
  H   H482      1.0  0.71155  0.78081  0.42963  1.0000
  C   C287      1.0  0.61617  0.71275  0.42001  1.0000
  C   C288      1.0  0.70928  0.79794  0.40093  1.0000
  C   C289      1.0  0.54038  0.51014  0.52924  1.0000
  C   C290      1.0  0.91017  0.57156  0.53411  1.0000
  H   H483      1.0  0.65351  0.80072  0.42389  1.0000
  H   H484      1.0  0.87233  0.59637  0.64803  1.0000
  H   H485      1.0  0.86668  0.50743  0.41335  1.0000
  H   H486      1.0  0.80725  0.78717  0.65048  1.0000
  H   H487      1.0  0.63431  0.67136  0.45667  1.0000
  H   H488      1.0  0.59100  0.80135  0.40700  1.0000
  H   H489      1.0  0.63385  0.66287  0.40060  1.0000
  S   S84       1.0  0.62776  0.96427  0.38893  1.0000
  H   H490      1.0  0.72772  0.83646  0.61776  1.0000
  H   H491      1.0  0.61955  0.73054  0.45032  1.0000
  C   C291      1.0  0.66232  0.78981  0.39406  1.0000
  H   H492      1.0  0.92640  0.51532  0.58547  1.0000
  H   H493      1.0  0.51299  0.55701  0.44812  1.0000
  H   H494      1.0  0.64379  0.70529  0.62632  1.0000
  C   C292      1.0  0.91550  0.54747  0.46241  1.0000
  H   H495      1.0  0.82459  0.53163  0.55922  1.0000
  C   C293      1.0  0.64263  0.68853  0.42530  1.0000
  C   C294      1.0  0.58661  0.74575  0.37011  1.0000
  H   H496      1.0  0.84050  0.54358  0.47878  1.0000
  S   S85       1.0  0.58410  0.51915  0.56414  1.0000
  H   H497      1.0  0.55862  0.71237  0.36294  1.0000
  H   H498      1.0  0.82850  0.48811  0.47502  1.0000
  H   H499      1.0  0.90017  0.59561  0.52363  1.0000
  C   C295      1.0  0.89260  0.72593  0.64518  1.0000
  N   N20       1.0  0.62727  0.74365  0.38237  1.0000
  H   H500      1.0  0.89645  0.56210  0.56671  1.0000
  H   H501      1.0  0.67923  0.78274  0.61509  1.0000
  H   H502      1.0  0.53662  0.76007  0.39381  1.0000
  C   C296      1.0  0.78213  0.78827  0.62973  1.0000
  C   C297      1.0  0.89608  0.48892  0.57038  1.0000
  C   C298      1.0  0.69871  0.81140  0.63580  1.0000
  H   H503      1.0  0.73138  0.83363  0.40708  1.0000
  H   H504      1.0  0.92845  0.49806  0.51078  1.0000
  H   H505      1.0  0.91628  0.74494  0.61958  1.0000
  H   H506      1.0  0.85935  0.71799  0.63390  1.0000
  N   N21       1.0  0.93585  0.68674  0.66675  1.0000
  H   H507      1.0  0.60624  0.67703  0.66835  1.0000
  H   H508      1.0  0.78039  0.49872  0.52451  1.0000
  C   C299      1.0  0.89856  0.51305  0.42625  1.0000
  H   H509      1.0  0.90005  0.57417  0.67804  1.0000
  H   H510      1.0  0.62440  0.73393  0.66051  1.0000
  H   H511      1.0  0.97056  0.72900  0.61319  1.0000
  H   H512      1.0  0.86769  0.66618  0.68135  1.0000
  H   H513      1.0  0.97620  0.61817  0.50975  1.0000
  H   H514      1.0  0.97430  0.57485  0.54289  1.0000
  H   H515      1.0  0.89967  0.74674  0.67400  1.0000
  H   H516      1.0  0.72266  0.78980  0.37256  1.0000
  H   H517      1.0  0.77699  0.59053  0.68260  1.0000
  H   H518      1.0  0.97144  0.75645  0.68350  1.0000
  N   N22       1.0  0.71656  0.76009  0.68200  1.0000
  H   H519      1.0  0.67026  0.72393  0.35126  1.0000
  H   H520      1.0  0.61995  0.56335  0.89432  1.0000
  S   S86       1.0  0.91998  0.60810  0.99315  1.0000
  Fe  Fe45      1.0  0.89220  0.61165  0.87268  1.0000
  S   S87       1.0  0.85616  0.55132  0.91383  1.0000
  S   S88       1.0  0.87466  0.60511  0.80164  1.0000
  Fe  Fe46      1.0  0.85671  0.59748  0.96378  1.0000
  H   H521      1.0  0.54867  0.90509  0.93683  1.0000
  Fe  Fe47      1.0  0.92278  0.56738  0.93923  1.0000
  H   H522      1.0  0.90159  0.70407  0.73835  1.0000
  S   S89       1.0  0.88878  0.65692  0.92133  1.0000
  C   C300      1.0  0.93779  0.71997  0.74099  1.0000
  H   H523      1.0  0.78015  0.79512  0.71348  1.0000
  H   H524      1.0  0.76070  0.77995  0.78574  1.0000
  C   C301      1.0  0.78066  0.63803  0.72827  1.0000
  C   C302      1.0  0.79005  0.60608  0.71308  1.0000
  C   C303      1.0  0.81727  0.59493  0.73694  1.0000
  C   C304      1.0  0.83506  0.61520  0.77639  1.0000
  C   C305      1.0  0.82434  0.64596  0.79231  1.0000
  C   C306      1.0  0.79738  0.65738  0.76829  1.0000
  H   H525      1.0  0.68929  0.80014  0.70389  1.0000
  H   H526      1.0  0.82505  0.57082  0.72450  1.0000
  H   H527      1.0  0.83793  0.66197  0.82249  1.0000
  H   H528      1.0  0.79003  0.68186  0.78050  1.0000
  C   C307      1.0  0.68463  0.93401  0.97736  1.0000
  C   C308      1.0  0.51314  0.51455  0.97179  1.0000
  H   H529      1.0  0.72093  0.50421  0.93268  1.0000
  C   C309      1.0  0.69863  0.90581  0.99415  1.0000
  H   H530      1.0  0.62884  0.93863  0.95573  1.0000
  H   H531      1.0  0.80245  0.64422  0.94376  1.0000
  H   H532      1.0  0.84333  0.49304  0.00414  1.0000
  H   H533      1.0  0.50938  0.83082  0.92250  1.0000
  H   H534      1.0  0.94880  0.75343  0.75377  1.0000
  H   H535      1.0  0.90706  0.63716  0.71608  1.0000
  H   H536      1.0  0.95917  0.64747  0.69958  1.0000
  C   C310      1.0  0.62344  0.84461  0.99516  1.0000
  C   C311      1.0  0.60947  0.87251  0.97742  1.0000
  C   C312      1.0  0.73990  0.67290  0.00459  1.0000
  C   C313      1.0  0.63986  0.91716  0.96877  1.0000
  S   S90       1.0  0.74961  0.65590  0.69786  1.0000
  H   H537      1.0  0.48742  0.60106  0.97418  1.0000
  C   C314      1.0  0.70152  0.52136  0.93040  1.0000
  H   H538      1.0  0.86336  0.77001  0.96862  1.0000
  H   H539      1.0  0.69378  0.53271  0.99541  1.0000
  C   C315      1.0  0.66825  0.86142  0.00309  1.0000
  C   C316      1.0  0.64194  0.56063  0.95956  1.0000
  C   C317      1.0  0.77472  0.61554  0.00472  1.0000
  H   H540      1.0  0.87228  0.72393  0.96012  1.0000
  N   N23       1.0  0.63081  0.51341  0.96629  1.0000
  C   C318      1.0  0.65073  0.57846  0.91343  1.0000
  S   S91       1.0  0.72240  0.71217  0.00436  1.0000
  H   H541      1.0  0.75372  0.73702  0.71884  1.0000
  H   H542      1.0  0.72163  0.79401  0.76527  1.0000
  H   H543      1.0  0.49093  0.63715  0.01577  1.0000
  S   S92       1.0  0.60172  0.68587  0.01255  1.0000
  H   H544      1.0  0.65929  0.72330  0.72247  1.0000
  H   H545      1.0  0.53029  0.91148  0.86853  1.0000
  H   H546      1.0  0.90883  0.77658  0.93735  1.0000
  H   H547      1.0  0.73322  0.91849  0.00057  1.0000
  C   C319      1.0  0.52552  0.96961  0.87589  1.0000
  S   S93       1.0  0.95931  0.62503  0.89465  1.0000
  C   C320      1.0  0.96099  0.72363  0.69794  1.0000
  C   C321      1.0  0.67260  0.71995  0.69144  1.0000
  C   C322      1.0  0.78286  0.64411  0.97040  1.0000
  H   H548      1.0  0.67124  0.58335  0.97875  1.0000
  H   H549      1.0  0.67606  0.57407  0.89688  1.0000
  S   S94       1.0  0.93912  0.51181  0.94192  1.0000
  C   C323      1.0  0.76575  0.67280  0.97048  1.0000
  C   C324      1.0  0.91864  0.77366  0.00571  1.0000
  H   H550      1.0  0.66292  0.61447  0.91434  1.0000
  H   H551      1.0  0.77285  0.69533  0.94407  1.0000
  H   H552      1.0  0.72503  0.55730  0.92843  1.0000
  H   H553      1.0  0.52772  0.52288  0.94032  1.0000
  C   C325      1.0  0.73250  0.76928  0.76344  1.0000
  H   H554      1.0  0.54026  0.94655  0.95858  1.0000
  H   H555      1.0  0.61460  0.56556  0.97111  1.0000
  S   S95       1.0  0.58376  0.78996  0.00935  1.0000
  C   C326      1.0  0.92799  0.64448  0.68724  1.0000
  Fe  Fe48      1.0  0.95247  0.66488  0.94725  1.0000
  H   H556      1.0  0.49895  0.85115  0.99212  1.0000
  H   H557      1.0  0.67635  0.69019  0.69445  1.0000
  H   H558      1.0  0.57494  0.85951  0.97107  1.0000
  C   C327      1.0  0.88863  0.75981  0.96596  1.0000
  H   H559      1.0  0.54739  0.58208  0.99365  1.0000
  C   C328      1.0  0.52432  0.54825  0.00195  1.0000
  C   C329      1.0  0.52303  0.91069  0.95159  1.0000
  H   H560      1.0  0.50108  0.98065  0.88013  1.0000
  H   H561      1.0  0.94548  0.70108  0.76470  1.0000
  S   S96       1.0  0.79792  0.58085  0.00639  1.0000
  C   C330      1.0  0.60579  0.49745  0.00783  1.0000
  H   H562      1.0  0.70622  0.73695  0.77550  1.0000
  C   C331      1.0  0.74740  0.76521  0.71813  1.0000
  H   H563      1.0  0.61619  0.49489  0.89924  1.0000
  H   H564      1.0  0.57097  0.48799  0.92935  1.0000
  H   H565      1.0  0.91598  0.70074  0.01376  1.0000
  C   C332      1.0  0.67200  0.51013  0.97020  1.0000
  C   C333      1.0  0.51113  0.88691  0.99522  1.0000
  H   H566      1.0  0.92909  0.80881  0.01228  1.0000
  H   H567      1.0  0.94898  0.77342  0.99561  1.0000
  H   H568      1.0  0.74507  0.83065  0.68696  1.0000
  H   H569      1.0  0.68317  0.50971  0.90014  1.0000
  H   H570      1.0  0.57217  0.49294  0.00461  1.0000
  H   H571      1.0  0.54040  0.98106  0.84381  1.0000
  H   H572      1.0  0.67964  0.84035  0.01620  1.0000
  H   H573      1.0  0.49585  0.83650  0.86793  1.0000
  C   C334      1.0  0.97302  0.50384  0.97890  1.0000
  C   C335      1.0  0.48249  0.82595  0.90059  1.0000
  C   C336      1.0  0.50423  0.91904  0.87835  1.0000
  H   H574      1.0  0.54134  0.90072  0.01513  1.0000
  H   H575      1.0  0.47914  0.90469  0.85261  1.0000
  N   N24       1.0  0.48529  0.89855  0.92118  1.0000
  H   H576      1.0  0.48684  0.89198  0.01322  1.0000
