data_image0
_chemical_formula_structural       FeS2FeSCSCS2FeS2FeHFeSHSFeSH2SCH3C5H3C2H4C6H4C6H5NC8H21FeCH4C2H3Fe2HCSCHNHNHC2H3CH4CSHCNC8H20CHC2SH4CSH3S2H2CH2CH2CHC2H2C2H3CH2CHFeS2FeSHSCS2FeS2FeHFeSHSHSHCSC2HC5H3C2SH3NC6H4C6H5CH6FeCH5SCHC3H3CHCH3CH4CHCHFeH3CH4NH2C4H5CH4C2HC2H3CH3CH4NH2CH3SC2H3CH3C2H4FeH2CHCHFeSH2FeS2FeS2FeSFeS3CS2FeHFeSHSC6H4C6H4C6H4CHC5HC3H2NCHC3H5CH7CH5CHNC8H2SH22CNC4H9CH8CH7S2H5NH10SH2CH2CHC2HCHCH4CH2C4HC2SHCFeC2FeH2NCHSFeSHSFeS2FeS2FeSFeS3HS2H2FeSHSC6H4C6H4C6H8C2H2CNHCHCH2CHC2HNH4CHCH3CH3C2H2CSHCH2CFeSHCHCH2CH3FeCH5CH2CHC2H7NH5CH4C2H2CH2C3HC2NH3CHCHSCH4CSCH2CFeHCH2CHSH2CS2FeS2FeSCHSHFeS2FeS2FeSFeS3FeS2FeS2FeSFeS3HCH3CHCH5C6HCH2CH2C6H4C6H5C4H5C6H6C2SHC2HNC4NCH6CH6SH5SHCFeCHNHFeCH2C3NC4HC3H10CH3CHCH4CH4CH2CH4C2H7CH2CHCH6C2HC2NH2C3HCH7CHC2H2CH4CH2CH7CHC3FeH5SCH2CHCH3C3H3CHNCHSFeHS2H2S2FeS2FeSFeCSNFeS2FeS2FeSFeS3FeS2FeS2FeSFeS3CSC2H3C2HCSHC6H7C6H4C6H5C4HNH3C6H4C2HC2H4C3H2N2H6CH2C2H3NC3H2CH3CH3CH2C2HCH2CFeH2C2NC4H10CH3SCH7CH4CH3CH3CHNCHCH2CHCHNH6CH2C2H3CH4CH7CH4CH6CH2CHCH2CH2CHFeHSH2C3HC2H12C4H2CHC2SHC3HCHCHCH7CNH4NH4C3H3CH2CH3SH2CH3CH2SHSHCH2CH2SCSFeSFeSCFeC7H2SHFeH4CH2NCH2C3H4CHCSHCH3CH3CH3C2H4CH2C4SH3C2H7NH5CHC3H4NHFeHC3H3CHCH4CH3SHSFeSFeSH2C7H5CH3FeCHCH2CH3CH2CH2CS2H2CH2CFeCH2CNHCHCHCH2C2H3C2HCH4FeH3CS2NH3C2H2C7H4CH3CH3CH3CHC2SH3FeHC2H2CSCHCH2CSH2CSNH6C2HCH6FeH2C2SH5CH4NC5H5C2HCHCFeH2SH4CHCHSHSHCH4CHCHC2H3SH2CH5CHNFeS2FeS2FeCFeS3FeHSH2FeS2FeS2FeSFeS3FeS2FeCHFeSHS3FeSHSHSH3C6H4C6H4C6H4CH2CH2C3H4C4H2C2H4C6H5CH4C2HSHCH5NHC3NHCH6CHC4H6CH3CNH2NSH3C3H5CH3C3NH2CH2C2H2CH3C2H6CH3CH2CHC2H2CH7CNH3C2HCH6CHC4H3FeH2CH3CSH3CHC2H2CH3NCH9C3HCFeSC2H2SC5FeCH9FeS2FeS2FeCFeS3H2SHCFeS2FeS2FeSFeS3FeS2FeH2FeSHS3FeSHSHSCH2C6H4C6H4C6H5C3HC5H3CHC6H4C6H4C2H3NC7H8CH8NC6H2CH6CH3FeCH2SH2CHCHNH4C2H2CHCH2SCH2CHSH4CH4CH2CH4CH8NCHFeH3CH4SH4CH5C2H2SNC2NCH3CH4CS2HCHCH2CHCHCHC4SHCH2C4H3CH3C2H2FeHCH3FeH2N2H2CH5C3H5CH9CHCH5CH4SHSFeSFeS2FeS2FeSFeS3HCHS2FeSHSC6H4C6H4C6H6CHCH4C3H3NC2H2C2FeH3CH8FeHC2HCH2CNC8H20C3H2CHC2H3CFeH2NHCHCH8C2SH3CH3FeH4CHCS3FeSFeS2FeS2FeSFeS3FeH2S2FeSHSC6H4C6H4C6H9C2HCHCHC2HCSH3CH3SH2NCHC2H2CNC5H14CHCHC2FeH2C2HCHCHC2H6NH3CHCHCH3CHNC5HCH2CH11CH4C2NH5C2H2C3H5CH4CHCH3CH2CHC3H2SH4FeH2SFeS2HS2FeHFeSCSFeS2FeSCHFeSHFeHSH2C2HC6H3C6H4C6H4CH3CH2CHCH3C2H2NHCH6C4H2NCHCNH5SHCFeH5CH4NC8H23C3HCHCH3CH4SCHSCSNHFeHSCHCH3CHCH3SH3CSH2C2H4CH2SFe2S2HS2FeCFeSHSFeS2FeSCSFeSCH2SH2CH2C6H2SC6H4C6H4CH4C2H2NHCH2CH5CH3CHCH2SCH2FeH2CH2CHNC8H21C3HC2H5CH3CH3C2HFeNHCH2CSHCH9SNCH2
_chemical_formula_sum              "Fe144 S288 C1008 H1728 N72"
_cell_length_a       65.7657
_cell_length_b       65.2035
_cell_length_c       40.888
_cell_angle_alpha    90.4999
_cell_angle_beta     89.256
_cell_angle_gamma    117.299

_space_group_name_H-M_alt    "P 1"
_space_group_IT_number       1

loop_
  _space_group_symop_operation_xyz
  'x, y, z'

loop_
  _atom_site_type_symbol
  _atom_site_label
  _atom_site_symmetry_multiplicity
  _atom_site_fract_x
  _atom_site_fract_y
  _atom_site_fract_z
  _atom_site_occupancy
  Fe  Fe1       1.0  0.18963  0.30797  0.31366  1.0000
  S   S1        1.0  0.16921  0.27265  0.29193  1.0000
  S   S2        1.0  0.17943  0.32183  0.35950  1.0000
  Fe  Fe2       1.0  0.18188  0.29022  0.24309  1.0000
  S   S3        1.0  0.16152  0.27881  0.19538  1.0000
  C   C1        1.0  0.97260  0.29372  0.00489  1.0000
  S   S4        1.0  0.20064  0.32611  0.26458  1.0000
  C   C2        1.0  0.19709  0.28633  0.42453  1.0000
  S   S5        1.0  0.09580  0.32915  0.01904  1.0000
  S   S6        1.0  0.09085  0.27804  0.45330  1.0000
  Fe  Fe3       1.0  0.03833  0.27585  0.04295  1.0000
  S   S7        1.0  0.05193  0.30948  0.06968  1.0000
  S   S8        1.0  0.00313  0.24587  0.05318  1.0000
  Fe  Fe4       1.0  0.06011  0.32582  0.01990  1.0000
  H   H1        1.0  0.13623  0.27870  0.35617  1.0000
  Fe  Fe5       1.0  0.08612  0.30924  0.06662  1.0000
  S   S9        1.0  0.10771  0.32118  0.11295  1.0000
  H   H2        1.0  0.10239  0.26220  0.39357  1.0000
  S   S10       1.0  0.07196  0.27429  0.04245  1.0000
  Fe  Fe6       1.0  0.97986  0.41924  0.33163  1.0000
  S   S11       1.0  0.03278  0.39995  0.40331  1.0000
  H   H3        1.0  0.05021  0.43542  0.45848  1.0000
  H   H4        1.0  0.21961  0.36097  0.20772  1.0000
  S   S12       1.0  0.99631  0.43280  0.38070  1.0000
  C   C3        1.0  0.15580  0.26729  0.46282  1.0000
  H   H5        1.0  0.10016  0.35288  0.45180  1.0000
  H   H6        1.0  0.19033  0.29777  0.41427  1.0000
  H   H7        1.0  0.20571  0.24808  0.41442  1.0000
  C   C4        1.0  0.05435  0.38395  0.44577  1.0000
  C   C5        1.0  0.03321  0.38188  0.43519  1.0000
  C   C6        1.0  0.01311  0.36572  0.45038  1.0000
  C   C7        1.0  0.17863  0.25896  0.38034  1.0000
  C   C8        1.0  0.98740  0.46277  0.22939  1.0000
  H   H8        1.0  0.07002  0.39656  0.43439  1.0000
  H   H9        1.0  0.99673  0.36387  0.44251  1.0000
  H   H10       1.0  0.14409  0.22856  0.37822  1.0000
  C   C9        1.0  0.98443  0.24357  0.08619  1.0000
  C   C10       1.0  0.99162  0.25886  0.11269  1.0000
  H   H11       1.0  0.17344  0.27170  0.37029  1.0000
  H   H12       1.0  0.00875  0.27301  0.11280  1.0000
  H   H13       1.0  0.00031  0.45881  0.21863  1.0000
  H   H14       1.0  0.99852  0.33963  0.48776  1.0000
  C   C11       1.0  0.14620  0.29060  0.17332  1.0000
  C   C12       1.0  0.14507  0.31056  0.18360  1.0000
  C   C13       1.0  0.13333  0.31968  0.16468  1.0000
  C   C14       1.0  0.12260  0.30903  0.13528  1.0000
  C   C15       1.0  0.12379  0.28910  0.12491  1.0000
  C   C16       1.0  0.13557  0.28000  0.14382  1.0000
  H   H15       1.0  0.15327  0.31901  0.20608  1.0000
  H   H16       1.0  0.13253  0.33511  0.17293  1.0000
  H   H17       1.0  0.11573  0.28076  0.10232  1.0000
  H   H18       1.0  0.13649  0.26465  0.13550  1.0000
  C   C17       1.0  0.15462  0.30924  0.38522  1.0000
  C   C18       1.0  0.15376  0.32103  0.41384  1.0000
  C   C19       1.0  0.13455  0.31174  0.43510  1.0000
  C   C20       1.0  0.11591  0.29042  0.42806  1.0000
  C   C21       1.0  0.11676  0.27862  0.39944  1.0000
  C   C22       1.0  0.13594  0.28795  0.37813  1.0000
  H   H19       1.0  0.16804  0.33756  0.41953  1.0000
  H   H20       1.0  0.13414  0.32113  0.45684  1.0000
  H   H21       1.0  0.20610  0.30473  0.08336  1.0000
  H   H22       1.0  0.17764  0.22704  0.42427  1.0000
  H   H23       1.0  0.99877  0.29177  0.05842  1.0000
  N   N1        1.0  0.05202  0.31746  0.40507  1.0000
  C   C23       1.0  0.03285  0.29395  0.41332  1.0000
  C   C24       1.0  0.06429  0.31545  0.37477  1.0000
  C   C25       1.0  0.04292  0.33445  0.39855  1.0000
  C   C26       1.0  0.06797  0.32587  0.43385  1.0000
  C   C27       1.0  0.01518  0.29352  0.43897  1.0000
  C   C28       1.0  0.07720  0.30094  0.37829  1.0000
  C   C29       1.0  0.02551  0.32805  0.37058  1.0000
  C   C30       1.0  0.09031  0.34847  0.42869  1.0000
  H   H24       1.0  0.02320  0.28496  0.39105  1.0000
  H   H25       1.0  0.03981  0.28254  0.42300  1.0000
  H   H26       1.0  0.07672  0.33282  0.36562  1.0000
  H   H27       1.0  0.05202  0.30739  0.35446  1.0000
  H   H28       1.0  0.03483  0.33734  0.42090  1.0000
  H   H29       1.0  0.05700  0.35169  0.39211  1.0000
  H   H30       1.0  0.05925  0.32878  0.45552  1.0000
  H   H31       1.0  0.07294  0.31249  0.44174  1.0000
  H   H32       1.0  0.02328  0.30281  0.46174  1.0000
  H   H33       1.0  0.00420  0.30080  0.42928  1.0000
  H   H34       1.0  0.00366  0.27534  0.44583  1.0000
  H   H35       1.0  0.08457  0.29975  0.35417  1.0000
  H   H36       1.0  0.09175  0.30908  0.39526  1.0000
  H   H37       1.0  0.06585  0.28306  0.38640  1.0000
  H   H38       1.0  0.03376  0.32920  0.34636  1.0000
  H   H39       1.0  0.01858  0.34074  0.37040  1.0000
  H   H40       1.0  0.01074  0.31075  0.37356  1.0000
  H   H41       1.0  0.10153  0.34676  0.40957  1.0000
  H   H42       1.0  0.17929  0.30524  0.08835  1.0000
  H   H43       1.0  0.13776  0.25917  0.47174  1.0000
  H   H44       1.0  0.01043  0.31453  0.10297  1.0000
  Fe  Fe7       1.0  0.20219  0.26996  0.29401  1.0000
  C   C31       1.0  0.97907  0.45482  0.26113  1.0000
  H   H45       1.0  0.00995  0.31695  0.03442  1.0000
  H   H46       1.0  0.08711  0.36327  0.42283  1.0000
  H   H47       1.0  0.99067  0.32562  0.09707  1.0000
  H   H48       1.0  0.15983  0.23569  0.34075  1.0000
  C   C32       1.0  0.97689  0.25524  0.13976  1.0000
  C   C33       1.0  0.97681  0.27263  0.99818  1.0000
  H   H49       1.0  0.99102  0.46320  0.44419  1.0000
  H   H50       1.0  0.20560  0.35537  0.16930  1.0000
  H   H51       1.0  0.00379  0.40668  0.46111  1.0000
  Fe  Fe8       1.0  0.07967  0.29420  0.99492  1.0000
  Fe  Fe9       1.0  0.00032  0.40031  0.38474  1.0000
  H   H52       1.0  0.99329  0.27500  0.00829  1.0000
  C   C34       1.0  0.20235  0.32167  0.12874  1.0000
  S   S13       1.0  0.04454  0.29221  0.99325  1.0000
  C   C35       1.0  0.21887  0.21639  0.35582  1.0000
  H   H53       1.0  0.98588  0.30801  0.99030  1.0000
  N   N2        1.0  0.97314  0.30079  0.04032  1.0000
  H   H54       1.0  0.98791  0.42179  0.47102  1.0000
  N   N3        1.0  0.18096  0.26139  0.41705  1.0000
  H   H55       1.0  0.02854  0.43876  0.43536  1.0000
  C   C36       1.0  0.19014  0.24538  0.42871  1.0000
  C   C37       1.0  0.05539  0.36988  0.47106  1.0000
  H   H56       1.0  0.98207  0.33998  0.99577  1.0000
  H   H57       1.0  0.16780  0.22191  0.37161  1.0000
  H   H58       1.0  0.98729  0.42020  0.18711  1.0000
  C   C38       1.0  0.01417  0.35190  0.47594  1.0000
  H   H59       1.0  0.16041  0.28561  0.45755  1.0000
  H   H60       1.0  0.20606  0.20038  0.34556  1.0000
  H   H61       1.0  0.97878  0.36473  0.22521  1.0000
  H   H62       1.0  0.01872  0.33974  0.07892  1.0000
  C   C39       1.0  0.98180  0.46402  0.46587  1.0000
  S   S14       1.0  0.98988  0.43816  0.28230  1.0000
  H   H63       1.0  0.14645  0.25786  0.41371  1.0000
  C   C40       1.0  0.15737  0.25467  0.43148  1.0000
  N   N4        1.0  0.04516  0.24248  0.14961  1.0000
  C   C41       1.0  0.05335  0.26610  0.13475  1.0000
  C   C42       1.0  0.05299  0.22867  0.12766  1.0000
  C   C43       1.0  0.05486  0.24397  0.18323  1.0000
  C   C44       1.0  0.01944  0.23130  0.15250  1.0000
  C   C45       1.0  0.05067  0.28432  0.15629  1.0000
  C   C46       1.0  0.03981  0.21996  0.09538  1.0000
  C   C47       1.0  0.08121  0.25651  0.18519  1.0000
  C   C48       1.0  0.00781  0.20665  0.16683  1.0000
  H   H64       1.0  0.07173  0.27359  0.12749  1.0000
  H   H65       1.0  0.04417  0.26494  0.11161  1.0000
  H   H66       1.0  0.05235  0.21342  0.14056  1.0000
  H   H67       1.0  0.07137  0.23905  0.12074  1.0000
  H   H68       1.0  0.04796  0.25241  0.20081  1.0000
  H   H69       1.0  0.04935  0.22639  0.19337  1.0000
  H   H70       1.0  0.01386  0.24166  0.16855  1.0000
  H   H71       1.0  0.01137  0.23107  0.12868  1.0000
  H   H72       1.0  0.03262  0.27920  0.16297  1.0000
  H   H73       1.0  0.06119  0.28856  0.17865  1.0000
  H   H74       1.0  0.05701  0.30065  0.14226  1.0000
  H   H75       1.0  0.02221  0.20599  0.09972  1.0000
  H   H76       1.0  0.03890  0.23399  0.08147  1.0000
  H   H77       1.0  0.04875  0.21263  0.07958  1.0000
  H   H78       1.0  0.08915  0.24766  0.17048  1.0000
  H   H79       1.0  0.08640  0.25654  0.21095  1.0000
  H   H80       1.0  0.08849  0.27479  0.17761  1.0000
  H   H81       1.0  0.00566  0.20722  0.19377  1.0000
  H   H82       1.0  0.01722  0.19664  0.16143  1.0000
  H   H83       1.0  0.07176  0.37190  0.47935  1.0000
  C   C49       1.0  0.19613  0.24705  0.46518  1.0000
  H   H84       1.0  0.14810  0.23580  0.43647  1.0000
  C   C50       1.0  0.19293  0.30322  0.10157  1.0000
  C   C51       1.0  0.16150  0.23482  0.36761  1.0000
  S   S15       1.0  0.21291  0.28393  0.24330  1.0000
  H   H85       1.0  0.00144  0.34857  0.03014  1.0000
  H   H86       1.0  0.18468  0.28559  0.11221  1.0000
  H   H87       1.0  0.19524  0.26286  0.36831  1.0000
  H   H88       1.0  0.18760  0.31730  0.14575  1.0000
  C   C52       1.0  0.99672  0.30747  0.05343  1.0000
  S   S16       1.0  0.20340  0.23741  0.31151  1.0000
  H   H89       1.0  0.05432  0.46330  0.44621  1.0000
  H   H90       1.0  0.02100  0.45930  0.48072  1.0000
  H   H91       1.0  0.20735  0.28948  0.16729  1.0000
  S   S17       1.0  0.98761  0.38897  0.33390  1.0000
  S   S18       1.0  0.05115  0.35474  0.00811  1.0000
  H   H92       1.0  0.98286  0.26666  0.16070  1.0000
  H   H93       1.0  0.99066  0.19677  0.15567  1.0000
  C   C53       1.0  0.00407  0.32267  0.08467  1.0000
  H   H94       1.0  0.18073  0.24184  0.48089  1.0000
  H   H95       1.0  0.98678  0.37219  0.26632  1.0000
  C   C54       1.0  0.97183  0.36251  0.25034  1.0000
  H   H96       1.0  0.19848  0.28976  0.45122  1.0000
  H   H97       1.0  0.20713  0.32065  0.19467  1.0000
  C   C55       1.0  0.97910  0.47567  0.21133  1.0000
  H   H98       1.0  0.20556  0.33844  0.11762  1.0000
  C   C56       1.0  0.04133  0.44615  0.45506  1.0000
  C   C57       1.0  0.99638  0.41215  0.48200  1.0000
  H   H99       1.0  0.99120  0.40439  0.21943  1.0000
  H   H100      1.0  0.20325  0.23489  0.47025  1.0000
  C   C58       1.0  0.03525  0.35365  0.48612  1.0000
  C   C59       1.0  0.98342  0.34241  0.02270  1.0000
  H   H101      1.0  0.20946  0.26447  0.47215  1.0000
  H   H102      1.0  0.16651  0.26650  0.48288  1.0000
  H   H103      1.0  0.97883  0.35647  0.02839  1.0000
  C   C60       1.0  0.03034  0.44932  0.48699  1.0000
  H   H104      1.0  0.98542  0.48133  0.18681  1.0000
  H   H105      1.0  0.97944  0.39055  0.18029  1.0000
  C   C61       1.0  0.97966  0.40300  0.19903  1.0000
  H   H106      1.0  0.22014  0.29117  0.12876  1.0000
  Fe  Fe10      1.0  0.19545  0.31659  0.81884  1.0000
  S   S19       1.0  0.18222  0.28025  0.79939  1.0000
  S   S20       1.0  0.18505  0.32962  0.86535  1.0000
  Fe  Fe11      1.0  0.18558  0.29684  0.74963  1.0000
  S   S21       1.0  0.15982  0.28051  0.70819  1.0000
  H   H107      1.0  0.20749  0.21375  0.89109  1.0000
  S   S22       1.0  0.19702  0.33267  0.76950  1.0000
  C   C62       1.0  0.07263  0.27250  0.68097  1.0000
  S   S23       1.0  0.09405  0.32664  0.51993  1.0000
  S   S24       1.0  0.09100  0.28408  0.94690  1.0000
  Fe  Fe12      1.0  0.04501  0.27022  0.55777  1.0000
  S   S25       1.0  0.05631  0.30519  0.57998  1.0000
  S   S26       1.0  0.01808  0.23638  0.58018  1.0000
  Fe  Fe13      1.0  0.05685  0.31754  0.52838  1.0000
  H   H108      1.0  0.14122  0.28844  0.85423  1.0000
  Fe  Fe14      1.0  0.09231  0.31082  0.56985  1.0000
  S   S27       1.0  0.11974  0.32805  0.60903  1.0000
  H   H109      1.0  0.10504  0.27133  0.88673  1.0000
  S   S28       1.0  0.08110  0.27496  0.55047  1.0000
  H   H110      1.0  0.99187  0.19196  0.60605  1.0000
  S   S29       1.0  0.99472  0.35846  0.88475  1.0000
  H   H111      1.0  0.00143  0.46562  0.72946  1.0000
  C   C63       1.0  0.02973  0.37370  0.97063  1.0000
  S   S30       1.0  0.98645  0.41906  0.88228  1.0000
  C   C64       1.0  0.21550  0.38330  0.83111  1.0000
  C   C65       1.0  0.07112  0.29196  0.66169  1.0000
  H   H112      1.0  0.00422  0.24395  0.69097  1.0000
  C   C66       1.0  0.02546  0.33666  0.95210  1.0000
  C   C67       1.0  0.01298  0.33786  0.92506  1.0000
  C   C68       1.0  0.00877  0.35696  0.92068  1.0000
  C   C69       1.0  0.01692  0.37472  0.94388  1.0000
  C   C70       1.0  0.07294  0.37662  0.90007  1.0000
  H   H113      1.0  0.02870  0.32196  0.95501  1.0000
  H   H114      1.0  0.00690  0.32412  0.90712  1.0000
  H   H115      1.0  0.01389  0.38957  0.94074  1.0000
  C   C71       1.0  0.05983  0.30364  0.89493  1.0000
  C   C72       1.0  0.99229  0.22511  0.60402  1.0000
  S   S31       1.0  0.03556  0.33652  0.51937  1.0000
  H   H116      1.0  0.20662  0.24084  0.84924  1.0000
  H   H117      1.0  0.09662  0.36965  0.97602  1.0000
  H   H118      1.0  0.97173  0.38731  0.71667  1.0000
  N   N5        1.0  0.08921  0.34705  0.89812  1.0000
  C   C73       1.0  0.14873  0.29408  0.68110  1.0000
  C   C74       1.0  0.15180  0.31655  0.68632  1.0000
  C   C75       1.0  0.14288  0.32668  0.66400  1.0000
  C   C76       1.0  0.13064  0.31446  0.63634  1.0000
  C   C77       1.0  0.12772  0.29206  0.63099  1.0000
  C   C78       1.0  0.13661  0.28191  0.65333  1.0000
  H   H119      1.0  0.16091  0.32609  0.70766  1.0000
  H   H120      1.0  0.14532  0.34406  0.66829  1.0000
  H   H121      1.0  0.11883  0.28268  0.60942  1.0000
  H   H122      1.0  0.13428  0.26458  0.64889  1.0000
  C   C79       1.0  0.15903  0.31613  0.88827  1.0000
  C   C80       1.0  0.15716  0.32606  0.91818  1.0000
  C   C81       1.0  0.13665  0.31632  0.93678  1.0000
  C   C82       1.0  0.11771  0.29653  0.92556  1.0000
  C   C83       1.0  0.11958  0.28664  0.89565  1.0000
  C   C84       1.0  0.14010  0.29631  0.87714  1.0000
  H   H123      1.0  0.17168  0.34138  0.92707  1.0000
  H   H124      1.0  0.13550  0.32414  0.95971  1.0000
  H   H125      1.0  0.12211  0.37051  0.96027  1.0000
  H   H126      1.0  0.06858  0.21357  0.62459  1.0000
  H   H127      1.0  0.05733  0.30301  0.92179  1.0000
  C   C85       1.0  0.98331  0.20201  0.61360  1.0000
  H   H128      1.0  0.05404  0.22120  0.59483  1.0000
  H   H129      1.0  0.05836  0.37885  0.89039  1.0000
  H   H130      1.0  0.06286  0.25612  0.61705  1.0000
  H   H131      1.0  0.13047  0.34380  0.87331  1.0000
  H   H132      1.0  0.06888  0.27436  0.70713  1.0000
  H   H133      1.0  0.08874  0.39133  0.89078  1.0000
  Fe  Fe15      1.0  0.08093  0.29018  0.50112  1.0000
  C   C86       1.0  0.98557  0.46587  0.73612  1.0000
  H   H134      1.0  0.04538  0.30466  0.88266  1.0000
  H   H135      1.0  0.21166  0.17973  0.80159  1.0000
  H   H136      1.0  0.09843  0.33458  0.94150  1.0000
  H   H137      1.0  0.19595  0.35256  0.61162  1.0000
  H   H138      1.0  0.09606  0.31774  0.89130  1.0000
  S   S32       1.0  0.98587  0.44066  0.78964  1.0000
  C   C87       1.0  0.03326  0.24360  0.66574  1.0000
  H   H139      1.0  0.03458  0.44819  0.56487  1.0000
  C   C88       1.0  0.02894  0.41599  0.51627  1.0000
  C   C89       1.0  0.08316  0.32340  0.88423  1.0000
  C   C90       1.0  0.13198  0.35904  0.88747  1.0000
  H   H140      1.0  0.10833  0.38510  0.93949  1.0000
  H   H141      1.0  0.07169  0.37742  0.92708  1.0000
  H   H142      1.0  0.05393  0.29115  0.66332  1.0000
  C   C91       1.0  0.11134  0.36376  0.88190  1.0000
  H   H143      1.0  0.05375  0.34027  0.89867  1.0000
  C   C92       1.0  0.97346  0.46259  0.96374  1.0000
  H   H144      1.0  0.18256  0.32278  0.62357  1.0000
  H   H145      1.0  0.05416  0.23454  0.71770  1.0000
  H   H146      1.0  0.01150  0.45343  0.57929  1.0000
  C   C93       1.0  0.07049  0.35304  0.88861  1.0000
  H   H147      1.0  0.98474  0.32496  0.82382  1.0000
  H   H148      1.0  0.10906  0.36387  0.85494  1.0000
  H   H149      1.0  0.02861  0.40741  0.56822  1.0000
  H   H150      1.0  0.08345  0.30890  0.67203  1.0000
  C   C94       1.0  0.21167  0.34647  0.68300  1.0000
  H   H151      1.0  0.14786  0.37401  0.87869  1.0000
  C   C95       1.0  0.05922  0.23155  0.69275  1.0000
  H   H152      1.0  0.02224  0.22552  0.65792  1.0000
  Fe  Fe16      1.0  0.97692  0.38112  0.87689  1.0000
  H   H153      1.0  0.04683  0.21345  0.68657  1.0000
  H   H154      1.0  0.03940  0.20865  0.63188  1.0000
  H   H155      1.0  0.11669  0.38181  0.88952  1.0000
  C   C96       1.0  0.10543  0.36934  0.95278  1.0000
  H   H156      1.0  0.07606  0.29197  0.63573  1.0000
  H   H157      1.0  0.08345  0.32371  0.85696  1.0000
  H   H158      1.0  0.06851  0.35224  0.86151  1.0000
  H   H159      1.0  0.08528  0.25257  0.63551  1.0000
  N   N6        1.0  0.05786  0.24830  0.66876  1.0000
  H   H160      1.0  0.07352  0.33836  0.94633  1.0000
  H   H161      1.0  0.19313  0.30536  0.65739  1.0000
  C   C97       1.0  0.02098  0.45258  0.55704  1.0000
  C   C98       1.0  0.08306  0.23264  0.69639  1.0000
  C   C99       1.0  0.06639  0.24566  0.63535  1.0000
  C   C100      1.0  0.01952  0.39904  0.54537  1.0000
  H   H162      1.0  0.97782  0.27041  0.97135  1.0000
  H   H163      1.0  0.09578  0.24940  0.70661  1.0000
  H   H164      1.0  0.00089  0.39137  0.54967  1.0000
  H   H165      1.0  0.05917  0.28689  0.88757  1.0000
  H   H166      1.0  0.09101  0.27659  0.68027  1.0000
  C   C101      1.0  0.20886  0.30526  0.64790  1.0000
  H   H167      1.0  0.97302  0.28535  0.86391  1.0000
  H   H168      1.0  0.03141  0.25433  0.64611  1.0000
  H   H169      1.0  0.03195  0.40649  0.49553  1.0000
  H   H170      1.0  0.99253  0.41966  0.54832  1.0000
  C   C102      1.0  0.02192  0.24726  0.69698  1.0000
  C   C103      1.0  0.09090  0.34620  0.93487  1.0000
  H   H171      1.0  0.13433  0.35659  0.91365  1.0000
  C   C104      1.0  0.03421  0.35478  0.97476  1.0000
  C   C105      1.0  0.05632  0.22074  0.62167  1.0000
  H   H172      1.0  0.02345  0.38436  0.54091  1.0000
  H   H173      1.0  0.08171  0.21914  0.71392  1.0000
  H   H174      1.0  0.08975  0.22918  0.67312  1.0000
  C   C106      1.0  0.00408  0.43451  0.53320  1.0000
  H   H175      1.0  0.04490  0.46101  0.50251  1.0000
  H   H176      1.0  0.03093  0.26518  0.70637  1.0000
  H   H177      1.0  0.02032  0.23487  0.71646  1.0000
  C   C107      1.0  0.97731  0.38961  0.49619  1.0000
  H   H178      1.0  0.98756  0.25571  0.60710  1.0000
  H   H179      1.0  0.98151  0.46172  0.94089  1.0000
  H   H180      1.0  0.18694  0.27002  0.63271  1.0000
  H   H181      1.0  0.97314  0.32424  0.78445  1.0000
  N   N7        1.0  0.01483  0.42752  0.50523  1.0000
  H   H182      1.0  0.17926  0.37322  0.82763  1.0000
  H   H183      1.0  0.21477  0.28152  0.61469  1.0000
  C   C108      1.0  0.19548  0.38591  0.81588  1.0000
  H   H184      1.0  0.04627  0.42929  0.52374  1.0000
  H   H185      1.0  0.98383  0.37707  0.50168  1.0000
  H   H186      1.0  0.19392  0.38158  0.78939  1.0000
  S   S33       1.0  0.04375  0.28196  0.50671  1.0000
  C   C109      1.0  0.97400  0.45481  0.76501  1.0000
  C   C110      1.0  0.98084  0.23782  0.61423  1.0000
  H   H187      1.0  0.02878  0.47011  0.54614  1.0000
  H   H188      1.0  0.21259  0.22659  0.98741  1.0000
  H   H189      1.0  0.20203  0.33046  0.69730  1.0000
  C   C111      1.0  0.97676  0.47715  0.71562  1.0000
  H   H190      1.0  0.19999  0.34970  0.66718  1.0000
  H   H191      1.0  0.99283  0.44167  0.52360  1.0000
  H   H192      1.0  0.19384  0.29017  0.60007  1.0000
  C   C112      1.0  0.19500  0.33539  0.60641  1.0000
  C   C113      1.0  0.20094  0.28591  0.62194  1.0000
  H   H193      1.0  0.19664  0.40319  0.81962  1.0000
  H   H194      1.0  0.18728  0.32984  0.58186  1.0000
  H   H195      1.0  0.21257  0.36567  0.82387  1.0000
  H   H196      1.0  0.21298  0.38274  0.85816  1.0000
  Fe  Fe17      1.0  0.21949  0.28871  0.79313  1.0000
  H   H197      1.0  0.21543  0.29953  0.66912  1.0000
  H   H198      1.0  0.21854  0.36079  0.70112  1.0000
  C   C114      1.0  0.21916  0.33682  0.60638  1.0000
  H   H199      1.0  0.03639  0.38779  0.98806  1.0000
  C   C115      1.0  0.14284  0.74800  0.99549  1.0000
  H   H200      1.0  0.98146  0.63229  0.27020  1.0000
  Fe  Fe18      1.0  0.98934  0.56524  0.12618  1.0000
  S   S34       1.0  0.01611  0.60290  0.13245  1.0000
  H   H201      1.0  0.09992  0.74383  0.11531  1.0000
  H   H202      1.0  0.01203  0.63556  0.06841  1.0000
  Fe  Fe19      1.0  0.04174  0.73986  0.29332  1.0000
  S   S35       1.0  0.05463  0.71747  0.31690  1.0000
  S   S36       1.0  0.00851  0.73966  0.31104  1.0000
  Fe  Fe20      1.0  0.08124  0.75737  0.24177  1.0000
  S   S37       1.0  0.09606  0.73521  0.26280  1.0000
  S   S38       1.0  0.09355  0.78149  0.19705  1.0000
  Fe  Fe21      1.0  0.05931  0.70705  0.26568  1.0000
  S   S39       1.0  0.04173  0.66765  0.25874  1.0000
  Fe  Fe22      1.0  0.08970  0.74781  0.31202  1.0000
  S   S40       1.0  0.11345  0.75700  0.35642  1.0000
  S   S41       1.0  0.04489  0.72846  0.24223  1.0000
  S   S42       1.0  0.07652  0.77103  0.29085  1.0000
  C   C116      1.0  0.98145  0.69530  0.38793  1.0000
  S   S43       1.0  0.20856  0.84394  0.01612  1.0000
  S   S44       1.0  0.15679  0.84554  0.45117  1.0000
  Fe  Fe23      1.0  0.20059  0.89641  0.04788  1.0000
  H   H203      1.0  0.07337  0.61953  0.23175  1.0000
  Fe  Fe24      1.0  0.19485  0.84878  0.06533  1.0000
  S   S45       1.0  0.18433  0.82293  0.10764  1.0000
  H   H204      1.0  0.04358  0.75135  0.36896  1.0000
  S   S46       1.0  0.17083  0.86072  0.04432  1.0000
  C   C117      1.0  0.11937  0.79340  0.17339  1.0000
  C   C118      1.0  0.12186  0.80884  0.14792  1.0000
  C   C119      1.0  0.14173  0.81837  0.12796  1.0000
  C   C120      1.0  0.15943  0.81254  0.13317  1.0000
  C   C121      1.0  0.15701  0.79721  0.15871  1.0000
  C   C122      1.0  0.13716  0.78772  0.17873  1.0000
  H   H205      1.0  0.10818  0.81329  0.14344  1.0000
  H   H206      1.0  0.14307  0.82981  0.10813  1.0000
  H   H207      1.0  0.17054  0.79252  0.16299  1.0000
  H   H208      1.0  0.13555  0.77590  0.19817  1.0000
  C   C123      1.0  0.12608  0.78222  0.38163  1.0000
  C   C124      1.0  0.13890  0.78220  0.40898  1.0000
  C   C125      1.0  0.14844  0.80132  0.43050  1.0000
  C   C126      1.0  0.14526  0.82080  0.42498  1.0000
  C   C127      1.0  0.13252  0.82086  0.39755  1.0000
  C   C128      1.0  0.12301  0.80176  0.37601  1.0000
  H   H209      1.0  0.14138  0.76719  0.41368  1.0000
  H   H210      1.0  0.15819  0.80094  0.45139  1.0000
  H   H211      1.0  0.13001  0.83585  0.39290  1.0000
  H   H212      1.0  0.11335  0.80219  0.35505  1.0000
  C   C129      1.0  0.02079  0.62137  0.16679  1.0000
  C   C130      1.0  0.03713  0.64471  0.16437  1.0000
  C   C131      1.0  0.04294  0.65947  0.19188  1.0000
  C   C132      1.0  0.03286  0.65085  0.22235  1.0000
  C   C133      1.0  0.01612  0.62762  0.22456  1.0000
  C   C134      1.0  0.00969  0.61312  0.19679  1.0000
  H   H213      1.0  0.04582  0.65129  0.14127  1.0000
  H   H214      1.0  0.05595  0.67723  0.18983  1.0000
  H   H215      1.0  0.00843  0.62067  0.24803  1.0000
  H   H216      1.0  0.99685  0.59533  0.19884  1.0000
  C   C135      1.0  0.00466  0.65039  0.32762  1.0000
  H   H217      1.0  0.01779  0.66789  0.32053  1.0000
  C   C136      1.0  0.14703  0.79063  0.03416  1.0000
  C   C137      1.0  0.12099  0.76455  0.07499  1.0000
  C   C138      1.0  0.12869  0.79431  0.01562  1.0000
  C   C139      1.0  0.21556  0.94707  0.09642  1.0000
  C   C140      1.0  0.97597  0.62537  0.05580  1.0000
  H   H218      1.0  0.98717  0.68655  0.40511  1.0000
  C   C141      1.0  0.98968  0.72119  0.34160  1.0000
  C   C142      1.0  0.99673  0.70958  0.36376  1.0000
  C   C143      1.0  0.97333  0.52132  0.44111  1.0000
  H   H219      1.0  0.01398  0.71162  0.36240  1.0000
  H   H220      1.0  0.99799  0.68801  0.30389  1.0000
  N   N8        1.0  0.18014  0.88908  0.17080  1.0000
  C   C144      1.0  0.17559  0.88361  0.13485  1.0000
  H   H221      1.0  0.19799  0.86660  0.35024  1.0000
  C   C145      1.0  0.18048  0.91214  0.17723  1.0000
  C   C146      1.0  0.16107  0.87009  0.18979  1.0000
  C   C147      1.0  0.15389  0.88397  0.12140  1.0000
  H   H222      1.0  0.18959  0.84558  0.38296  1.0000
  H   H223      1.0  0.12695  0.78025  0.09055  1.0000
  H   H224      1.0  0.02179  0.78160  0.42596  1.0000
  H   H225      1.0  0.19027  0.89588  0.11982  1.0000
  H   H226      1.0  0.17395  0.86626  0.12892  1.0000
  C   C148      1.0  0.20324  0.89056  0.17791  1.0000
  H   H227      1.0  0.15309  0.73885  0.00088  1.0000
  H   H228      1.0  0.16277  0.91003  0.18028  1.0000
  H   H229      1.0  0.14450  0.87020  0.18509  1.0000
  H   H230      1.0  0.20832  0.89534  0.20367  1.0000
  H   H231      1.0  0.15407  0.90094  0.12483  1.0000
  H   H232      1.0  0.15320  0.88097  0.09460  1.0000
  H   H233      1.0  0.13800  0.87002  0.13194  1.0000
  C   C149      1.0  0.19435  0.92631  0.20680  1.0000
  H   H234      1.0  0.99840  0.64644  0.11122  1.0000
  H   H235      1.0  0.07599  0.72597  0.42089  1.0000
  H   H236      1.0  0.02415  0.73597  0.41783  1.0000
  H   H237      1.0  0.16135  0.79477  0.01663  1.0000
  H   H238      1.0  0.99119  0.53027  0.45009  1.0000
  C   C150      1.0  0.11346  0.74392  0.09865  1.0000
  H   H239      1.0  0.20275  0.84392  0.43642  1.0000
  N   N9        1.0  0.03263  0.56145  0.22067  1.0000
  C   C151      1.0  0.04287  0.58748  0.22202  1.0000
  C   C152      1.0  0.00752  0.55255  0.21346  1.0000
  C   C153      1.0  0.04404  0.55550  0.19249  1.0000
  C   C154      1.0  0.03691  0.55291  0.25276  1.0000
  C   C155      1.0  0.06883  0.60098  0.22839  1.0000
  C   C156      1.0  0.05216  0.78715  0.36289  1.0000
  C   C157      1.0  0.03673  0.52971  0.18627  1.0000
  C   C158      1.0  0.02235  0.52691  0.26061  1.0000
  H   H240      1.0  0.03979  0.59428  0.19867  1.0000
  H   H241      1.0  0.03464  0.59312  0.24159  1.0000
  S   S47       1.0  0.19759  0.92806  0.06599  1.0000
  H   H242      1.0  0.99267  0.54557  0.26351  1.0000
  H   H243      1.0  0.04140  0.56281  0.16927  1.0000
  H   H244      1.0  0.06283  0.56336  0.19593  1.0000
  H   H245      1.0  0.05517  0.55662  0.25427  1.0000
  H   H246      1.0  0.03426  0.56268  0.27349  1.0000
  H   H247      1.0  0.07396  0.59542  0.25102  1.0000
  H   H248      1.0  0.07917  0.60023  0.20722  1.0000
  H   H249      1.0  0.18060  0.87588  0.23604  1.0000
  H   H250      1.0  0.07598  0.81244  0.47422  1.0000
  H   H251      1.0  0.11499  0.79385  0.03213  1.0000
  H   H252      1.0  0.01819  0.51933  0.18207  1.0000
  H   H253      1.0  0.04236  0.52208  0.20611  1.0000
  H   H254      1.0  0.04539  0.52810  0.16358  1.0000
  H   H255      1.0  0.03362  0.51860  0.26409  1.0000
  H   H256      1.0  0.00976  0.51682  0.24188  1.0000
  H   H257      1.0  0.01278  0.52472  0.28399  1.0000
  H   H258      1.0  0.19433  0.77331  0.06465  1.0000
  H   H259      1.0  0.10607  0.72711  0.08570  1.0000
  H   H260      1.0  0.11166  0.74612  0.01641  1.0000
  H   H261      1.0  0.00519  0.63749  0.31029  1.0000
  H   H262      1.0  0.15422  0.80445  0.05308  1.0000
  H   H263      1.0  0.00530  0.56129  0.19148  1.0000
  C   C159      1.0  0.99276  0.55518  0.24128  1.0000
  N   N10       1.0  0.05597  0.76752  0.41621  1.0000
  C   C160      1.0  0.07007  0.75594  0.42704  1.0000
  C   C161      1.0  0.06717  0.79177  0.42982  1.0000
  C   C162      1.0  0.05634  0.76815  0.37921  1.0000
  C   C163      1.0  0.03193  0.75345  0.42907  1.0000
  H   H264      1.0  0.20582  0.97371  0.08602  1.0000
  H   H265      1.0  0.08116  0.78808  0.47701  1.0000
  H   H266      1.0  0.21677  0.90475  0.16347  1.0000
  H   H267      1.0  0.00892  0.49651  0.48247  1.0000
  H   H268      1.0  0.08853  0.76709  0.42156  1.0000
  H   H269      1.0  0.00062  0.75537  0.44148  1.0000
  H   H270      1.0  0.05831  0.80185  0.42220  1.0000
  H   H271      1.0  0.08487  0.80145  0.41963  1.0000
  H   H272      1.0  0.07324  0.77067  0.36946  1.0000
  C   C164      1.0  0.06374  0.73199  0.41196  1.0000
  H   H273      1.0  0.20421  0.87854  0.42431  1.0000
  H   H274      1.0  0.18972  0.79647  0.05042  1.0000
  H   H275      1.0  0.18234  0.77116  0.02517  1.0000
  H   H276      1.0  0.20620  0.86553  0.14425  1.0000
  H   H277      1.0  0.04637  0.71886  0.41932  1.0000
  H   H278      1.0  0.19118  0.94153  0.21026  1.0000
  H   H279      1.0  0.00689  0.75752  0.39825  1.0000
  H   H280      1.0  0.13692  0.81180  0.00455  1.0000
  C   C165      1.0  0.18237  0.77737  0.05036  1.0000
  H   H281      1.0  0.98976  0.67146  0.14707  1.0000
  H   H282      1.0  0.15449  0.74780  0.07237  1.0000
  H   H283      1.0  0.99318  0.60505  0.07258  1.0000
  H   H284      1.0  0.21305  0.93331  0.20226  1.0000
  H   H285      1.0  0.97474  0.54765  0.23293  1.0000
  H   H286      1.0  0.18785  0.92386  0.15583  1.0000
  H   H287      1.0  0.12761  0.74546  0.11463  1.0000
  S   S48       1.0  0.98644  0.51019  0.03639  1.0000
  S   S49       1.0  0.21304  0.89486  0.99699  1.0000
  H   H288      1.0  0.98818  0.56077  0.47066  1.0000
  H   H289      1.0  0.04960  0.78357  0.33628  1.0000
  H   H290      1.0  0.06729  0.80432  0.36552  1.0000
  H   H291      1.0  0.16133  0.77464  0.09158  1.0000
  H   H292      1.0  0.12329  0.73092  0.03755  1.0000
  N   N11       1.0  0.13905  0.76725  0.04974  1.0000
  H   H293      1.0  0.97430  0.60760  0.12209  1.0000
  H   H294      1.0  0.03163  0.74973  0.45564  1.0000
  H   H295      1.0  0.03670  0.78795  0.37211  1.0000
  H   H296      1.0  0.97114  0.50472  0.43033  1.0000
  H   H297      1.0  0.99789  0.57341  0.24765  1.0000
  H   H298      1.0  0.06888  0.75337  0.45399  1.0000
  H   H299      1.0  0.99374  0.70317  0.25118  1.0000
  H   H300      1.0  0.00980  0.64682  0.35184  1.0000
  H   H301      1.0  0.15789  0.85266  0.18105  1.0000
  H   H302      1.0  0.00093  0.67242  0.27010  1.0000
  S   S50       1.0  0.99490  0.53359  0.12882  1.0000
  H   H303      1.0  0.99914  0.53411  0.20660  1.0000
  H   H304      1.0  0.17667  0.86419  0.37959  1.0000
  C   C166      1.0  0.19309  0.86337  0.37643  1.0000
  H   H305      1.0  0.10510  0.76274  0.06319  1.0000
  H   H306      1.0  0.06540  0.73262  0.38498  1.0000
  C   C167      1.0  0.16310  0.87070  0.22732  1.0000
  H   H307      1.0  0.97229  0.64195  0.15679  1.0000
  C   C168      1.0  0.15862  0.76605  0.06720  1.0000
  C   C169      1.0  0.12825  0.74777  0.02543  1.0000
  H   H308      1.0  0.98190  0.64135  0.04097  1.0000
  C   C170      1.0  0.97330  0.48416  0.01323  1.0000
  H   H309      1.0  0.15641  0.88205  0.23842  1.0000
  C   C171      1.0  0.98306  0.64867  0.10528  1.0000
  H   H310      1.0  0.12129  0.78183  0.99523  1.0000
  H   H311      1.0  0.15284  0.85291  0.23690  1.0000
  H   H312      1.0  0.18958  0.91645  0.22988  1.0000
  H   H313      1.0  0.00178  0.61760  0.03317  1.0000
  C   C172      1.0  0.21112  0.88169  0.39882  1.0000
  H   H314      1.0  0.05208  0.78465  0.47968  1.0000
  H   H315      1.0  0.19223  0.85305  0.18287  1.0000
  C   C173      1.0  0.01459  0.76272  0.42289  1.0000
  C   C174      1.0  0.97554  0.65516  0.13786  1.0000
  C   C175      1.0  0.99688  0.62065  0.05816  1.0000
  C   C176      1.0  0.20577  0.86857  0.17089  1.0000
  H   H316      1.0  0.97078  0.53138  0.42132  1.0000
  C   C177      1.0  0.06898  0.79392  0.46738  1.0000
  C   C178      1.0  0.98804  0.67527  0.28466  1.0000
  S   S51       1.0  0.97204  0.55494  0.07732  1.0000
  H   H317      1.0  0.98170  0.66145  0.35012  1.0000
  C   C179      1.0  0.98059  0.64889  0.33081  1.0000
  Fe  Fe25      1.0  0.97420  0.52164  0.08238  1.0000
  C   C180      1.0  0.21600  0.96864  0.10140  1.0000
  C   C181      1.0  0.97897  0.68826  0.26249  1.0000
  Fe  Fe26      1.0  0.18556  0.85772  0.99536  1.0000
  H   H318      1.0  0.21188  0.89853  0.39206  1.0000
  H   H319      1.0  0.98937  0.66404  0.08910  1.0000
  N   N12       1.0  0.97056  0.65297  0.29995  1.0000
  C   C182      1.0  0.99192  0.48289  0.48766  1.0000
  H   H320      1.0  0.01726  0.67678  0.67051  1.0000
  S   S52       1.0  0.99623  0.52556  0.63604  1.0000
  Fe  Fe27      1.0  0.00055  0.56202  0.63754  1.0000
  S   S53       1.0  0.03282  0.59299  0.65607  1.0000
  H   H321      1.0  0.98690  0.69842  0.85693  1.0000
  S   S54       1.0  0.99319  0.50967  0.54083  1.0000
  Fe  Fe28      1.0  0.04142  0.73865  0.80689  1.0000
  S   S55       1.0  0.05326  0.71488  0.82912  1.0000
  S   S56       1.0  0.01320  0.74602  0.82862  1.0000
  Fe  Fe29      1.0  0.07898  0.75353  0.75203  1.0000
  S   S57       1.0  0.09295  0.73035  0.77196  1.0000
  S   S58       1.0  0.08809  0.77319  0.70314  1.0000
  Fe  Fe30      1.0  0.05589  0.70370  0.77741  1.0000
  S   S59       1.0  0.03580  0.66511  0.76498  1.0000
  Fe  Fe31      1.0  0.08892  0.74398  0.82173  1.0000
  S   S60       1.0  0.11356  0.75285  0.86501  1.0000
  S   S61       1.0  0.04211  0.72631  0.75573  1.0000
  S   S62       1.0  0.07697  0.76843  0.80135  1.0000
  H   H322      1.0  0.20688  0.89545  0.63753  1.0000
  S   S63       1.0  0.19933  0.83851  0.51808  1.0000
  S   S64       1.0  0.16182  0.84530  0.95083  1.0000
  H   H323      1.0  0.06641  0.74266  0.88858  1.0000
  H   H324      1.0  0.07110  0.74294  0.93196  1.0000
  Fe  Fe32      1.0  0.18704  0.84455  0.56776  1.0000
  S   S65       1.0  0.17800  0.82059  0.61233  1.0000
  H   H325      1.0  0.98981  0.53306  0.71515  1.0000
  S   S66       1.0  0.16490  0.85925  0.54744  1.0000
  C   C183      1.0  0.11362  0.78699  0.67902  1.0000
  C   C184      1.0  0.11293  0.79760  0.64945  1.0000
  C   C185      1.0  0.13242  0.80807  0.62884  1.0000
  C   C186      1.0  0.15291  0.80801  0.63750  1.0000
  C   C187      1.0  0.15363  0.79752  0.66715  1.0000
  C   C188      1.0  0.13418  0.78717  0.68785  1.0000
  H   H326      1.0  0.09715  0.79761  0.64232  1.0000
  H   H327      1.0  0.13153  0.81603  0.60616  1.0000
  H   H328      1.0  0.16936  0.79735  0.67414  1.0000
  H   H329      1.0  0.13508  0.77918  0.71049  1.0000
  C   C189      1.0  0.12823  0.77923  0.88720  1.0000
  C   C190      1.0  0.14030  0.77954  0.91557  1.0000
  C   C191      1.0  0.15133  0.79976  0.93475  1.0000
  C   C192      1.0  0.15014  0.81988  0.92608  1.0000
  C   C193      1.0  0.13844  0.81969  0.89739  1.0000
  C   C194      1.0  0.12779  0.79962  0.87786  1.0000
  H   H330      1.0  0.14122  0.76405  0.92258  1.0000
  H   H331      1.0  0.16077  0.79985  0.95619  1.0000
  H   H332      1.0  0.13778  0.83528  0.89009  1.0000
  H   H333      1.0  0.11923  0.79994  0.85561  1.0000
  C   C195      1.0  0.03324  0.61438  0.68378  1.0000
  C   C196      1.0  0.01314  0.61348  0.69708  1.0000
  C   C197      1.0  0.01427  0.62974  0.72092  1.0000
  C   C198      1.0  0.03544  0.64732  0.73148  1.0000
  C   C199      1.0  0.05555  0.64841  0.71781  1.0000
  C   C200      1.0  0.05442  0.63210  0.69402  1.0000
  H   H334      1.0  0.99671  0.60000  0.68950  1.0000
  H   H335      1.0  0.99862  0.62846  0.73170  1.0000
  H   H336      1.0  0.07198  0.66118  0.72660  1.0000
  H   H337      1.0  0.07008  0.63278  0.68425  1.0000
  H   H338      1.0  0.09499  0.82102  0.88260  1.0000
  H   H339      1.0  0.01860  0.52308  0.70982  1.0000
  H   H340      1.0  0.01403  0.79439  0.91544  1.0000
  H   H341      1.0  0.02805  0.60164  0.76256  1.0000
  C   C201      1.0  0.06709  0.78544  0.88045  1.0000
  C   C202      1.0  0.05809  0.73969  0.91296  1.0000
  H   H342      1.0  0.03912  0.54662  0.73342  1.0000
  H   H343      1.0  0.04191  0.58979  0.73502  1.0000
  C   C203      1.0  0.98772  0.73175  0.85263  1.0000
  N   N13       1.0  0.00251  0.55111  0.76097  1.0000
  H   H344      1.0  0.02538  0.78631  0.88060  1.0000
  C   C204      1.0  0.19567  0.87939  0.65106  1.0000
  H   H345      1.0  0.03969  0.78697  0.95275  1.0000
  C   C205      1.0  0.97668  0.55484  0.49244  1.0000
  H   H346      1.0  0.01433  0.70011  0.68926  1.0000
  H   H347      1.0  0.09368  0.78485  0.92592  1.0000
  C   C206      1.0  0.04462  0.79096  0.92650  1.0000
  H   H348      1.0  0.98574  0.48533  0.69332  1.0000
  C   C207      1.0  0.99166  0.52849  0.77922  1.0000
  C   C208      1.0  0.02445  0.56761  0.77735  1.0000
  H   H349      1.0  0.18540  0.86707  0.63163  1.0000
  N   N14       1.0  0.05940  0.77999  0.91563  1.0000
  H   H350      1.0  0.11008  0.71021  0.66999  1.0000
  H   H351      1.0  0.04566  0.72106  0.91411  1.0000
  H   H352      1.0  0.03676  0.71037  0.63670  1.0000
  H   H353      1.0  0.02031  0.52727  0.80545  1.0000
  C   C209      1.0  0.21106  0.86965  0.66539  1.0000
  H   H354      1.0  0.15007  0.89938  0.61928  1.0000
  C   C210      1.0  0.03758  0.59137  0.76089  1.0000
  H   H355      1.0  0.02099  0.57064  0.80325  1.0000
  H   H356      1.0  0.15428  0.76543  0.98622  1.0000
  H   H357      1.0  0.07490  0.77582  0.96007  1.0000
  C   C211      1.0  0.98636  0.56174  0.76352  1.0000
  H   H358      1.0  0.98445  0.53064  0.80309  1.0000
  H   H359      1.0  0.16417  0.88240  0.60984  1.0000
  H   H360      1.0  0.03389  0.55141  0.69277  1.0000
  C   C212      1.0  0.04511  0.75412  0.91824  1.0000
  C   C213      1.0  0.07967  0.78718  0.93814  1.0000
  H   H361      1.0  0.03649  0.74933  0.94264  1.0000
  H   H362      1.0  0.06726  0.71122  0.58466  1.0000
  C   C214      1.0  0.15517  0.88675  0.62966  1.0000
  S   S67       1.0  0.19570  0.92623  0.57178  1.0000
  H   H363      1.0  0.98581  0.56777  0.78898  1.0000
  C   C215      1.0  0.08263  0.72671  0.63226  1.0000
  H   H364      1.0  0.07941  0.77879  0.87382  1.0000
  H   H365      1.0  0.03675  0.56049  0.77927  1.0000
  C   C216      1.0  0.02230  0.78368  0.90731  1.0000
  Fe  Fe33      1.0  0.19644  0.89381  0.55098  1.0000
  S   S68       1.0  0.98875  0.55993  0.58580  1.0000
  H   H366      1.0  0.13925  0.87119  0.63657  1.0000
  C   C217      1.0  0.02537  0.54175  0.71537  1.0000
  H   H367      1.0  0.00789  0.56255  0.71039  1.0000
  C   C218      1.0  0.09023  0.81189  0.95247  1.0000
  H   H368      1.0  0.03110  0.74756  0.89992  1.0000
  H   H369      1.0  0.04800  0.68164  0.61851  1.0000
  C   C219      1.0  0.17091  0.89791  0.65912  1.0000
  H   H370      1.0  0.08694  0.67616  0.65204  1.0000
  H   H371      1.0  0.10893  0.71560  0.71254  1.0000
  H   H372      1.0  0.09874  0.72554  0.62783  1.0000
  Fe  Fe34      1.0  0.98084  0.52238  0.58592  1.0000
  C   C220      1.0  0.04557  0.71137  0.66009  1.0000
  H   H373      1.0  0.99626  0.50012  0.79881  1.0000
  H   H374      1.0  0.15304  0.84944  0.66307  1.0000
  H   H375      1.0  0.18516  0.91436  0.64999  1.0000
  H   H376      1.0  0.05242  0.77636  0.86375  1.0000
  H   H377      1.0  0.09410  0.82547  0.93405  1.0000
  C   C221      1.0  0.16134  0.86004  0.68499  1.0000
  H   H378      1.0  0.08797  0.74389  0.64404  1.0000
  H   H379      1.0  0.01486  0.51361  0.76531  1.0000
  C   C222      1.0  0.00567  0.54737  0.72515  1.0000
  H   H380      1.0  0.06705  0.81910  0.87415  1.0000
  C   C223      1.0  0.07769  0.67752  0.63040  1.0000
  C   C224      1.0  0.07846  0.81098  0.87035  1.0000
  H   H381      1.0  0.05408  0.81008  0.92519  1.0000
  H   H382      1.0  0.14855  0.86779  0.73135  1.0000
  H   H383      1.0  0.12907  0.84204  0.71114  1.0000
  H   H384      1.0  0.08236  0.81205  0.84371  1.0000
  H   H385      1.0  0.05054  0.72899  0.67020  1.0000
  H   H386      1.0  0.06961  0.66008  0.61895  1.0000
  H   H387      1.0  0.08980  0.68952  0.61215  1.0000
  N   N15       1.0  0.18024  0.88331  0.67517  1.0000
  H   H388      1.0  0.08773  0.74096  0.58335  1.0000
  H   H389      1.0  0.98323  0.76242  0.85294  1.0000
  H   H390      1.0  0.05399  0.60149  0.77378  1.0000
  H   H391      1.0  0.11289  0.73763  0.68387  1.0000
  H   H392      1.0  0.16145  0.90337  0.67706  1.0000
  C   C225      1.0  0.97645  0.74476  0.86123  1.0000
  H   H393      1.0  0.13326  0.86910  0.69538  1.0000
  H   H394      1.0  0.00980  0.76548  0.91227  1.0000
  H   H395      1.0  0.03381  0.69107  0.70604  1.0000
  H   H396      1.0  0.19948  0.96787  0.60200  1.0000
  C   C226      1.0  0.07761  0.70990  0.68765  1.0000
  C   C227      1.0  0.07348  0.72779  0.59810  1.0000
  H   H397      1.0  0.04765  0.67052  0.65797  1.0000
  H   H398      1.0  0.07464  0.72210  0.70388  1.0000
  C   C228      1.0  0.19303  0.89578  0.70530  1.0000
  H   H399      1.0  0.99935  0.49701  0.97554  1.0000
  H   H400      1.0  0.07891  0.81346  0.97165  1.0000
  C   C229      1.0  0.10381  0.71872  0.68805  1.0000
  C   C230      1.0  0.00704  0.51715  0.78728  1.0000
  C   C231      1.0  0.97800  0.57712  0.50768  1.0000
  H   H401      1.0  0.06961  0.69320  0.70085  1.0000
  C   C232      1.0  0.02689  0.69372  0.68284  1.0000
  C   C233      1.0  0.05880  0.68406  0.64034  1.0000
  N   N16       1.0  0.06652  0.70783  0.65474  1.0000
  H   H402      1.0  0.06003  0.73355  0.59937  1.0000
  H   H403      1.0  0.99239  0.57740  0.74792  1.0000
  H   H404      1.0  0.10669  0.81568  0.96436  1.0000
  C   C234      1.0  0.97845  0.70874  0.86349  1.0000
  H   H405      1.0  0.16834  0.84991  0.69835  1.0000
  C   C235      1.0  0.14217  0.86020  0.70695  1.0000
  H   H406      1.0  0.98489  0.54783  0.50980  1.0000
  S   S69       1.0  0.21777  0.87931  0.57344  1.0000
  C   C236      1.0  0.21631  0.94626  0.59898  1.0000
  H   H407      1.0  0.13135  0.73910  0.97470  1.0000
  H   H408      1.0  0.18153  0.89910  0.72231  1.0000
  H   H409      1.0  0.19851  0.88494  0.72007  1.0000
  H   H410      1.0  0.20843  0.93354  0.69895  1.0000
  C   C237      1.0  0.21383  0.96549  0.61020  1.0000
  S   S70       1.0  0.20780  0.89123  0.49970  1.0000
  C   C238      1.0  0.98008  0.48453  0.51572  1.0000
  H   H411      1.0  0.97694  0.51538  0.76534  1.0000
  H   H412      1.0  0.99591  0.58831  0.51534  1.0000
  C   C239      1.0  0.21379  0.91967  0.69953  1.0000
  Fe  Fe35      1.0  0.17850  0.85504  0.49795  1.0000
  H   H413      1.0  0.20098  0.85295  0.67795  1.0000
  C   C240      1.0  0.98352  0.48261  0.98346  1.0000
  H   H414      1.0  0.97385  0.58717  0.48959  1.0000
  H   H415      1.0  0.97066  0.55291  0.96818  1.0000
  C   C241      1.0  0.22123  0.23751  0.34373  1.0000
  H   H416      1.0  0.23156  0.20646  0.28713  1.0000
  S   S71       1.0  0.26951  0.34095  0.25651  1.0000
  H   H417      1.0  0.35916  0.43888  0.26592  1.0000
  H   H418      1.0  0.32482  0.17111  0.14060  1.0000
  C   C242      1.0  0.24485  0.34085  0.13027  1.0000
  S   S72       1.0  0.32518  0.18979  0.46273  1.0000
  S   S73       1.0  0.28586  0.16658  0.03412  1.0000
  Fe  Fe36      1.0  0.28361  0.21481  0.43979  1.0000
  S   S74       1.0  0.31838  0.22668  0.41683  1.0000
  S   S75       1.0  0.26540  0.23665  0.42952  1.0000
  Fe  Fe37      1.0  0.30931  0.18886  0.41369  1.0000
  S   S76       1.0  0.32045  0.17777  0.36598  1.0000
  C   C243      1.0  0.22722  0.24413  0.99004  1.0000
  H   H419      1.0  0.26382  0.27350  0.39404  1.0000
  S   S77       1.0  0.27360  0.17687  0.43418  1.0000
  H   H420      1.0  0.42578  0.46428  0.28578  1.0000
  Fe  Fe38      1.0  0.28865  0.07628  0.22955  1.0000
  S   S78       1.0  0.32341  0.09559  0.20593  1.0000
  S   S79       1.0  0.27456  0.08895  0.27269  1.0000
  Fe  Fe39      1.0  0.27701  0.03223  0.18790  1.0000
  S   S80       1.0  0.31098  0.04916  0.16207  1.0000
  S   S81       1.0  0.25574  0.99307  0.18250  1.0000
  Fe  Fe40      1.0  0.32591  0.06235  0.21144  1.0000
  S   S82       1.0  0.35845  0.06144  0.22821  1.0000
  Fe  Fe41      1.0  0.30507  0.08057  0.15847  1.0000
  S   S83       1.0  0.31534  0.09890  0.10876  1.0000
  S   S84       1.0  0.29242  0.04406  0.23781  1.0000
  S   S85       1.0  0.26985  0.06274  0.18169  1.0000
  Fe  Fe42      1.0  0.39604  0.37151  0.09864  1.0000
  S   S86       1.0  0.37812  0.38860  0.07280  1.0000
  S   S87       1.0  0.39132  0.33537  0.08546  1.0000
  Fe  Fe43      1.0  0.41840  0.41219  0.14819  1.0000
  S   S88       1.0  0.40169  0.43164  0.12458  1.0000
  S   S89       1.0  0.43924  0.42171  0.19574  1.0000
  Fe  Fe44      1.0  0.36981  0.39723  0.12310  1.0000
  S   S90       1.0  0.33440  0.39395  0.13584  1.0000
  Fe  Fe45      1.0  0.41173  0.42115  0.07646  1.0000
  S   S91       1.0  0.42292  0.44365  0.03028  1.0000
  S   S92       1.0  0.38591  0.37832  0.14892  1.0000
  S   S93       1.0  0.43025  0.40354  0.10013  1.0000
  H   H421      1.0  0.26434  0.17489  0.36189  1.0000
  C   C244      1.0  0.29778  0.99637  0.10558  1.0000
  H   H422      1.0  0.32405  0.99791  0.30760  1.0000
  H   H423      1.0  0.37148  0.18097  0.04038  1.0000
  H   H424      1.0  0.32249  0.41036  0.26648  1.0000
  C   C245      1.0  0.22095  0.35648  0.18178  1.0000
  H   H425      1.0  0.41323  0.37472  0.02377  1.0000
  C   C246      1.0  0.44937  0.45813  0.00839  1.0000
  H   H426      1.0  0.40552  0.41250  0.46519  1.0000
  H   H427      1.0  0.31155  0.25456  0.32516  1.0000
  H   H428      1.0  0.39948  0.44486  0.30510  1.0000
  H   H429      1.0  0.23990  0.27444  0.34818  1.0000
  H   H430      1.0  0.27518  0.99723  0.03539  1.0000
  C   C247      1.0  0.35858  0.04014  0.25494  1.0000
  C   C248      1.0  0.37962  0.04123  0.26404  1.0000
  C   C249      1.0  0.38066  0.02669  0.28863  1.0000
  C   C250      1.0  0.36066  0.01115  0.30478  1.0000
  C   C251      1.0  0.33959  0.00970  0.29509  1.0000
  C   C252      1.0  0.33850  0.02378  0.26990  1.0000
  H   H431      1.0  0.39528  0.05389  0.25272  1.0000
  C   C253      1.0  0.24399  0.30119  0.16759  1.0000
  H   H432      1.0  0.26886  0.34263  0.09207  1.0000
  H   H433      1.0  0.32218  0.02252  0.26287  1.0000
  C   C254      1.0  0.46933  0.45733  0.01803  1.0000
  H   H434      1.0  0.32193  0.99219  0.07329  1.0000
  H   H435      1.0  0.46353  0.43059  0.25632  1.0000
  C   C255      1.0  0.29207  0.14557  0.05283  1.0000
  C   C256      1.0  0.30568  0.13688  0.03750  1.0000
  C   C257      1.0  0.31200  0.12201  0.05469  1.0000
  C   C258      1.0  0.30473  0.11555  0.08725  1.0000
  C   C259      1.0  0.29059  0.12372  0.10220  1.0000
  C   C260      1.0  0.28433  0.13863  0.08508  1.0000
  H   H436      1.0  0.31174  0.14199  0.01273  1.0000
  H   H437      1.0  0.32293  0.11577  0.04289  1.0000
  H   H438      1.0  0.28484  0.11888  0.12717  1.0000
  H   H439      1.0  0.27370  0.14514  0.09712  1.0000
  C   C261      1.0  0.30749  0.15261  0.34092  1.0000
  C   C262      1.0  0.28618  0.13413  0.34843  1.0000
  C   C263      1.0  0.27632  0.11495  0.32710  1.0000
  C   C264      1.0  0.28773  0.11379  0.29829  1.0000
  C   C265      1.0  0.30913  0.13220  0.29092  1.0000
  C   C266      1.0  0.31889  0.15147  0.31207  1.0000
  H   H440      1.0  0.27718  0.13469  0.37048  1.0000
  H   H441      1.0  0.25975  0.10083  0.33307  1.0000
  H   H442      1.0  0.31801  0.13168  0.26874  1.0000
  H   H443      1.0  0.33537  0.16566  0.30596  1.0000
  H   H444      1.0  0.39625  0.45904  0.24823  1.0000
  C   C267      1.0  0.36057  0.27952  0.02507  1.0000
  C   C268      1.0  0.37122  0.29406  0.05201  1.0000
  C   C269      1.0  0.37657  0.31758  0.05166  1.0000
  C   C270      1.0  0.37103  0.32642  0.02401  1.0000
  H   H445      1.0  0.46722  0.00909  0.33622  1.0000
  H   H446      1.0  0.35669  0.26152  0.02559  1.0000
  H   H447      1.0  0.37548  0.28714  0.07327  1.0000
  H   H448      1.0  0.37467  0.34433  0.02356  1.0000
  H   H449      1.0  0.30995  0.22186  0.09021  1.0000
  C   C271      1.0  0.31549  0.37749  0.16779  1.0000
  C   C272      1.0  0.29739  0.38222  0.17701  1.0000
  C   C273      1.0  0.28246  0.37027  0.20303  1.0000
  C   C274      1.0  0.28516  0.35309  0.21987  1.0000
  C   C275      1.0  0.30320  0.34827  0.21053  1.0000
  C   C276      1.0  0.31820  0.36027  0.18451  1.0000
  H   H450      1.0  0.29531  0.39570  0.16455  1.0000
  H   H451      1.0  0.26947  0.37506  0.21099  1.0000
  H   H452      1.0  0.30590  0.33551  0.22396  1.0000
  H   H453      1.0  0.33200  0.35638  0.17765  1.0000
  H   H454      1.0  0.29730  0.20410  0.34309  1.0000
  H   H455      1.0  0.22917  0.99998  0.13047  1.0000
  C   C277      1.0  0.25140  0.25749  0.38322  1.0000
  C   C278      1.0  0.24926  0.23641  0.39507  1.0000
  S   S94       1.0  0.22195  0.30435  0.31771  1.0000
  H   H456      1.0  0.39703  0.02833  0.29622  1.0000
  C   C279      1.0  0.34006  0.09382  0.35827  1.0000
  C   C280      1.0  0.30581  0.99365  0.07088  1.0000
  H   H457      1.0  0.24465  0.35759  0.12620  1.0000
  N   N17       1.0  0.37788  0.42150  0.24542  1.0000
  C   C281      1.0  0.39946  0.44380  0.25087  1.0000
  C   C282      1.0  0.37246  0.42046  0.20953  1.0000
  C   C283      1.0  0.38290  0.40183  0.25415  1.0000
  C   C284      1.0  0.35934  0.42190  0.26717  1.0000
  N   N18       1.0  0.43498  0.39082  0.47648  1.0000
  C   C285      1.0  0.36622  0.37755  0.24166  1.0000
  H   H458      1.0  0.36260  0.43664  0.17081  1.0000
  H   H459      1.0  0.43578  0.36829  0.43779  1.0000
  H   H460      1.0  0.38700  0.42101  0.19458  1.0000
  H   H461      1.0  0.40008  0.40517  0.24437  1.0000
  H   H462      1.0  0.38374  0.40044  0.28117  1.0000
  H   H463      1.0  0.36310  0.42060  0.29329  1.0000
  C   C286      1.0  0.24774  0.22042  0.27722  1.0000
  H   H464      1.0  0.24765  0.30918  0.19220  1.0000
  H   H465      1.0  0.43835  0.40144  0.02772  1.0000
  H   H466      1.0  0.37124  0.36485  0.25202  1.0000
  H   H467      1.0  0.36736  0.37622  0.21475  1.0000
  H   H468      1.0  0.34830  0.37199  0.24919  1.0000
  H   H469      1.0  0.24289  0.19129  0.33377  1.0000
  S   S95       1.0  0.43772  0.98443  0.44261  1.0000
  H   H470      1.0  0.28498  0.17052  0.27314  1.0000
  H   H471      1.0  0.25938  0.31002  0.15176  1.0000
  H   H472      1.0  0.24354  0.17786  0.29613  1.0000
  H   H473      1.0  0.23052  0.28569  0.42253  1.0000
  H   H474      1.0  0.24462  0.23566  0.27403  1.0000
  S   S96       1.0  0.36156  0.99671  0.34095  1.0000
  H   H475      1.0  0.33466  0.12458  0.35371  1.0000
  C   C287      1.0  0.27695  0.27525  0.99967  1.0000
  Fe  Fe46      1.0  0.29021  0.17993  0.48363  1.0000
  C   C288      1.0  0.29213  0.21716  0.33497  1.0000
  H   H476      1.0  0.34117  0.15571  0.14013  1.0000
  N   N19       1.0  0.27514  0.20847  0.30743  1.0000
  H   H477      1.0  0.31188  0.01131  0.11780  1.0000
  Fe  Fe47      1.0  0.33081  0.22659  0.46764  1.0000
  C   C289      1.0  0.36119  0.31210  0.99660  1.0000
  H   H478      1.0  0.31408  0.29248  0.99232  1.0000
  H   H479      1.0  0.43394  0.35213  0.02742  1.0000
  C   C290      1.0  0.44212  0.37344  0.46313  1.0000
  C   C291      1.0  0.45589  0.46888  0.20881  1.0000
  C   C292      1.0  0.44267  0.37077  0.03374  1.0000
  N   N20       1.0  0.35132  0.20156  0.08653  1.0000
  C   C293      1.0  0.34859  0.17852  0.09839  1.0000
  C   C294      1.0  0.35289  0.20136  0.04967  1.0000
  C   C295      1.0  0.33032  0.20382  0.09707  1.0000
  C   C296      1.0  0.37262  0.22005  0.10194  1.0000
  H   H480      1.0  0.30602  0.19015  0.30120  1.0000
  C   C297      1.0  0.37314  0.19835  0.03526  1.0000
  C   C298      1.0  0.32487  0.22112  0.07828  1.0000
  C   C299      1.0  0.38070  0.24513  0.09070  1.0000
  H   H481      1.0  0.33526  0.16427  0.08418  1.0000
  H   H482      1.0  0.36453  0.17684  0.09433  1.0000
  H   H483      1.0  0.35390  0.21725  0.03862  1.0000
  H   H484      1.0  0.33691  0.18724  0.03949  1.0000
  H   H485      1.0  0.31470  0.18692  0.09453  1.0000
  H   H486      1.0  0.33121  0.20846  0.12347  1.0000
  H   H487      1.0  0.37026  0.22033  0.12889  1.0000
  H   H488      1.0  0.38735  0.21611  0.09934  1.0000
  H   H489      1.0  0.33083  0.39621  0.23666  1.0000
  H   H490      1.0  0.32997  0.38839  0.27898  1.0000
  C   C300      1.0  0.23769  0.25807  0.35742  1.0000
  H   H491      1.0  0.23199  0.31363  0.41984  1.0000
  H   H492      1.0  0.45012  0.42871  0.40971  1.0000
  H   H493      1.0  0.37312  0.19987  0.00820  1.0000
  C   C301      1.0  0.30061  0.29622  0.00304  1.0000
  H   H494      1.0  0.31964  0.21532  0.05275  1.0000
  C   C302      1.0  0.25786  0.16867  0.33696  1.0000
  H   H495      1.0  0.37292  0.25379  0.10622  1.0000
  H   H496      1.0  0.37746  0.24684  0.06470  1.0000
  H   H497      1.0  0.39960  0.25487  0.09304  1.0000
  H   H498      1.0  0.24110  0.28315  0.17074  1.0000
  C   C303      1.0  0.35576  0.28854  0.99701  1.0000
  H   H499      1.0  0.37594  0.09530  0.32493  1.0000
  H   H500      1.0  0.36162  0.07029  0.30072  1.0000
  H   H501      1.0  0.31100  0.19444  0.25909  1.0000
  H   H502      1.0  0.26944  0.16320  0.32422  1.0000
  C   C304      1.0  0.32464  0.10598  0.35973  1.0000
  H   H503      1.0  0.35166  0.12327  0.26907  1.0000
  H   H504      1.0  0.35783  0.40393  0.20251  1.0000
  C   C305      1.0  0.25005  0.33364  0.09646  1.0000
  H   H505      1.0  0.30928  0.09823  0.34437  1.0000
  H   H506      1.0  0.28297  0.00014  0.10503  1.0000
  H   H507      1.0  0.27173  0.19628  0.25743  1.0000
  H   H508      1.0  0.32074  0.04683  0.35186  1.0000
  C   C306      1.0  0.43155  0.38392  0.01642  1.0000
  C   C307      1.0  0.34206  0.17282  0.13481  1.0000
  H   H509      1.0  0.24530  0.31508  0.09461  1.0000
  H   H510      1.0  0.35786  0.10782  0.36154  1.0000
  H   H511      1.0  0.35209  0.43958  0.21006  1.0000
  H   H512      1.0  0.26005  0.34566  0.14603  1.0000
  H   H513      1.0  0.35367  0.04503  0.34834  1.0000
  H   H514      1.0  0.24152  0.33842  0.07681  1.0000
  H   H515      1.0  0.32351  0.23722  0.30562  1.0000
  C   C308      1.0  0.31452  0.23922  0.32757  1.0000
  H   H516      1.0  0.27817  0.26040  0.01122  1.0000
  H   H517      1.0  0.43943  0.33919  0.47009  1.0000
  C   C309      1.0  0.45445  0.44773  0.21860  1.0000
  H   H518      1.0  0.26515  0.27901  0.01546  1.0000
  C   C310      1.0  0.41114  0.44665  0.28431  1.0000
  H   H519      1.0  0.38984  0.21193  0.04393  1.0000
  H   H520      1.0  0.33618  0.08271  0.38034  1.0000
  H   H521      1.0  0.41252  0.44594  0.23190  1.0000
  H   H522      1.0  0.31975  0.04558  0.30841  1.0000
  H   H523      1.0  0.38278  0.06608  0.34848  1.0000
  H   H524      1.0  0.33489  0.08004  0.27532  1.0000
  C   C311      1.0  0.29720  0.18888  0.27795  1.0000
  C   C312      1.0  0.28524  0.20441  0.27617  1.0000
  H   H525      1.0  0.25139  0.21559  0.25262  1.0000
  C   C313      1.0  0.36503  0.06381  0.35129  1.0000
  C   C314      1.0  0.43354  0.35074  0.48257  1.0000
  N   N21       1.0  0.33881  0.08006  0.32778  1.0000
  H   H526      1.0  0.35492  0.18550  0.15147  1.0000
  H   H527      1.0  0.32080  0.09334  0.29659  1.0000
  C   C315      1.0  0.46450  0.44682  0.24844  1.0000
  C   C316      1.0  0.31926  0.05595  0.32989  1.0000
  C   C317      1.0  0.44706  0.41282  0.45712  1.0000
  H   H528      1.0  0.36327  0.06945  0.37634  1.0000
  C   C318      1.0  0.36074  0.07799  0.32468  1.0000
  H   H529      1.0  0.40340  0.37348  0.44914  1.0000
  H   H530      1.0  0.42230  0.40551  0.41694  1.0000
  H   H531      1.0  0.31847  0.10555  0.38525  1.0000
  H   H532      1.0  0.31099  0.01052  0.05860  1.0000
  H   H533      1.0  0.44621  0.39983  0.40683  1.0000
  H   H534      1.0  0.37191  0.11368  0.28039  1.0000
  H   H535      1.0  0.33903  0.23885  0.07830  1.0000
  C   C319      1.0  0.33453  0.40301  0.26182  1.0000
  H   H536      1.0  0.36118  0.12707  0.31053  1.0000
  C   C320      1.0  0.30837  0.99311  0.99605  1.0000
  C   C321      1.0  0.35663  0.11523  0.28924  1.0000
  H   H537      1.0  0.28245  0.03501  0.33090  1.0000
  H   H538      1.0  0.29085  0.06174  0.31102  1.0000
  C   C322      1.0  0.25410  0.18686  0.31775  1.0000
  H   H539      1.0  0.28234  0.24271  0.29045  1.0000
  H   H540      1.0  0.41460  0.34123  0.48387  1.0000
  H   H541      1.0  0.30470  0.29983  0.02942  1.0000
  H   H542      1.0  0.44831  0.46996  0.18598  1.0000
  C   C323      1.0  0.22933  0.98362  0.12646  1.0000
  H   H543      1.0  0.44031  0.37159  0.06056  1.0000
  H   H544      1.0  0.39424  0.39232  0.00347  1.0000
  C   C324      1.0  0.22225  0.33341  0.18073  1.0000
  H   H545      1.0  0.32637  0.24280  0.34838  1.0000
  H   H546      1.0  0.29744  0.22097  0.26454  1.0000
  H   H547      1.0  0.46134  0.37835  0.02926  1.0000
  H   H548      1.0  0.28411  0.22061  0.35719  1.0000
  H   H549      1.0  0.26311  0.23277  0.32414  1.0000
  H   H550      1.0  0.29179  0.06027  0.35546  1.0000
  H   H551      1.0  0.23663  0.37096  0.17167  1.0000
  C   C325      1.0  0.36705  0.43968  0.19712  1.0000
  H   H552      1.0  0.41847  0.43445  0.28707  1.0000
  C   C326      1.0  0.33659  0.09131  0.29685  1.0000
  C   C327      1.0  0.29491  0.05363  0.33189  1.0000
  C   C328      1.0  0.26793  0.22698  0.30089  1.0000
  Fe  Fe48      1.0  0.23111  0.31885  0.26673  1.0000
  H   H553      1.0  0.32218  0.00888  0.00705  1.0000
  H   H554      1.0  0.45783  0.98464  0.28612  1.0000
  H   H555      1.0  0.42879  0.47100  0.47788  1.0000
  H   H556      1.0  0.30130  0.31204  0.99219  1.0000
  H   H557      1.0  0.46594  0.41936  0.45766  1.0000
  S   S97       1.0  0.41900  0.98491  0.35008  1.0000
  C   C329      1.0  0.44078  0.41122  0.42065  1.0000
  H   H558      1.0  0.38204  0.45698  0.19866  1.0000
  H   H559      1.0  0.23063  0.19948  0.39083  1.0000
  C   C330      1.0  0.40933  0.38083  0.47392  1.0000
  H   H560      1.0  0.46110  0.38111  0.46114  1.0000
  C   C331      1.0  0.23289  0.21583  0.38127  1.0000
  H   H561      1.0  0.23734  0.33617  0.19544  1.0000
  H   H562      1.0  0.44415  0.42684  0.46830  1.0000
  H   H563      1.0  0.24120  0.15299  0.34015  1.0000
  C   C332      1.0  0.46355  0.47960  0.46359  1.0000
  C   C333      1.0  0.39922  0.39751  0.48191  1.0000
  C   C334      1.0  0.22197  0.29534  0.41211  1.0000
  H   H564      1.0  0.23217  0.24606  0.01614  1.0000
  H   H565      1.0  0.38033  0.38812  0.47930  1.0000
  H   H566      1.0  0.40367  0.99256  0.01107  1.0000
  C   C335      1.0  0.22250  0.30078  0.15202  1.0000
  H   H567      1.0  0.22313  0.29527  0.38518  1.0000
  N   N22       1.0  0.22315  0.32401  0.14714  1.0000
  C   C336      1.0  0.44427  0.47026  0.48472  1.0000
  H   H568      1.0  0.46920  0.44831  0.04018  1.0000
  S   S98       1.0  0.36502  0.25342  0.48799  1.0000
  Fe  Fe49      1.0  0.23286  0.33651  0.76445  1.0000
  H   H569      1.0  0.27755  0.23314  0.86595  1.0000
  S   S99       1.0  0.26283  0.36937  0.74484  1.0000
  S   S100      1.0  0.24153  0.27054  0.80181  1.0000
  H   H570      1.0  0.38441  0.36157  0.72145  1.0000
  H   H571      1.0  0.46650  0.41684  0.98509  1.0000
  S   S101      1.0  0.33094  0.20224  0.96194  1.0000
  S   S102      1.0  0.27439  0.15521  0.52680  1.0000
  Fe  Fe50      1.0  0.27482  0.20107  0.92949  1.0000
  S   S103      1.0  0.30875  0.22030  0.90466  1.0000
  S   S104      1.0  0.24261  0.20219  0.91176  1.0000
  Fe  Fe51      1.0  0.31304  0.18842  0.91351  1.0000
  S   S105      1.0  0.32765  0.17568  0.87121  1.0000
  Fe  Fe52      1.0  0.32307  0.23225  0.95513  1.0000
  C   C337      1.0  0.26927  0.34981  0.61941  1.0000
  S   S106      1.0  0.27796  0.16828  0.93577  1.0000
  N   N23       1.0  0.26966  0.03711  0.55962  1.0000
  Fe  Fe53      1.0  0.29158  0.07657  0.73227  1.0000
  S   S107      1.0  0.32591  0.09903  0.70957  1.0000
  S   S108      1.0  0.27749  0.08817  0.77660  1.0000
  Fe  Fe54      1.0  0.28357  0.03494  0.68718  1.0000
  S   S109      1.0  0.31777  0.05535  0.66295  1.0000
  S   S110      1.0  0.26703  0.99645  0.67400  1.0000
  Fe  Fe55      1.0  0.33149  0.06747  0.71305  1.0000
  S   S111      1.0  0.36579  0.07065  0.72933  1.0000
  Fe  Fe56      1.0  0.30864  0.08466  0.66133  1.0000
  S   S112      1.0  0.31847  0.10446  0.61278  1.0000
  S   S113      1.0  0.29805  0.04564  0.73786  1.0000
  S   S114      1.0  0.27354  0.06372  0.68358  1.0000
  Fe  Fe57      1.0  0.40805  0.37478  0.59531  1.0000
  S   S115      1.0  0.38361  0.38644  0.57543  1.0000
  S   S116      1.0  0.41421  0.34568  0.57363  1.0000
  Fe  Fe58      1.0  0.42424  0.41256  0.65005  1.0000
  S   S117      1.0  0.40022  0.42620  0.63325  1.0000
  S   S118      1.0  0.44644  0.42314  0.69624  1.0000
  Fe  Fe59      1.0  0.37402  0.38875  0.62811  1.0000
  S   S119      1.0  0.33668  0.36704  0.64424  1.0000
  Fe  Fe60      1.0  0.41227  0.42255  0.58213  1.0000
  S   S120      1.0  0.42013  0.44842  0.54035  1.0000
  S   S121      1.0  0.39744  0.37529  0.64744  1.0000
  S   S122      1.0  0.43746  0.41079  0.59938  1.0000
  C   C338      1.0  0.23602  0.43769  0.83810  1.0000
  S   S123      1.0  0.38214  0.01945  0.84972  1.0000
  C   C339      1.0  0.45555  0.46803  0.71412  1.0000
  C   C340      1.0  0.25508  0.38983  0.82767  1.0000
  H   H572      1.0  0.28193  0.16787  0.74823  1.0000
  H   H573      1.0  0.37493  0.09516  0.84192  1.0000
  H   H574      1.0  0.32988  0.16706  0.60684  1.0000
  C   C341      1.0  0.44482  0.45983  0.51451  1.0000
  C   C342      1.0  0.26091  0.17081  0.84583  1.0000
  H   H575      1.0  0.34860  0.40909  0.74014  1.0000
  C   C343      1.0  0.26154  0.28704  0.95281  1.0000
  S   S124      1.0  0.23249  0.32400  0.81549  1.0000
  H   H576      1.0  0.33142  0.36745  0.74707  1.0000
  C   C344      1.0  0.36994  0.05408  0.76022  1.0000
  C   C345      1.0  0.39191  0.06213  0.77327  1.0000
  C   C346      1.0  0.39594  0.05054  0.79925  1.0000
  C   C347      1.0  0.37822  0.03029  0.81201  1.0000
  C   C348      1.0  0.35623  0.02196  0.79862  1.0000
  C   C349      1.0  0.35210  0.03375  0.77272  1.0000
  H   H577      1.0  0.40574  0.07796  0.76405  1.0000
  H   H578      1.0  0.41263  0.05791  0.81043  1.0000
  H   H579      1.0  0.34219  0.00682  0.80909  1.0000
  H   H580      1.0  0.33506  0.02736  0.76289  1.0000
  H   H581      1.0  0.39409  0.39850  0.70734  1.0000
  H   H582      1.0  0.43410  0.03593  0.70820  1.0000
  H   H583      1.0  0.28382  0.34604  0.61383  1.0000
  C   C350      1.0  0.28681  0.14100  0.55021  1.0000
  C   C351      1.0  0.30753  0.14128  0.54116  1.0000
  C   C352      1.0  0.31686  0.12996  0.56061  1.0000
  C   C353      1.0  0.30577  0.11842  0.58950  1.0000
  C   C354      1.0  0.28504  0.11808  0.59854  1.0000
  C   C355      1.0  0.27559  0.12923  0.57891  1.0000
  H   H584      1.0  0.31631  0.15013  0.51909  1.0000
  H   H585      1.0  0.33285  0.13023  0.55328  1.0000
  H   H586      1.0  0.27626  0.10922  0.62060  1.0000
  H   H587      1.0  0.25954  0.12886  0.58611  1.0000
  C   C356      1.0  0.31379  0.15066  0.84612  1.0000
  C   C357      1.0  0.29251  0.13237  0.85442  1.0000
  C   C358      1.0  0.28180  0.11330  0.83307  1.0000
  C   C359      1.0  0.29228  0.11210  0.80333  1.0000
  C   C360      1.0  0.31378  0.13016  0.79539  1.0000
  C   C361      1.0  0.32442  0.14927  0.81665  1.0000
  H   H588      1.0  0.28427  0.13297  0.87722  1.0000
  H   H589      1.0  0.26522  0.09940  0.83958  1.0000
  H   H590      1.0  0.32208  0.12958  0.77263  1.0000
  H   H591      1.0  0.34093  0.16323  0.81001  1.0000
  H   H592      1.0  0.32614  0.08232  0.88556  1.0000
  C   C362      1.0  0.36452  0.29142  0.52163  1.0000
  C   C363      1.0  0.37546  0.31192  0.54077  1.0000
  C   C364      1.0  0.39842  0.32013  0.55021  1.0000
  C   C365      1.0  0.41012  0.30779  0.54032  1.0000
  H   H593      1.0  0.36335  0.06742  0.82493  1.0000
  N   N24       1.0  0.26084  0.17185  0.80902  1.0000
  H   H594      1.0  0.36616  0.32122  0.54830  1.0000
  H   H595      1.0  0.42776  0.31382  0.54737  1.0000
  H   H596      1.0  0.27492  0.36237  0.63992  1.0000
  C   C366      1.0  0.31815  0.36859  0.67503  1.0000
  C   C367      1.0  0.30059  0.34785  0.68726  1.0000
  C   C368      1.0  0.28404  0.34789  0.70940  1.0000
  C   C369      1.0  0.28453  0.36872  0.71912  1.0000
  C   C370      1.0  0.30228  0.38954  0.70730  1.0000
  C   C371      1.0  0.31910  0.38951  0.68546  1.0000
  H   H597      1.0  0.29964  0.33157  0.67923  1.0000
  H   H598      1.0  0.27066  0.33173  0.71847  1.0000
  H   H599      1.0  0.30277  0.40576  0.71450  1.0000
  H   H600      1.0  0.33224  0.40558  0.67573  1.0000
  C   C372      1.0  0.24149  0.25219  0.83360  1.0000
  C   C373      1.0  0.30401  0.20070  0.80530  1.0000
  H   H601      1.0  0.25304  0.31947  0.64942  1.0000
  C   C374      1.0  0.24262  0.22156  0.88151  1.0000
  C   C375      1.0  0.26207  0.23471  0.86248  1.0000
  H   H602      1.0  0.44046  0.35361  0.50769  1.0000
  H   H603      1.0  0.23742  0.01701  0.58506  1.0000
  H   H604      1.0  0.32119  0.38042  0.77686  1.0000
  H   H605      1.0  0.27131  0.13741  0.75155  1.0000
  C   C376      1.0  0.39949  0.28787  0.52104  1.0000
  C   C377      1.0  0.26453  0.42363  0.77254  1.0000
  C   C378      1.0  0.30570  0.06806  0.53004  1.0000
  H   H606      1.0  0.24840  0.13568  0.86531  1.0000
  H   H607      1.0  0.40842  0.99391  0.78106  1.0000
  N   N25       1.0  0.22639  0.32882  0.63660  1.0000
  N   N26       1.0  0.41141  0.00255  0.72969  1.0000
  H   H608      1.0  0.40128  0.45879  0.71154  1.0000
  H   H609      1.0  0.23340  0.98860  0.54889  1.0000
  H   H610      1.0  0.26039  0.18610  0.85728  1.0000
  H   H611      1.0  0.31762  0.04584  0.86204  1.0000
  H   H612      1.0  0.26649  0.43299  0.84060  1.0000
  H   H613      1.0  0.31180  0.08523  0.51832  1.0000
  C   C379      1.0  0.30250  0.02884  0.58079  1.0000
  H   H614      1.0  0.29387  0.05709  0.80548  1.0000
  H   H615      1.0  0.36773  0.11941  0.86827  1.0000
  C   C380      1.0  0.36080  0.10872  0.79211  1.0000
  C   C381      1.0  0.24661  0.05232  0.59553  1.0000
  H   H616      1.0  0.29482  0.25913  0.95777  1.0000
  H   H617      1.0  0.28789  0.05729  0.84870  1.0000
  H   H618      1.0  0.30920  0.18875  0.79252  1.0000
  N   N27       1.0  0.37874  0.40492  0.75065  1.0000
  C   C382      1.0  0.39469  0.43009  0.74403  1.0000
  C   C383      1.0  0.38847  0.39782  0.77909  1.0000
  C   C384      1.0  0.35574  0.40309  0.76028  1.0000
  H   H619      1.0  0.31178  0.30251  0.93975  1.0000
  H   H620      1.0  0.36704  0.01550  0.70821  1.0000
  C   C385      1.0  0.41291  0.40064  0.77386  1.0000
  H   H621      1.0  0.28124  0.02052  0.52227  1.0000
  H   H622      1.0  0.35755  0.31927  0.97502  1.0000
  H   H623      1.0  0.28367  0.07435  0.56188  1.0000
  C   C386      1.0  0.42369  0.36237  0.96365  1.0000
  H   H624      1.0  0.37762  0.37966  0.78629  1.0000
  H   H625      1.0  0.38886  0.40801  0.80133  1.0000
  H   H626      1.0  0.35757  0.41460  0.78156  1.0000
  C   C387      1.0  0.26549  0.15281  0.79561  1.0000
  H   H627      1.0  0.42755  0.33096  0.96340  1.0000
  H   H628      1.0  0.27670  0.30421  0.95045  1.0000
  C   C388      1.0  0.36946  0.36511  0.72385  1.0000
  C   C389      1.0  0.46671  0.40376  0.52010  1.0000
  H   H629      1.0  0.35805  0.35564  0.70325  1.0000
  C   C390      1.0  0.39646  0.38918  0.97728  1.0000
  H   H630      1.0  0.24224  0.34296  0.68297  1.0000
  H   H631      1.0  0.25552  0.02094  0.51321  1.0000
  C   C391      1.0  0.37669  0.27941  0.51151  1.0000
  Fe  Fe61      1.0  0.39602  0.99348  0.85723  1.0000
  H   H632      1.0  0.24539  0.31516  0.60746  1.0000
  H   H633      1.0  0.35990  0.35708  0.74645  1.0000
  C   C392      1.0  0.24878  0.28116  0.91990  1.0000
  C   C393      1.0  0.22213  0.23932  0.85297  1.0000
  N   N28       1.0  0.34986  0.21328  0.58132  1.0000
  C   C394      1.0  0.36347  0.20204  0.56663  1.0000
  C   C395      1.0  0.36366  0.23915  0.58252  1.0000
  C   C396      1.0  0.37478  0.21124  0.53300  1.0000
  C   C397      1.0  0.38667  0.24850  0.60049  1.0000
  H   H634      1.0  0.37721  0.20339  0.58344  1.0000
  H   H635      1.0  0.35810  0.20560  0.62938  1.0000
  H   H636      1.0  0.36719  0.24647  0.55751  1.0000
  H   H637      1.0  0.35370  0.24710  0.59456  1.0000
  H   H638      1.0  0.38451  0.20186  0.52528  1.0000
  H   H639      1.0  0.36196  0.20807  0.51379  1.0000
  H   H640      1.0  0.26655  0.35787  0.59725  1.0000
  H   H641      1.0  0.38426  0.24373  0.62672  1.0000
  H   H642      1.0  0.39519  0.26767  0.59928  1.0000
  H   H643      1.0  0.39853  0.24279  0.58884  1.0000
  C   C398      1.0  0.32930  0.20748  0.56027  1.0000
  H   H644      1.0  0.31799  0.07047  0.54984  1.0000
  H   H645      1.0  0.40167  0.02952  0.73976  1.0000
  H   H646      1.0  0.35084  0.04922  0.87872  1.0000
  S   S125      1.0  0.43240  0.99900  0.85145  1.0000
  C   C399      1.0  0.34304  0.20438  0.61575  1.0000
  H   H647      1.0  0.35240  0.18318  0.56329  1.0000
  H   H648      1.0  0.27740  0.17202  0.85453  1.0000
  H   H649      1.0  0.33719  0.21527  0.63016  1.0000
  H   H650      1.0  0.33473  0.21488  0.53539  1.0000
  H   H651      1.0  0.35796  0.11489  0.76820  1.0000
  H   H652      1.0  0.34795  0.12926  0.85341  1.0000
  H   H653      1.0  0.28305  0.03113  0.82847  1.0000
  C   C400      1.0  0.32446  0.17910  0.61875  1.0000
  H   H654      1.0  0.31961  0.18864  0.55544  1.0000
  H   H655      1.0  0.32144  0.17428  0.64500  1.0000
  H   H656      1.0  0.35748  0.07688  0.89793  1.0000
  H   H657      1.0  0.34755  0.12102  0.89528  1.0000
  C   C401      1.0  0.31248  0.21645  0.57251  1.0000
  H   H658      1.0  0.31714  0.23374  0.56207  1.0000
  H   H659      1.0  0.31154  0.21758  0.59940  1.0000
  H   H660      1.0  0.30784  0.17643  0.60866  1.0000
  C   C402      1.0  0.36166  0.06818  0.87743  1.0000
  H   H661      1.0  0.37485  0.10399  0.78800  1.0000
  H   H662      1.0  0.44553  0.46788  0.69327  1.0000
  H   H663      1.0  0.29487  0.20420  0.56477  1.0000
  C   C403      1.0  0.34991  0.11671  0.86961  1.0000
  H   H664      1.0  0.46907  0.40704  0.54682  1.0000
  N   N29       1.0  0.26778  0.26906  0.96543  1.0000
  C   C404      1.0  0.36000  0.07787  0.84386  1.0000
  H   H665      1.0  0.37953  0.07111  0.88086  1.0000
  C   C405      1.0  0.33173  0.09184  0.86199  1.0000
  H   H666      1.0  0.30901  0.03156  0.55539  1.0000
  H   H667      1.0  0.44620  0.35192  0.93551  1.0000
  C   C406      1.0  0.33666  0.37889  0.76886  1.0000
  H   H668      1.0  0.27786  0.19788  0.77165  1.0000
  C   C407      1.0  0.24680  0.24585  0.96720  1.0000
  H   H669      1.0  0.43764  0.41028  0.52081  1.0000
  N   N30       1.0  0.33775  0.07835  0.83686  1.0000
  H   H670      1.0  0.31557  0.21831  0.79622  1.0000
  H   H671      1.0  0.43464  0.47067  0.97164  1.0000
  H   H672      1.0  0.25861  0.99054  0.56886  1.0000
  H   H673      1.0  0.23918  0.24016  0.94266  1.0000
  H   H674      1.0  0.38715  0.22984  0.53357  1.0000
  H   H675      1.0  0.42585  0.41906  0.77486  1.0000
  C   C408      1.0  0.24085  0.40602  0.78567  1.0000
  H   H676      1.0  0.24259  0.36398  0.65518  1.0000
  H   H677      1.0  0.31638  0.09347  0.85417  1.0000
  C   C409      1.0  0.31911  0.05366  0.83752  1.0000
  C   C410      1.0  0.33850  0.08760  0.80284  1.0000
  H   H678      1.0  0.32327  0.04280  0.82014  1.0000
  H   H679      1.0  0.25142  0.14862  0.74585  1.0000
  H   H680      1.0  0.27097  0.44051  0.78523  1.0000
  C   C411      1.0  0.43546  0.02859  0.77721  1.0000
  H   H681      1.0  0.36632  0.12336  0.80932  1.0000
  H   H682      1.0  0.33573  0.07405  0.78414  1.0000
  H   H683      1.0  0.25354  0.27009  0.90420  1.0000
  H   H684      1.0  0.34117  0.37074  0.78927  1.0000
  C   C412      1.0  0.42203  0.39914  0.96791  1.0000
  H   H685      1.0  0.22994  0.27218  0.92384  1.0000
  H   H686      1.0  0.32437  0.09223  0.79945  1.0000
  H   H687      1.0  0.22082  0.25657  0.98350  1.0000
  H   H688      1.0  0.23722  0.15308  0.88589  1.0000
  H   H689      1.0  0.30728  0.20082  0.83183  1.0000
  H   H690      1.0  0.38164  0.00220  0.75399  1.0000
  H   H691      1.0  0.27641  0.25954  0.82349  1.0000
  C   C413      1.0  0.37914  0.00834  0.70262  1.0000
  H   H692      1.0  0.37326  0.44627  0.72920  1.0000
  H   H693      1.0  0.23949  0.17307  0.76989  1.0000
  H   H694      1.0  0.46155  0.02157  0.72628  1.0000
  H   H695      1.0  0.31511  0.28280  0.91245  1.0000
  C   C414      1.0  0.29476  0.04995  0.82953  1.0000
  H   H696      1.0  0.23531  0.38982  0.77113  1.0000
  H   H697      1.0  0.27154  0.02257  0.60627  1.0000
  H   H698      1.0  0.40253  0.40370  0.50751  1.0000
  H   H699      1.0  0.42276  0.40044  0.94076  1.0000
  H   H700      1.0  0.43327  0.99570  0.76219  1.0000
  H   H701      1.0  0.40763  0.35057  0.97673  1.0000
  C   C415      1.0  0.24653  0.03369  0.57187  1.0000
  H   H702      1.0  0.29715  0.01069  0.58814  1.0000
  H   H703      1.0  0.27632  0.20917  0.81048  1.0000
  C   C416      1.0  0.42187  0.00404  0.76271  1.0000
  H   H704      1.0  0.28139  0.15382  0.80599  1.0000
  C   C417      1.0  0.27902  0.19527  0.79830  1.0000
  H   H705      1.0  0.43062  0.41724  0.97694  1.0000
  H   H706      1.0  0.38014  0.43178  0.69610  1.0000
  C   C418      1.0  0.30225  0.28717  0.92424  1.0000
  H   H707      1.0  0.30623  0.05616  0.51097  1.0000
  H   H708      1.0  0.36538  0.39311  0.70213  1.0000
  C   C419      1.0  0.24803  0.32702  0.62849  1.0000
  H   H709      1.0  0.23130  0.35517  0.60113  1.0000
  Fe  Fe62      1.0  0.29535  0.18351  0.98365  1.0000
  H   H710      1.0  0.29386  0.29173  0.90421  1.0000
  S   S126      1.0  0.34389  0.27151  0.96138  1.0000
  H   H711      1.0  0.43070  0.38123  0.52768  1.0000
  H   H712      1.0  0.40186  0.98320  0.50268  1.0000
  C   C420      1.0  0.39357  0.01090  0.73322  1.0000
  C   C421      1.0  0.37710  0.39126  0.71991  1.0000
  C   C422      1.0  0.28493  0.26592  0.94354  1.0000
  H   H713      1.0  0.27332  0.40232  0.82323  1.0000
  C   C423      1.0  0.26760  0.15197  0.75810  1.0000
  C   C424      1.0  0.26140  0.24974  0.83848  1.0000
  H   H714      1.0  0.27626  0.25237  0.92472  1.0000
  H   H715      1.0  0.42200  0.01331  0.67967  1.0000
  H   H716      1.0  0.22066  0.43212  0.85418  1.0000
  H   H717      1.0  0.38879  0.39840  0.96330  1.0000
  H   H718      1.0  0.22725  0.99596  0.64118  1.0000
  H   H719      1.0  0.36865  0.99004  0.69551  1.0000
  H   H720      1.0  0.27731  0.41701  0.77375  1.0000
  H   H721      1.0  0.25347  0.29717  0.90566  1.0000
  H   H722      1.0  0.42706  0.03011  0.80019  1.0000
  H   H723      1.0  0.43716  0.04276  0.76099  1.0000
  H   H724      1.0  0.38988  0.01828  0.68164  1.0000
  H   H725      1.0  0.29091  0.05222  0.60196  1.0000
  C   C425      1.0  0.28315  0.03556  0.58832  1.0000
  C   C426      1.0  0.22265  0.22390  0.87657  1.0000
  C   C427      1.0  0.38658  0.44212  0.71870  1.0000
  C   C428      1.0  0.45887  0.44874  0.72057  1.0000
  H   H726      1.0  0.38667  0.37054  0.97152  1.0000
  H   H727      1.0  0.46234  0.02513  0.68308  1.0000
  C   C429      1.0  0.46656  0.98595  0.49187  1.0000
  H   H728      1.0  0.41701  0.39178  0.79388  1.0000
  C   C430      1.0  0.25399  0.37997  0.86227  1.0000
  C   C431      1.0  0.22803  0.18318  0.81343  1.0000
  S   S127      1.0  0.45283  0.99581  0.94178  1.0000
  H   H729      1.0  0.45299  0.03163  0.78369  1.0000
  C   C432      1.0  0.26529  0.01884  0.53390  1.0000
  C   C433      1.0  0.24763  0.42207  0.84280  1.0000
  C   C434      1.0  0.25189  0.99366  0.54575  1.0000
  H   H730      1.0  0.34685  0.28504  0.51459  1.0000
  C   C435      1.0  0.23190  0.34608  0.66414  1.0000
  H   H731      1.0  0.31571  0.98918  0.97364  1.0000
  C   C436      1.0  0.42915  0.01730  0.70478  1.0000
  H   H732      1.0  0.23529  0.03262  0.55103  1.0000
  C   C437      1.0  0.28149  0.06063  0.54396  1.0000
  H   H733      1.0  0.27084  0.06203  0.52395  1.0000
  H   H734      1.0  0.24829  0.45572  0.84470  1.0000
  H   H735      1.0  0.23679  0.36581  0.86834  1.0000
  H   H736      1.0  0.24509  0.41727  0.86912  1.0000
  H   H737      1.0  0.31751  0.03948  0.59618  1.0000
  H   H738      1.0  0.26296  0.42672  0.74622  1.0000
  H   H739      1.0  0.25953  0.05677  0.61494  1.0000
  C   C438      1.0  0.23811  0.16865  0.79634  1.0000
  N   N31       1.0  0.43429  0.38590  0.97971  1.0000
  H   H740      1.0  0.23131  0.43876  0.81258  1.0000
  H   H741      1.0  0.25943  0.39349  0.88146  1.0000
  H   H742      1.0  0.22960  0.04577  0.60774  1.0000
  H   H743      1.0  0.25157  0.23227  0.97502  1.0000
  N   N32       1.0  0.23954  0.40074  0.82173  1.0000
  H   H744      1.0  0.41154  0.43227  0.73481  1.0000
  H   H745      1.0  0.23948  0.20193  0.81101  1.0000
  H   H746      1.0  0.41486  0.39299  0.75045  1.0000
  H   H747      1.0  0.26599  0.37232  0.86309  1.0000
  C   C439      1.0  0.45140  0.01480  0.70373  1.0000
  C   C440      1.0  0.44139  0.39620  0.51192  1.0000
  C   C441      1.0  0.24213  0.14866  0.86171  1.0000
  H   H748      1.0  0.40908  0.27882  0.51360  1.0000
  H   H749      1.0  0.25122  0.37535  0.81020  1.0000
  H   H750      1.0  0.41849  0.36368  0.93822  1.0000
  C   C442      1.0  0.44997  0.46996  0.97942  1.0000
  H   H751      1.0  0.24949  0.06821  0.58220  1.0000
  H   H752      1.0  0.39844  0.44048  0.76701  1.0000
  C   C443      1.0  0.43871  0.34982  0.96051  1.0000
  H   H753      1.0  0.45234  0.35464  0.97881  1.0000
  H   H754      1.0  0.44813  0.99672  0.69961  1.0000
  H   H755      1.0  0.25178  0.13560  0.80331  1.0000
  S   S128      1.0  0.28863  0.21436  0.97942  1.0000
  H   H756      1.0  0.22876  0.41264  0.77863  1.0000
  H   H757      1.0  0.25068  0.29049  0.97088  1.0000
  C   C444      1.0  0.45934  0.40017  0.97136  1.0000
  H   H758      1.0  0.22610  0.14046  0.84769  1.0000
  H   H759      1.0  0.22496  0.15024  0.79732  1.0000
  H   H760      1.0  0.46774  0.00272  0.49739  1.0000
  C   C445      1.0  0.46496  0.45900  0.52301  1.0000
  H   H761      1.0  0.46576  0.45126  0.54594  1.0000
  H   H762      1.0  0.45596  0.39112  0.91867  1.0000
  S   S129      1.0  0.22151  0.30180  0.74165  1.0000
  H   H763      1.0  0.22058  0.32745  0.58424  1.0000
  S   S130      1.0  0.29672  0.21674  0.49102  1.0000
  H   H764      1.0  0.46078  0.42030  0.92769  1.0000
  C   C446      1.0  0.46493  0.40626  0.93488  1.0000
  H   H765      1.0  0.22402  0.17864  0.83962  1.0000
  H   H766      1.0  0.40063  0.36604  0.49102  1.0000
  C   C447      1.0  0.47017  0.48086  0.96033  1.0000
  H   H767      1.0  0.46983  0.39190  0.97928  1.0000
  H   H768      1.0  0.29433  0.99672  0.98801  1.0000
  S   S131      1.0  0.36956  0.94124  0.32940  1.0000
  C   C448      1.0  0.36438  0.91230  0.01095  1.0000
  S   S132      1.0  0.40221  0.93258  0.38133  1.0000
  Fe  Fe63      1.0  0.40663  0.94856  0.33122  1.0000
  S   S133      1.0  0.42311  0.93598  0.29118  1.0000
  Fe  Fe64      1.0  0.36640  0.92899  0.38134  1.0000
  S   S134      1.0  0.33512  0.89665  0.39917  1.0000
  C   C449      1.0  0.24147  0.95536  0.14217  1.0000
  Fe  Fe65      1.0  0.23536  0.88149  0.02035  1.0000
  C   C450      1.0  0.40663  0.97785  0.00286  1.0000
  C   C451      1.0  0.31527  0.89641  0.42915  1.0000
  C   C452      1.0  0.31841  0.91643  0.44588  1.0000
  C   C453      1.0  0.30313  0.91524  0.47116  1.0000
  C   C454      1.0  0.24443  0.89015  0.36322  1.0000
  C   C455      1.0  0.24181  0.97685  0.14737  1.0000
  C   C456      1.0  0.29635  0.87534  0.43742  1.0000
  H   H769      1.0  0.33285  0.93276  0.43980  1.0000
  H   H770      1.0  0.36691  0.89671  0.01458  1.0000
  S   S135      1.0  0.37691  0.96383  0.40329  1.0000
  H   H771      1.0  0.29392  0.85971  0.42485  1.0000
  Fe  Fe66      1.0  0.41296  0.96840  0.40009  1.0000
  H   H772      1.0  0.22907  0.92453  0.11248  1.0000
  H   H773      1.0  0.30601  0.93075  0.48445  1.0000
  H   H774      1.0  0.31005  0.95718  0.09749  1.0000
  H   H775      1.0  0.44091  0.94091  0.43919  1.0000
  C   C457      1.0  0.44654  0.95124  0.26393  1.0000
  H   H776      1.0  0.36022  0.91900  0.06335  1.0000
  H   H777      1.0  0.25077  0.94612  0.01479  1.0000
  N   N33       1.0  0.38697  0.93322  0.00371  1.0000
  C   C458      1.0  0.45094  0.93898  0.23862  1.0000
  H   H778      1.0  0.31554  0.97023  0.02489  1.0000
  H   H779      1.0  0.23420  0.96058  0.02456  1.0000
  C   C459      1.0  0.46396  0.94295  0.47789  1.0000
  C   C460      1.0  0.24938  0.90032  0.42237  1.0000
  C   C461      1.0  0.27040  0.89815  0.35946  1.0000
  H   H780      1.0  0.39499  0.91883  0.07243  1.0000
  H   H781      1.0  0.40117  0.93146  0.46227  1.0000
  H   H782      1.0  0.27548  0.88527  0.36882  1.0000
  H   H783      1.0  0.28067  0.91499  0.37173  1.0000
  C   C462      1.0  0.40573  0.93559  0.06026  1.0000
  H   H784      1.0  0.27519  0.90071  0.33310  1.0000
  C   C463      1.0  0.45139  0.95121  0.45911  1.0000
  S   S136      1.0  0.22374  0.88461  0.07163  1.0000
  H   H785      1.0  0.40014  0.94847  0.06814  1.0000
  C   C464      1.0  0.23367  0.86000  0.40457  1.0000
  H   H786      1.0  0.42176  0.97915  0.01617  1.0000
  H   H787      1.0  0.25123  0.86167  0.40621  1.0000
  H   H788      1.0  0.37218  0.92468  0.45556  1.0000
  C   C465      1.0  0.22879  0.94078  0.11648  1.0000
  H   H789      1.0  0.37101  0.89190  0.43425  1.0000
  H   H790      1.0  0.25108  0.94998  0.15823  1.0000
  H   H791      1.0  0.43942  0.92083  0.23528  1.0000
  C   C466      1.0  0.30007  0.97227  0.01935  1.0000
  H   H792      1.0  0.44572  0.93217  0.35337  1.0000
  H   H793      1.0  0.38651  0.96281  0.47168  1.0000
  H   H794      1.0  0.24225  0.89490  0.44738  1.0000
  C   C467      1.0  0.28089  0.87419  0.46243  1.0000
  C   C468      1.0  0.38334  0.91965  0.47028  1.0000
  H   H795      1.0  0.28885  0.92784  0.09357  1.0000
  H   H796      1.0  0.26942  0.95156  0.09031  1.0000
  H   H797      1.0  0.33555  0.89652  0.04473  1.0000
  H   H798      1.0  0.42322  0.94523  0.01345  1.0000
  C   C469      1.0  0.38493  0.95508  0.00972  1.0000
  H   H799      1.0  0.40633  0.91574  0.01918  1.0000
  H   H800      1.0  0.23584  0.87561  0.34567  1.0000
  C   C470      1.0  0.25166  0.96340  0.01762  1.0000
  C   C471      1.0  0.37887  0.89524  0.45885  1.0000
  C   C472      1.0  0.40610  0.93255  0.02288  1.0000
  C   C473      1.0  0.35029  0.91380  0.04052  1.0000
  S   S137      1.0  0.27433  0.90303  0.01330  1.0000
  H   H801      1.0  0.26655  0.90105  0.42359  1.0000
  H   H802      1.0  0.25203  0.93012  0.39301  1.0000
  H   H803      1.0  0.26746  0.93701  0.05331  1.0000
  C   C474      1.0  0.45276  0.97287  0.46585  1.0000
  C   C475      1.0  0.22111  0.84813  0.43645  1.0000
  H   H804      1.0  0.29367  0.98118  0.12131  1.0000
  H   H805      1.0  0.24097  0.90413  0.35356  1.0000
  H   H806      1.0  0.34288  0.92570  0.03548  1.0000
  H   H807      1.0  0.45965  0.97317  0.34061  1.0000
  H   H808      1.0  0.36716  0.88083  0.47445  1.0000
  H   H809      1.0  0.26964  0.93755  0.42789  1.0000
  H   H810      1.0  0.37975  0.95634  0.03523  1.0000
  N   N34       1.0  0.28857  0.97414  0.05057  1.0000
  H   H811      1.0  0.46462  0.88121  0.23789  1.0000
  H   H812      1.0  0.42351  0.94248  0.06947  1.0000
  H   H813      1.0  0.39524  0.89441  0.45522  1.0000
  H   H814      1.0  0.46276  0.48729  0.44061  1.0000
  H   H815      1.0  0.45594  0.89945  0.28439  1.0000
  C   C476      1.0  0.29773  0.94448  0.08026  1.0000
  H   H816      1.0  0.28875  0.95650  0.00527  1.0000
  C   C477      1.0  0.27961  0.95153  0.06859  1.0000
  C   C478      1.0  0.28425  0.89417  0.47950  1.0000
  C   C479      1.0  0.25250  0.92516  0.41867  1.0000
  H   H817      1.0  0.30696  0.94135  0.05949  1.0000
  H   H818      1.0  0.23915  0.92741  0.43294  1.0000
  H   H819      1.0  0.25875  0.97761  0.06642  1.0000
  H   H820      1.0  0.26686  0.85775  0.46924  1.0000
  N   N35       1.0  0.23461  0.88307  0.39725  1.0000
  H   H821      1.0  0.45513  0.96734  0.38303  1.0000
  Fe  Fe67      1.0  0.38159  0.97663  0.35128  1.0000
  H   H822      1.0  0.46723  0.50471  0.22146  1.0000
  C   C480      1.0  0.46133  0.97480  0.26754  1.0000
  C   C481      1.0  0.46688  0.96882  0.36225  1.0000
  C   C482      1.0  0.46662  0.48858  0.22905  1.0000
  H   H823      1.0  0.33638  0.88637  0.48368  1.0000
  H   H824      1.0  0.46291  0.92624  0.47232  1.0000
  H   H825      1.0  0.22940  0.85849  0.45842  1.0000
  C   C483      1.0  0.46423  0.94435  0.35549  1.0000
  H   H826      1.0  0.25517  0.97215  0.99355  1.0000
  C   C484      1.0  0.26876  0.97906  0.04365  1.0000
  H   H827      1.0  0.22549  0.84750  0.38427  1.0000
  H   H828      1.0  0.22177  0.83150  0.43896  1.0000
  H   H829      1.0  0.46724  0.55171  0.43809  1.0000
  H   H830      1.0  0.22244  0.87093  0.18050  1.0000
  C   C485      1.0  0.46997  0.95003  0.21739  1.0000
  H   H831      1.0  0.35264  0.90812  0.98967  1.0000
  H   H832      1.0  0.31754  0.94024  0.99384  1.0000
  H   H833      1.0  0.37100  0.95508  0.99453  1.0000
  S   S138      1.0  0.38050  0.95869  0.83307  1.0000
  H   H834      1.0  0.39534  0.97633  0.69222  1.0000
  S   S139      1.0  0.41342  0.94551  0.87826  1.0000
  Fe  Fe68      1.0  0.41672  0.96319  0.82971  1.0000
  S   S140      1.0  0.42755  0.95123  0.78227  1.0000
  Fe  Fe69      1.0  0.37860  0.94434  0.88352  1.0000
  S   S141      1.0  0.34686  0.91214  0.90116  1.0000
  H   H835      1.0  0.44930  0.94928  0.94126  1.0000
  H   H836      1.0  0.25313  0.98183  0.52700  1.0000
  C   C486      1.0  0.33805  0.89147  0.50981  1.0000
  C   C487      1.0  0.32588  0.91070  0.93036  1.0000
  C   C488      1.0  0.32984  0.92896  0.95179  1.0000
  C   C489      1.0  0.23482  0.94330  0.61004  1.0000
  C   C490      1.0  0.46512  0.48756  0.73488  1.0000
  C   C491      1.0  0.28876  0.88785  0.95764  1.0000
  C   C492      1.0  0.30522  0.89017  0.93344  1.0000
  H   H837      1.0  0.34544  0.94494  0.94942  1.0000
  H   H838      1.0  0.37213  0.96445  0.50908  1.0000
  H   H839      1.0  0.22334  0.92060  0.67669  1.0000
  H   H840      1.0  0.30196  0.87590  0.91704  1.0000
  H   H841      1.0  0.41048  0.98033  0.97634  1.0000
  C   C493      1.0  0.38067  0.96023  0.73834  1.0000
  H   H842      1.0  0.42506  0.93207  0.53561  1.0000
  H   H843      1.0  0.37401  0.94305  0.72633  1.0000
  H   H844      1.0  0.27306  0.87189  0.95974  1.0000
  Fe  Fe70      1.0  0.22797  0.87504  0.52207  1.0000
  C   C494      1.0  0.45249  0.95094  0.72765  1.0000
  H   H845      1.0  0.43818  0.93424  0.72285  1.0000
  C   C495      1.0  0.39484  0.94815  0.51491  1.0000
  H   H846      1.0  0.38609  0.95812  0.76306  1.0000
  H   H847      1.0  0.37821  0.89048  0.52407  1.0000
  C   C496      1.0  0.38817  0.90929  0.52804  1.0000
  H   H848      1.0  0.35430  0.92159  0.54039  1.0000
  H   H849      1.0  0.37981  0.93519  0.95256  1.0000
  H   H850      1.0  0.32100  0.88951  0.51765  1.0000
  C   C497      1.0  0.25037  0.95911  0.63244  1.0000
  H   H851      1.0  0.34976  0.92687  0.49918  1.0000
  H   H852      1.0  0.39472  0.95096  0.54183  1.0000
  C   C498      1.0  0.45204  0.96335  0.75580  1.0000
  H   H853      1.0  0.38500  0.91185  0.55426  1.0000
  H   H854      1.0  0.39532  0.91120  0.92868  1.0000
  C   C499      1.0  0.40103  0.97783  0.71803  1.0000
  S   S142      1.0  0.26670  0.89346  0.51318  1.0000
  S   S143      1.0  0.39205  0.97882  0.90805  1.0000
  H   H855      1.0  0.26435  0.95634  0.64131  1.0000
  H   H856      1.0  0.34140  0.87937  0.52494  1.0000
  C   C500      1.0  0.41362  0.91505  0.52467  1.0000
  H   H857      1.0  0.41404  0.97136  0.71789  1.0000
  H   H858      1.0  0.23710  0.92872  0.60156  1.0000
  C   C501      1.0  0.46705  0.94743  0.98452  1.0000
  Fe  Fe71      1.0  0.42697  0.98098  0.90028  1.0000
  C   C502      1.0  0.22965  0.98156  0.63221  1.0000
  H   H859      1.0  0.37598  0.89460  0.95975  1.0000
  H   H860      1.0  0.41669  0.90202  0.53815  1.0000
  C   C503      1.0  0.35586  0.91685  0.51454  1.0000
  N   N36       1.0  0.38043  0.92296  0.50638  1.0000
  H   H861      1.0  0.46236  0.50234  0.72971  1.0000
  C   C504      1.0  0.24797  0.97836  0.64361  1.0000
  H   H862      1.0  0.41870  0.91462  0.49890  1.0000
  C   C505      1.0  0.29308  0.90584  0.97977  1.0000
  H   H863      1.0  0.22048  0.86625  0.64505  1.0000
  C   C506      1.0  0.45840  0.95824  0.96295  1.0000
  H   H864      1.0  0.36625  0.96454  0.74018  1.0000
  H   H865      1.0  0.47029  0.48990  0.93820  1.0000
  C   C507      1.0  0.31381  0.92632  0.97675  1.0000
  C   C508      1.0  0.38813  0.96535  0.49846  1.0000
  H   H866      1.0  0.41308  0.95398  0.50797  1.0000
  H   H867      1.0  0.22411  0.88211  0.68210  1.0000
  H   H868      1.0  0.40939  0.94688  0.96124  1.0000
  C   C509      1.0  0.39233  0.93256  0.96779  1.0000
  C   C510      1.0  0.39254  0.91014  0.95554  1.0000
  H   H869      1.0  0.22636  0.92341  0.71943  1.0000
  C   C511      1.0  0.46207  0.98081  0.96911  1.0000
  H   H870      1.0  0.40674  0.90780  0.96624  1.0000
  H   H871      1.0  0.46440  0.93008  0.97930  1.0000
  H   H872      1.0  0.46759  0.51064  0.52481  1.0000
  H   H873      1.0  0.46928  0.53835  0.49133  1.0000
  Fe  Fe72      1.0  0.71044  0.07438  0.46699  1.0000
  H   H874      1.0  0.53215  0.02504  0.35298  1.0000
  H   H875      1.0  0.49226  0.00383  0.25029  1.0000
  H   H876      1.0  0.61182  0.00328  0.45618  1.0000
  C   C512      1.0  0.48924  0.00921  0.37707  1.0000
  S   S144      1.0  0.71493  0.06501  0.41530  1.0000
  S   S145      1.0  0.59704  0.02383  0.08923  1.0000
  N   N37       1.0  0.49087  0.98731  0.36926  1.0000
  H   H877      1.0  0.47699  0.00967  0.00236  1.0000
  H   H878      1.0  0.53656  0.01472  0.31508  1.0000
  H   H879      1.0  0.59668  0.99047  0.04061  1.0000
  C   C513      1.0  0.48373  0.47886  0.47223  1.0000
  C   C514      1.0  0.48352  0.02063  0.34809  1.0000
  H   H880      1.0  0.64881  0.01202  0.09550  1.0000
  H   H881      1.0  0.53071  0.02468  0.00937  1.0000
  C   C515      1.0  0.51762  0.99814  0.42017  1.0000
  C   C516      1.0  0.64956  0.02811  0.01031  1.0000
  C   C517      1.0  0.62859  0.00795  0.01365  1.0000
  C   C518      1.0  0.61271  0.00603  0.03844  1.0000
  C   C519      1.0  0.61740  0.02450  0.05975  1.0000
  C   C520      1.0  0.63847  0.04453  0.05675  1.0000
  C   C521      1.0  0.65458  0.04627  0.03239  1.0000
  H   H882      1.0  0.52261  0.48034  0.17224  1.0000
  H   H883      1.0  0.50488  0.46752  0.00667  1.0000
  H   H884      1.0  0.64225  0.05895  0.07310  1.0000
  H   H885      1.0  0.67052  0.06196  0.02996  1.0000
  C   C522      1.0  0.54959  0.03415  0.00547  1.0000
  H   H886      1.0  0.49740  0.99182  0.31676  1.0000
  H   H887      1.0  0.66409  0.04949  0.41422  1.0000
  H   H888      1.0  0.57841  0.05586  0.03780  1.0000
  C   C523      1.0  0.48954  0.46822  0.99891  1.0000
  H   H889      1.0  0.63496  0.03370  0.42654  1.0000
  H   H890      1.0  0.62451  0.99384  0.99661  1.0000
  H   H891      1.0  0.53268  0.01059  0.40621  1.0000
  C   C524      1.0  0.48074  0.98568  0.24696  1.0000
  H   H892      1.0  0.52631  0.47512  0.29345  1.0000
  H   H893      1.0  0.48272  0.46544  0.29158  1.0000
  H   H894      1.0  0.53456  0.46899  0.25452  1.0000
  C   C525      1.0  0.55996  0.04339  0.03943  1.0000
  H   H895      1.0  0.54175  0.00310  0.35226  1.0000
  C   C526      1.0  0.64958  0.03182  0.41581  1.0000
  C   C527      1.0  0.65665  0.01684  0.43721  1.0000
  S   S146      1.0  0.71015  0.00377  0.42823  1.0000
  H   H896      1.0  0.50538  0.02291  0.38706  1.0000
  H   H897      1.0  0.47628  0.00601  0.39680  1.0000
  H   H898      1.0  0.66735  0.00915  0.06602  1.0000
  Fe  Fe73      1.0  0.56313  0.99297  0.10294  1.0000
  H   H899      1.0  0.49742  0.02713  0.32941  1.0000
  C   C528      1.0  0.62153  0.99276  0.14931  1.0000
  C   C529      1.0  0.70707  0.98641  0.39284  1.0000
  H   H900      1.0  0.55112  0.05275  0.05065  1.0000
  H   H901      1.0  0.55763  0.02937  0.05645  1.0000
  C   C530      1.0  0.53999  0.48198  0.27444  1.0000
  S   S147      1.0  0.52923  0.99398  0.10431  1.0000
  C   C531      1.0  0.47543  0.46658  0.26853  1.0000
  H   H902      1.0  0.61562  0.98909  0.40385  1.0000
  C   C532      1.0  0.53038  0.00921  0.34051  1.0000
  H   H903      1.0  0.64571  0.02509  0.39045  1.0000
  H   H904      1.0  0.66353  0.02671  0.46016  1.0000
  C   C533      1.0  0.50553  0.98984  0.33945  1.0000
  S   S148      1.0  0.67694  0.07392  0.48400  1.0000
  H   H905      1.0  0.67184  0.01649  0.42549  1.0000
  H   H906      1.0  0.53185  0.99034  0.01494  1.0000
  C   C534      1.0  0.65793  0.00180  0.08926  1.0000
  S   S149      1.0  0.51079  0.98758  0.19811  1.0000
  N   N38       1.0  0.63805  0.99286  0.44467  1.0000
  H   H907      1.0  0.65855  0.99094  0.38685  1.0000
  H   H908      1.0  0.52381  0.98966  0.43820  1.0000
  H   H909      1.0  0.49222  0.99051  0.04032  1.0000
  H   H910      1.0  0.55932  0.00015  0.03056  1.0000
  H   H911      1.0  0.50999  0.00742  0.43472  1.0000
  H   H912      1.0  0.48166  0.03577  0.35731  1.0000
  C   C535      1.0  0.62116  0.99489  0.46813  1.0000
  C   C536      1.0  0.47414  0.99223  0.99732  1.0000
  H   H913      1.0  0.61454  0.00493  0.14364  1.0000
  C   C537      1.0  0.55005  0.99695  0.00700  1.0000
  H   H914      1.0  0.61562  0.98678  0.17466  1.0000
  H   H915      1.0  0.67102  0.00433  0.10775  1.0000
  H   H916      1.0  0.55269  0.04951  0.99039  1.0000
  H   H917      1.0  0.64031  0.00305  0.14882  1.0000
  H   H918      1.0  0.59121  0.03176  0.01158  1.0000
  H   H919      1.0  0.71755  0.10470  0.62937  1.0000
  Fe  Fe74      1.0  0.70625  0.05140  0.96665  1.0000
  H   H920      1.0  0.70432  0.13273  0.56411  1.0000
  H   H921      1.0  0.48364  0.41298  0.93073  1.0000
  C   C538      1.0  0.54914  0.01548  0.95360  1.0000
  C   C539      1.0  0.48423  0.46843  0.50198  1.0000
  S   S150      1.0  0.60446  0.00236  0.58475  1.0000
  H   H922      1.0  0.53695  0.47128  0.69852  1.0000
  H   H923      1.0  0.68765  0.07532  0.60178  1.0000
  H   H924      1.0  0.49974  0.46775  0.50893  1.0000
  H   H925      1.0  0.59417  0.02831  0.93666  1.0000
  H   H926      1.0  0.51546  0.98561  0.96328  1.0000
  C   C540      1.0  0.71300  0.12314  0.55313  1.0000
  H   H927      1.0  0.68026  0.07927  0.56155  1.0000
  H   H928      1.0  0.55592  0.00595  0.93813  1.0000
  H   H929      1.0  0.50364  0.01074  0.74399  1.0000
  H   H930      1.0  0.61541  0.03374  0.96657  1.0000
  N   N39       1.0  0.71335  0.10566  0.57681  1.0000
  C   C541      1.0  0.61785  0.03529  0.53496  1.0000
  C   C542      1.0  0.62364  0.02158  0.55515  1.0000
  C   C543      1.0  0.64583  0.02353  0.55262  1.0000
  C   C544      1.0  0.66197  0.03878  0.53008  1.0000
  C   C545      1.0  0.66107  0.98807  0.49203  1.0000
  H   H931      1.0  0.60092  0.03413  0.53682  1.0000
  H   H932      1.0  0.65053  0.01307  0.56819  1.0000
  H   H933      1.0  0.67890  0.03998  0.52845  1.0000
  H   H934      1.0  0.50471  0.47673  0.68153  1.0000
  H   H935      1.0  0.47195  0.39022  0.51439  1.0000
  C   C546      1.0  0.52289  0.00252  0.95070  1.0000
  C   C547      1.0  0.68875  0.08869  0.58411  1.0000
  H   H936      1.0  0.54098  0.98336  0.75819  1.0000
  C   C548      1.0  0.47200  0.44937  0.74786  1.0000
  H   H937      1.0  0.68143  0.11032  0.61985  1.0000
  C   C549      1.0  0.67350  0.09887  0.59859  1.0000
  Fe  Fe75      1.0  0.56574  0.98479  0.59546  1.0000
  H   H938      1.0  0.66890  0.10813  0.57973  1.0000
  H   H939      1.0  0.67582  0.00548  0.48943  1.0000
  S   S151      1.0  0.66766  0.03038  0.97642  1.0000
  H   H940      1.0  0.57039  0.47874  0.73181  1.0000
  H   H941      1.0  0.65710  0.08445  0.60720  1.0000
  H   H942      1.0  0.47461  0.43453  0.75321  1.0000
  H   H943      1.0  0.70288  0.11420  0.53106  1.0000
  C   C550      1.0  0.63426  0.05109  0.51309  1.0000
  H   H944      1.0  0.56714  0.98488  0.74277  1.0000
  C   C551      1.0  0.59671  0.02413  0.96205  1.0000
  H   H945      1.0  0.51822  0.99900  0.92449  1.0000
  S   S152      1.0  0.53632  0.99367  0.59115  1.0000
  H   H946      1.0  0.59195  0.00560  0.96404  1.0000
  S   S153      1.0  0.51413  0.99365  0.68446  1.0000
  H   H947      1.0  0.55511  0.03241  0.94104  1.0000
  C   C552      1.0  0.48170  0.46896  0.76848  1.0000
  H   H948      1.0  0.49165  0.46909  0.78942  1.0000
  H   H949      1.0  0.53597  0.45655  0.76533  1.0000
  H   H950      1.0  0.58993  0.05074  0.98181  1.0000
  H   H951      1.0  0.71253  0.04072  0.82225  1.0000
  C   C553      1.0  0.48935  0.99401  0.73928  1.0000
  H   H952      1.0  0.51477  0.01307  0.95996  1.0000
  C   C554      1.0  0.65640  0.05294  0.51052  1.0000
  H   H953      1.0  0.62979  0.06205  0.49822  1.0000
  C   C555      1.0  0.54977  0.47269  0.77553  1.0000
  C   C556      1.0  0.58411  0.03212  0.98717  1.0000
  H   H954      1.0  0.71675  0.08630  0.53563  1.0000
  H   H955      1.0  0.70549  0.05632  0.57588  1.0000
  H   H956      1.0  0.64936  0.98826  0.51161  1.0000
  S   S154      1.0  0.71635  0.04889  0.91423  1.0000
  H   H957      1.0  0.63012  0.00638  0.48888  1.0000
  H   H958      1.0  0.52058  0.47261  0.73264  1.0000
  C   C557      1.0  0.49011  0.48003  0.96993  1.0000
  H   H959      1.0  0.48935  0.98779  0.53093  1.0000
  H   H960      1.0  0.56049  0.46757  0.79092  1.0000
  H   H961      1.0  0.47845  0.42007  0.50779  1.0000
  H   H962      1.0  0.69808  0.98224  0.88856  1.0000
  H   H963      1.0  0.54238  0.48113  0.79203  1.0000
  C   C558      1.0  0.47070  0.98494  0.76156  1.0000
  H   H964      1.0  0.47073  0.99472  0.78309  1.0000
  N   N40       1.0  0.55827  0.01914  0.98797  1.0000
  Fe  Fe76      1.0  0.53415  0.56327  0.37985  1.0000
  S   S155      1.0  0.55275  0.54613  0.40385  1.0000
  S   S156      1.0  0.53605  0.59748  0.39784  1.0000
  Fe  Fe77      1.0  0.51099  0.52291  0.33036  1.0000
  S   S157      1.0  0.52815  0.50336  0.35228  1.0000
  S   S158      1.0  0.48885  0.51288  0.28409  1.0000
  Fe  Fe78      1.0  0.51918  0.51355  0.40135  1.0000
  C   C559      1.0  0.48285  0.98145  0.01884  1.0000
  Fe  Fe79      1.0  0.55993  0.53782  0.35278  1.0000
  S   S159      1.0  0.59493  0.54074  0.33888  1.0000
  S   S160      1.0  0.50006  0.53108  0.37951  1.0000
  S   S161      1.0  0.54332  0.55697  0.32871  1.0000
  Fe  Fe80      1.0  0.70332  0.62037  0.21773  1.0000
  H   H965      1.0  0.54321  0.52337  0.00737  1.0000
  S   S162      1.0  0.66451  0.60205  0.22729  1.0000
  H   H966      1.0  0.61523  0.74217  0.33131  1.0000
  H   H967      1.0  0.54231  0.56023  0.22202  1.0000
  Fe  Fe81      1.0  0.66973  0.90271  0.29480  1.0000
  S   S163      1.0  0.63640  0.89038  0.32148  1.0000
  S   S164      1.0  0.70132  0.93614  0.30894  1.0000
  Fe  Fe82      1.0  0.64914  0.86202  0.24503  1.0000
  S   S165      1.0  0.61416  0.84758  0.26900  1.0000
  S   S166      1.0  0.66021  0.84923  0.19867  1.0000
  Fe  Fe83      1.0  0.62037  0.88468  0.27168  1.0000
  S   S167      1.0  0.59647  0.90111  0.26602  1.0000
  Fe  Fe84      1.0  0.63356  0.85471  0.31664  1.0000
  S   S168      1.0  0.62052  0.83181  0.36218  1.0000
  S   S169      1.0  0.65408  0.89876  0.24507  1.0000
  S   S170      1.0  0.66817  0.86732  0.29267  1.0000
  Fe  Fe85      1.0  0.62659  0.74536  0.06296  1.0000
  S   S171      1.0  0.66203  0.75930  0.04091  1.0000
  S   S172      1.0  0.61680  0.75681  0.11149  1.0000
  Fe  Fe86      1.0  0.60605  0.70659  0.01025  1.0000
  C   C560      1.0  0.49058  0.87762  0.18329  1.0000
  H   H968      1.0  0.61803  0.95128  0.17925  1.0000
  Fe  Fe87      1.0  0.65450  0.72199  0.03592  1.0000
  S   S173      1.0  0.67665  0.70395  0.04460  1.0000
  H   H969      1.0  0.53779  0.96016  0.99893  1.0000
  S   S174      1.0  0.66310  0.77900  0.44657  1.0000
  S   S175      1.0  0.62011  0.70817  0.06050  1.0000
  S   S176      1.0  0.60903  0.74250  0.01466  1.0000
  Fe  Fe88      1.0  0.54224  0.94351  0.12744  1.0000
  S   S177      1.0  0.55196  0.91477  0.13623  1.0000
  H   H970      1.0  0.58588  0.94341  0.07666  1.0000
  S   S178      1.0  0.49092  0.94489  0.03771  1.0000
  H   H971      1.0  0.68619  0.86980  0.45257  1.0000
  S   S179      1.0  0.50644  0.93983  0.12986  1.0000
  H   H972      1.0  0.48518  0.96916  0.41543  1.0000
  H   H973      1.0  0.59641  0.95844  0.13781  1.0000
  H   H974      1.0  0.52168  0.53969  0.46035  1.0000
  C   C561      1.0  0.58682  0.90637  0.22830  1.0000
  C   C562      1.0  0.58324  0.89193  0.20120  1.0000
  C   C563      1.0  0.57288  0.89496  0.17296  1.0000
  C   C564      1.0  0.56640  0.91268  0.17131  1.0000
  C   C565      1.0  0.57086  0.92774  0.19787  1.0000
  C   C566      1.0  0.58073  0.92437  0.22639  1.0000
  H   H975      1.0  0.58768  0.87789  0.20247  1.0000
  H   H976      1.0  0.56951  0.88323  0.15251  1.0000
  H   H977      1.0  0.56615  0.94158  0.19679  1.0000
  H   H978      1.0  0.58347  0.93562  0.24727  1.0000
  C   C567      1.0  0.64719  0.82360  0.17436  1.0000
  C   C568      1.0  0.62738  0.80405  0.18429  1.0000
  C   C569      1.0  0.61823  0.78396  0.16455  1.0000
  C   C570      1.0  0.62856  0.78314  0.13448  1.0000
  C   C571      1.0  0.64824  0.80278  0.12438  1.0000
  C   C572      1.0  0.65756  0.82274  0.14433  1.0000
  H   H979      1.0  0.61919  0.80436  0.20726  1.0000
  H   H980      1.0  0.60300  0.76893  0.17266  1.0000
  H   H981      1.0  0.65637  0.80257  0.10131  1.0000
  H   H982      1.0  0.67287  0.83774  0.13634  1.0000
  C   C573      1.0  0.63289  0.81746  0.38523  1.0000
  C   C574      1.0  0.62228  0.80676  0.41480  1.0000
  C   C575      1.0  0.63139  0.79518  0.43409  1.0000
  C   C576      1.0  0.65121  0.79401  0.42388  1.0000
  C   C577      1.0  0.66186  0.80473  0.39433  1.0000
  C   C578      1.0  0.65281  0.81644  0.37510  1.0000
  H   H983      1.0  0.60687  0.80747  0.42286  1.0000
  H   H984      1.0  0.62303  0.78711  0.45679  1.0000
  H   H985      1.0  0.67716  0.80388  0.38613  1.0000
  H   H986      1.0  0.66112  0.82451  0.35237  1.0000
  C   C579      1.0  0.70226  0.95586  0.34002  1.0000
  H   H987      1.0  0.47199  0.87049  0.18838  1.0000
  H   H988      1.0  0.58183  0.50221  0.24681  1.0000
  C   C580      1.0  0.50278  0.87910  0.25278  1.0000
  H   H989      1.0  0.64433  0.75932  0.22628  1.0000
  H   H990      1.0  0.64506  0.76179  0.33463  1.0000
  C   C581      1.0  0.69878  0.68057  0.12138  1.0000
  C   C582      1.0  0.68563  0.68188  0.09525  1.0000
  C   C583      1.0  0.69033  0.70325  0.08130  1.0000
  H   H991      1.0  0.61321  0.74751  0.42544  1.0000
  H   H992      1.0  0.58434  0.71053  0.35656  1.0000
  H   H993      1.0  0.69507  0.66400  0.13176  1.0000
  H   H994      1.0  0.67205  0.66620  0.08536  1.0000
  C   C584      1.0  0.71532  0.89607  0.35576  1.0000
  C   C585      1.0  0.57820  0.67910  0.38115  1.0000
  C   C586      1.0  0.55631  0.61685  0.42590  1.0000
  C   C587      1.0  0.57449  0.61345  0.43731  1.0000
  H   H995      1.0  0.71645  0.90870  0.45097  1.0000
  H   H996      1.0  0.67045  0.85586  0.41712  1.0000
  C   C588      1.0  0.57004  0.65224  0.45888  1.0000
  C   C589      1.0  0.55406  0.63619  0.43706  1.0000
  H   H997      1.0  0.57651  0.59872  0.42884  1.0000
  H   H998      1.0  0.59573  0.74370  0.39081  1.0000
  H   H999      1.0  0.63595  0.96065  0.46244  1.0000
  H   H1000     1.0  0.53990  0.63882  0.42865  1.0000
  C   C590      1.0  0.61531  0.56032  0.31066  1.0000
  C   C591      1.0  0.61001  0.57419  0.29010  1.0000
  C   C592      1.0  0.62561  0.58741  0.26540  1.0000
  C   C593      1.0  0.64698  0.58753  0.26156  1.0000
  C   C594      1.0  0.65262  0.57432  0.28293  1.0000
  C   C595      1.0  0.63677  0.56062  0.30709  1.0000
  H   H1001     1.0  0.59366  0.57426  0.29265  1.0000
  H   H1002     1.0  0.62102  0.59747  0.24892  1.0000
  H   H1003     1.0  0.66882  0.57396  0.28002  1.0000
  H   H1004     1.0  0.64101  0.54987  0.32275  1.0000
  H   H1005     1.0  0.52891  0.56925  0.45538  1.0000
  C   C596      1.0  0.69998  0.77641  0.11719  1.0000
  H   H1006     1.0  0.56787  0.67953  0.40236  1.0000
  H   H1007     1.0  0.56625  0.54470  0.20070  1.0000
  H   H1008     1.0  0.49994  0.91333  0.19082  1.0000
  H   H1009     1.0  0.52283  0.90678  0.19444  1.0000
  C   C597      1.0  0.61285  0.93812  0.10141  1.0000
  C   C598      1.0  0.63317  0.69766  0.40717  1.0000
  H   H1010     1.0  0.55626  0.55914  0.04464  1.0000
  S   S180      1.0  0.54920  0.95898  0.07709  1.0000
  H   H1011     1.0  0.65110  0.96784  0.07280  1.0000
  C   C599      1.0  0.52614  0.49241  0.19321  1.0000
  H   H1012     1.0  0.60425  0.55047  0.21463  1.0000
  H   H1013     1.0  0.65124  0.71082  0.40345  1.0000
  H   H1014     1.0  0.63313  0.68565  0.42634  1.0000
  H   H1015     1.0  0.62672  0.68765  0.38428  1.0000
  H   H1016     1.0  0.53644  0.54455  0.25930  1.0000
  N   N41       1.0  0.50166  0.89974  0.23832  1.0000
  H   H1017     1.0  0.69468  0.76571  0.09474  1.0000
  C   C600      1.0  0.50464  0.90050  0.20162  1.0000
  C   C601      1.0  0.71701  0.70064  0.13343  1.0000
  C   C602      1.0  0.58193  0.51916  0.24336  1.0000
  N   N42       1.0  0.55400  0.57017  0.99552  1.0000
  H   H1018     1.0  0.48523  0.91818  0.29217  1.0000
  C   C603      1.0  0.47848  0.89813  0.24603  1.0000
  H   H1019     1.0  0.49321  0.88091  0.15654  1.0000
  H   H1020     1.0  0.59229  0.60641  0.02794  1.0000
  H   H1021     1.0  0.64445  0.95106  0.18818  1.0000
  H   H1022     1.0  0.66625  0.77260  0.12753  1.0000
  H   H1023     1.0  0.61790  0.53444  0.22940  1.0000
  H   H1024     1.0  0.52017  0.92053  0.27996  1.0000
  C   C604      1.0  0.52122  0.94418  0.24233  1.0000
  H   H1025     1.0  0.56840  0.97644  0.99796  1.0000
  C   C605      1.0  0.55905  0.59469  0.00302  1.0000
  C   C606      1.0  0.53162  0.52921  0.01959  1.0000
  C   C607      1.0  0.65964  0.72945  0.13144  1.0000
  C   C608      1.0  0.64951  0.70406  0.14201  1.0000
  H   H1026     1.0  0.64588  0.73167  0.11877  1.0000
  H   H1027     1.0  0.67239  0.73143  0.11221  1.0000
  H   H1028     1.0  0.61221  0.96297  0.42002  1.0000
  H   H1029     1.0  0.64178  0.69293  0.12028  1.0000
  H   H1030     1.0  0.63566  0.69934  0.16050  1.0000
  H   H1031     1.0  0.66304  0.69974  0.15053  1.0000
  C   C609      1.0  0.55231  0.97663  0.99066  1.0000
  H   H1032     1.0  0.59925  0.52344  0.19527  1.0000
  H   H1033     1.0  0.58700  0.52809  0.26739  1.0000
  H   H1034     1.0  0.58476  0.91589  0.07008  1.0000
  C   C610      1.0  0.68896  0.74528  0.17529  1.0000
  N   N43       1.0  0.61104  0.72039  0.39278  1.0000
  H   H1035     1.0  0.62846  0.72206  0.43798  1.0000
  H   H1036     1.0  0.53040  0.55994  0.03711  1.0000
  N   N44       1.0  0.62722  0.96274  0.11260  1.0000
  S   S181      1.0  0.57357  0.67534  0.99273  1.0000
  H   H1037     1.0  0.64064  0.72804  0.36159  1.0000
  H   H1038     1.0  0.52137  0.85882  0.24632  1.0000
  H   H1039     1.0  0.64221  0.72905  0.19274  1.0000
  C   C611      1.0  0.68812  0.96434  0.39106  1.0000
  C   C612      1.0  0.63233  0.73725  0.37480  1.0000
  C   C613      1.0  0.61841  0.70912  0.41898  1.0000
  H   H1040     1.0  0.53603  0.95874  0.25400  1.0000
  H   H1041     1.0  0.71293  0.73972  0.08210  1.0000
  H   H1042     1.0  0.53249  0.88351  0.22144  1.0000
  H   H1043     1.0  0.57415  0.55323  0.24175  1.0000
  H   H1044     1.0  0.62530  0.76596  0.36027  1.0000
  C   C614      1.0  0.48425  0.55993  0.44999  1.0000
  H   H1045     1.0  0.50655  0.96757  0.39053  1.0000
  H   H1046     1.0  0.51581  0.52350  0.00505  1.0000
  H   H1047     1.0  0.54302  0.59581  0.00892  1.0000
  C   C615      1.0  0.52062  0.92123  0.25276  1.0000
  C   C616      1.0  0.47953  0.95903  0.01237  1.0000
  C   C617      1.0  0.53933  0.54346  0.23271  1.0000
  N   N45       1.0  0.55856  0.51611  0.23396  1.0000
  H   H1048     1.0  0.65495  0.97964  0.14752  1.0000
  H   H1049     1.0  0.67062  0.93266  0.36332  1.0000
  C   C618      1.0  0.68205  0.72761  0.20357  1.0000
  H   H1050     1.0  0.52637  0.52019  0.04348  1.0000
  H   H1051     1.0  0.53757  0.92250  0.24591  1.0000
  C   C619      1.0  0.54324  0.55552  0.02534  1.0000
  C   C620      1.0  0.52589  0.55593  0.47417  1.0000
  H   H1052     1.0  0.69931  0.74091  0.15746  1.0000
  H   H1053     1.0  0.52533  0.50323  0.25808  1.0000
  C   C621      1.0  0.60165  0.53266  0.21891  1.0000
  H   H1054     1.0  0.60423  0.97761  0.10415  1.0000
  H   H1055     1.0  0.70656  0.79457  0.10901  1.0000
  H   H1056     1.0  0.47371  0.88725  0.29791  1.0000
  C   C622      1.0  0.61145  0.97224  0.12499  1.0000
  C   C623      1.0  0.60051  0.73417  0.40907  1.0000
  H   H1057     1.0  0.60357  0.69578  0.43244  1.0000
  H   H1058     1.0  0.68545  0.73657  0.22762  1.0000
  H   H1059     1.0  0.50788  0.55738  0.99663  1.0000
  H   H1060     1.0  0.69322  0.71896  0.20255  1.0000
  H   H1061     1.0  0.62389  0.92992  0.09436  1.0000
  H   H1062     1.0  0.47218  0.94350  0.33178  1.0000
  C   C624      1.0  0.68539  0.94944  0.36441  1.0000
  H   H1063     1.0  0.67616  0.90138  0.44993  1.0000
  H   H1064     1.0  0.57885  0.62456  0.03347  1.0000
  H   H1065     1.0  0.69872  0.84299  0.43217  1.0000
  C   C625      1.0  0.67980  0.77077  0.14128  1.0000
  H   H1066     1.0  0.59137  0.96023  0.46422  1.0000
  H   H1067     1.0  0.64536  0.74904  0.39231  1.0000
  C   C626      1.0  0.57863  0.72064  0.42958  1.0000
  H   H1068     1.0  0.64845  0.87822  0.38759  1.0000
  C   C627      1.0  0.65108  0.74603  0.18059  1.0000
  C   C628      1.0  0.59027  0.62930  0.45943  1.0000
  H   H1069     1.0  0.56603  0.66930  0.36147  1.0000
  H   H1070     1.0  0.70099  0.76225  0.18610  1.0000
  C   C629      1.0  0.68749  0.86913  0.42540  1.0000
  H   H1071     1.0  0.52341  0.52995  0.22213  1.0000
  H   H1072     1.0  0.60168  0.92741  0.12164  1.0000
  H   H1073     1.0  0.71175  0.89222  0.32933  1.0000
  H   H1074     1.0  0.48253  0.52735  0.46369  1.0000
  H   H1075     1.0  0.58604  0.57048  0.00911  1.0000
  H   H1076     1.0  0.54888  0.51764  0.28425  1.0000
  H   H1077     1.0  0.58051  0.70951  0.44835  1.0000
  C   C630      1.0  0.70390  0.85888  0.41737  1.0000
  N   N46       1.0  0.69331  0.89238  0.41080  1.0000
  H   H1078     1.0  0.56201  0.56470  0.47142  1.0000
  H   H1079     1.0  0.66050  0.78135  0.19772  1.0000
  H   H1080     1.0  0.48790  0.86259  0.24551  1.0000
  C   C631      1.0  0.59664  0.93461  0.07257  1.0000
  C   C632      1.0  0.56062  0.53972  0.22649  1.0000
  H   H1081     1.0  0.49645  0.86459  0.18890  1.0000
  C   C633      1.0  0.62890  0.75245  0.34886  1.0000
  H   H1082     1.0  0.57454  0.73320  0.44302  1.0000
  H   H1083     1.0  0.56377  0.71055  0.41371  1.0000
  H   H1084     1.0  0.56785  0.59795  0.05533  1.0000
  H   H1085     1.0  0.65473  0.95555  0.12780  1.0000
  H   H1086     1.0  0.60425  0.62646  0.46805  1.0000
  H   H1087     1.0  0.67857  0.91609  0.41261  1.0000
  C   C634      1.0  0.67539  0.89914  0.42283  1.0000
  H   H1088     1.0  0.63731  0.74725  0.16647  1.0000
  C   C635      1.0  0.60274  0.97217  0.48302  1.0000
  C   C636      1.0  0.54281  0.50562  0.26291  1.0000
  C   C637      1.0  0.65825  0.76462  0.20765  1.0000
  C   C638      1.0  0.52506  0.87724  0.24594  1.0000
  H   H1089     1.0  0.50122  0.87923  0.27988  1.0000
  H   H1090     1.0  0.66179  0.97857  0.44217  1.0000
  H   H1091     1.0  0.68635  0.78504  0.15950  1.0000
  Fe  Fe89      1.0  0.51485  0.95867  0.08148  1.0000
  H   H1092     1.0  0.67405  0.76718  0.22025  1.0000
  H   H1093     1.0  0.62417  0.92870  0.16333  1.0000
  C   C639      1.0  0.57550  0.60624  0.03165  1.0000
  H   H1094     1.0  0.53827  0.88688  0.26455  1.0000
  H   H1095     1.0  0.50569  0.94545  0.25035  1.0000
  H   H1096     1.0  0.71448  0.77500  0.12862  1.0000
  C   C640      1.0  0.63151  0.94743  0.16883  1.0000
  S   S182      1.0  0.55822  0.97759  0.15327  1.0000
  H   H1097     1.0  0.47575  0.91117  0.23205  1.0000
  H   H1098     1.0  0.63985  0.96053  0.38800  1.0000
  H   H1099     1.0  0.66428  0.71370  0.20320  1.0000
  C   C641      1.0  0.69274  0.89113  0.37384  1.0000
  H   H1100     1.0  0.58723  0.66894  0.38766  1.0000
  C   C642      1.0  0.59487  0.70335  0.36835  1.0000
  C   C643      1.0  0.64318  0.96221  0.13842  1.0000
  H   H1101     1.0  0.68628  0.67788  0.47474  1.0000
  H   H1102     1.0  0.67555  0.95850  0.41054  1.0000
  C   C644      1.0  0.47345  0.90094  0.28233  1.0000
  H   H1103     1.0  0.70239  0.85330  0.39144  1.0000
  H   H1104     1.0  0.60611  0.94022  0.04902  1.0000
  H   H1105     1.0  0.47299  0.94047  0.19781  1.0000
  N   N47       1.0  0.66998  0.74750  0.15785  1.0000
  C   C645      1.0  0.47634  0.48757  0.25912  1.0000
  H   H1106     1.0  0.71946  0.65194  0.08505  1.0000
  H   H1107     1.0  0.67953  0.87386  0.36550  1.0000
  H   H1108     1.0  0.48656  0.57662  0.46033  1.0000
  H   H1109     1.0  0.60450  0.70028  0.34785  1.0000
  H   H1110     1.0  0.64355  0.86630  0.42849  1.0000
  H   H1111     1.0  0.52331  0.50686  0.18438  1.0000
  H   H1112     1.0  0.52362  0.94694  0.21554  1.0000
  H   H1113     1.0  0.68727  0.90353  0.36348  1.0000
  H   H1114     1.0  0.63937  0.89080  0.41979  1.0000
  C   C646      1.0  0.48498  0.54351  0.47632  1.0000
  C   C647      1.0  0.65039  0.88245  0.41402  1.0000
  C   C648      1.0  0.49948  0.97945  0.39837  1.0000
  H   H1115     1.0  0.56202  0.50941  0.18269  1.0000
  C   C649      1.0  0.58832  0.64892  0.47005  1.0000
  Fe  Fe90      1.0  0.64406  0.75447  0.99233  1.0000
  S   S183      1.0  0.71174  0.63157  0.16502  1.0000
  C   C650      1.0  0.70847  0.72330  0.09356  1.0000
  C   C651      1.0  0.64108  0.97623  0.08348  1.0000
  H   H1116     1.0  0.56799  0.66693  0.46744  1.0000
  H   H1117     1.0  0.49701  0.56304  0.43033  1.0000
  S   S184      1.0  0.50879  0.49062  0.44713  1.0000
  C   C652      1.0  0.55100  0.50066  0.20421  1.0000
  C   C653      1.0  0.64877  0.97904  0.45922  1.0000
  C   C654      1.0  0.62557  0.98073  0.41416  1.0000
  C   C655      1.0  0.48526  0.97336  0.22187  1.0000
  C   C656      1.0  0.64039  0.97779  0.38659  1.0000
  Fe  Fe91      1.0  0.52287  0.97525  0.15265  1.0000
  C   C657      1.0  0.71610  0.90997  0.42382  1.0000
  H   H1118     1.0  0.71362  0.94224  0.43213  1.0000
  H   H1119     1.0  0.63378  0.97941  0.36238  1.0000
  H   H1120     1.0  0.55322  0.48494  0.20811  1.0000
  H   H1121     1.0  0.62973  0.97638  0.06371  1.0000
  H   H1122     1.0  0.50693  0.97370  0.33483  1.0000
  H   H1123     1.0  0.71931  0.93776  0.39010  1.0000
  H   H1124     1.0  0.47089  0.93786  0.37552  1.0000
  H   H1125     1.0  0.55579  0.48352  0.28606  1.0000
  H   H1126     1.0  0.51344  0.48269  0.21253  1.0000
  Fe  Fe92      1.0  0.54823  0.56421  0.87314  1.0000
  S   S185      1.0  0.56258  0.54236  0.89575  1.0000
  S   S186      1.0  0.56806  0.60321  0.88219  1.0000
  Fe  Fe93      1.0  0.51549  0.52328  0.82967  1.0000
  S   S187      1.0  0.52820  0.49952  0.85019  1.0000
  S   S188      1.0  0.48991  0.51336  0.78744  1.0000
  Fe  Fe94      1.0  0.52594  0.51450  0.89931  1.0000
  C   C658      1.0  0.54927  0.56320  0.49055  1.0000
  Fe  Fe95      1.0  0.56349  0.52973  0.84480  1.0000
  S   S189      1.0  0.59230  0.52309  0.82382  1.0000
  S   S190      1.0  0.51137  0.53713  0.87930  1.0000
  S   S191      1.0  0.55087  0.55262  0.82174  1.0000
  H   H1127     1.0  0.57530  0.73596  0.96197  1.0000
  H   H1128     1.0  0.64920  0.66907  0.52142  1.0000
  S   S192      1.0  0.68271  0.56903  0.73429  1.0000
  H   H1129     1.0  0.58228  0.86498  0.58532  1.0000
  C   C659      1.0  0.68013  0.89864  0.94675  1.0000
  Fe  Fe96      1.0  0.66650  0.89229  0.79916  1.0000
  S   S193      1.0  0.63188  0.88235  0.82069  1.0000
  S   S194      1.0  0.70014  0.91853  0.82145  1.0000
  Fe  Fe97      1.0  0.64637  0.85513  0.74419  1.0000
  S   S195      1.0  0.61028  0.84292  0.76304  1.0000
  S   S196      1.0  0.65821  0.84442  0.69682  1.0000
  Fe  Fe98      1.0  0.62000  0.88081  0.76871  1.0000
  S   S197      1.0  0.60243  0.90294  0.75581  1.0000
  Fe  Fe99      1.0  0.62582  0.84570  0.81319  1.0000
  S   S198      1.0  0.60959  0.82019  0.85524  1.0000
  S   S199      1.0  0.65539  0.89288  0.74763  1.0000
  S   S200      1.0  0.66116  0.85565  0.79392  1.0000
  Fe  Fe100     1.0  0.62869  0.74596  0.56051  1.0000
  S   S201      1.0  0.66461  0.76879  0.54320  1.0000
  S   S202      1.0  0.61209  0.75575  0.60344  1.0000
  Fe  Fe101     1.0  0.62288  0.70585  0.51379  1.0000
  H   H1130     1.0  0.62569  0.61821  0.51773  1.0000
  H   H1131     1.0  0.54743  0.94975  0.77635  1.0000
  Fe  Fe102     1.0  0.66913  0.73658  0.54613  1.0000
  S   S203      1.0  0.70098  0.73497  0.56444  1.0000
  H   H1132     1.0  0.59404  0.54392  0.73487  1.0000
  S   S204      1.0  0.65918  0.77965  0.94951  1.0000
  S   S205      1.0  0.63414  0.71443  0.56613  1.0000
  S   S206      1.0  0.61377  0.73527  0.50956  1.0000
  Fe  Fe103     1.0  0.53520  0.93726  0.62555  1.0000
  S   S207      1.0  0.53520  0.90458  0.64570  1.0000
  H   H1133     1.0  0.49422  0.57454  0.55841  1.0000
  S   S208      1.0  0.49281  0.94434  0.52702  1.0000
  H   H1134     1.0  0.56929  0.66906  0.89351  1.0000
  S   S209      1.0  0.50313  0.94163  0.62224  1.0000
  C   C660      1.0  0.63259  0.86559  0.59157  1.0000
  H   H1135     1.0  0.60889  0.66899  0.95600  1.0000
  H   H1136     1.0  0.50176  0.54672  0.95625  1.0000
  C   C661      1.0  0.58503  0.90285  0.72283  1.0000
  C   C662      1.0  0.58702  0.92405  0.71167  1.0000
  C   C663      1.0  0.57238  0.92488  0.68741  1.0000
  C   C664      1.0  0.55526  0.90445  0.67433  1.0000
  C   C665      1.0  0.55330  0.88322  0.68535  1.0000
  C   C666      1.0  0.56806  0.88239  0.70950  1.0000
  H   H1137     1.0  0.59987  0.93997  0.72211  1.0000
  H   H1138     1.0  0.57413  0.94134  0.67922  1.0000
  H   H1139     1.0  0.53991  0.86730  0.67572  1.0000
  H   H1140     1.0  0.56574  0.86596  0.71870  1.0000
  C   C667      1.0  0.64472  0.81968  0.67119  1.0000
  C   C668      1.0  0.62317  0.80147  0.67839  1.0000
  C   C669      1.0  0.61336  0.78217  0.65727  1.0000
  C   C670      1.0  0.62492  0.78080  0.62873  1.0000
  C   C671      1.0  0.64634  0.79918  0.62133  1.0000
  C   C672      1.0  0.65615  0.81845  0.64245  1.0000
  H   H1141     1.0  0.61410  0.80218  0.70030  1.0000
  H   H1142     1.0  0.59674  0.76811  0.66318  1.0000
  H   H1143     1.0  0.65535  0.79855  0.59933  1.0000
  H   H1144     1.0  0.67275  0.83251  0.63648  1.0000
  C   C673      1.0  0.62365  0.80892  0.88093  1.0000
  C   C674      1.0  0.64497  0.81031  0.87271  1.0000
  C   C675      1.0  0.65559  0.80129  0.89401  1.0000
  C   C676      1.0  0.64500  0.79066  0.92363  1.0000
  C   C677      1.0  0.62360  0.78910  0.93170  1.0000
  C   C678      1.0  0.61299  0.79811  0.91041  1.0000
  H   H1145     1.0  0.65328  0.81833  0.84997  1.0000
  H   H1146     1.0  0.67211  0.80253  0.88747  1.0000
  H   H1147     1.0  0.61531  0.78112  0.95449  1.0000
  H   H1148     1.0  0.59649  0.79691  0.91699  1.0000
  H   H1149     1.0  0.59172  0.97631  0.49990  1.0000
  C   C679      1.0  0.57559  0.56846  0.98698  1.0000
  C   C680      1.0  0.69773  0.95400  0.85924  1.0000
  C   C681      1.0  0.63935  0.89373  0.65348  1.0000
  H   H1150     1.0  0.67998  0.94719  0.85237  1.0000
  C   C682      1.0  0.70298  0.68843  0.64723  1.0000
  C   C683      1.0  0.68321  0.69114  0.64234  1.0000
  C   C684      1.0  0.68223  0.70505  0.61688  1.0000
  C   C685      1.0  0.70135  0.71715  0.59676  1.0000
  C   C686      1.0  0.66691  0.85736  0.93872  1.0000
  H   H1151     1.0  0.53298  0.50630  0.76585  1.0000
  H   H1152     1.0  0.66842  0.68208  0.65807  1.0000
  H   H1153     1.0  0.66667  0.70634  0.61283  1.0000
  C   C687      1.0  0.51146  0.91060  0.76432  1.0000
  H   H1154     1.0  0.48306  0.51223  0.56071  1.0000
  C   C688      1.0  0.56924  0.62154  0.91530  1.0000
  C   C689      1.0  0.54944  0.62031  0.93022  1.0000
  C   C690      1.0  0.55109  0.63661  0.95437  1.0000
  C   C691      1.0  0.57251  0.65438  0.96376  1.0000
  C   C692      1.0  0.59230  0.65546  0.94906  1.0000
  C   C693      1.0  0.59063  0.63929  0.92474  1.0000
  H   H1155     1.0  0.53285  0.60732  0.92232  1.0000
  H   H1156     1.0  0.51746  0.91338  0.79005  1.0000
  H   H1157     1.0  0.62556  0.85887  0.92570  1.0000
  H   H1158     1.0  0.60603  0.64066  0.91296  1.0000
  C   C694      1.0  0.61741  0.53804  0.79925  1.0000
  C   C695      1.0  0.62670  0.56143  0.79023  1.0000
  C   C696      1.0  0.64685  0.57167  0.77037  1.0000
  C   C697      1.0  0.65749  0.55841  0.75917  1.0000
  C   C698      1.0  0.64794  0.53517  0.76825  1.0000
  C   C699      1.0  0.62835  0.52521  0.78819  1.0000
  H   H1159     1.0  0.61850  0.57162  0.79865  1.0000
  H   H1160     1.0  0.65404  0.58967  0.76361  1.0000
  H   H1161     1.0  0.65592  0.52474  0.75996  1.0000
  H   H1162     1.0  0.62152  0.50723  0.79497  1.0000
  C   C700      1.0  0.63725  0.65622  0.56996  1.0000
  C   C701      1.0  0.60081  0.87965  0.63091  1.0000
  H   H1163     1.0  0.70448  0.68859  0.54553  1.0000
  H   H1164     1.0  0.70177  0.86490  0.95576  1.0000
  H   H1165     1.0  0.67931  0.56866  0.81969  1.0000
  N   N48       1.0  0.59473  0.71913  0.89104  1.0000
  C   C702      1.0  0.59302  0.72464  0.92659  1.0000
  C   C703      1.0  0.61071  0.70839  0.88834  1.0000
  C   C704      1.0  0.57174  0.70240  0.87776  1.0000
  C   C705      1.0  0.60351  0.74119  0.87176  1.0000
  C   C706      1.0  0.57427  0.73182  0.93546  1.0000
  C   C707      1.0  0.63633  0.72502  0.89282  1.0000
  C   C708      1.0  0.60701  0.73916  0.83466  1.0000
  H   H1166     1.0  0.59015  0.70979  0.94249  1.0000
  H   H1167     1.0  0.60951  0.73888  0.93505  1.0000
  H   H1168     1.0  0.60884  0.69928  0.86457  1.0000
  H   H1169     1.0  0.60624  0.69459  0.90698  1.0000
  H   H1170     1.0  0.55991  0.71031  0.87723  1.0000
  H   H1171     1.0  0.57338  0.69808  0.85177  1.0000
  H   H1172     1.0  0.59157  0.74890  0.87392  1.0000
  H   H1173     1.0  0.61967  0.75480  0.88202  1.0000
  C   C709      1.0  0.69390  0.68913  0.49626  1.0000
  H   H1174     1.0  0.68121  0.86035  0.98791  1.0000
  H   H1175     1.0  0.53349  0.53966  0.74964  1.0000
  H   H1176     1.0  0.64340  0.73730  0.87217  1.0000
  H   H1177     1.0  0.63958  0.73477  0.91608  1.0000
  H   H1178     1.0  0.64606  0.71489  0.89359  1.0000
  H   H1179     1.0  0.59136  0.73620  0.82107  1.0000
  H   H1180     1.0  0.64041  0.61102  0.54934  1.0000
  H   H1181     1.0  0.62152  0.75545  0.82585  1.0000
  N   N49       1.0  0.68239  0.76766  0.66431  1.0000
  C   C710      1.0  0.71044  0.78413  0.61509  1.0000
  C   C711      1.0  0.67119  0.77578  0.69031  1.0000
  C   C712      1.0  0.66443  0.75174  0.64089  1.0000
  C   C713      1.0  0.53303  0.48337  0.71363  1.0000
  C   C714      1.0  0.50429  0.53539  0.52246  1.0000
  C   C715      1.0  0.64439  0.73016  0.65559  1.0000
  H   H1182     1.0  0.58078  0.50154  0.76077  1.0000
  H   H1183     1.0  0.65922  0.76155  0.70603  1.0000
  C   C716      1.0  0.68545  0.74035  0.70819  1.0000
  H   H1184     1.0  0.65683  0.76132  0.62753  1.0000
  H   H1185     1.0  0.67215  0.74522  0.62171  1.0000
  H   H1186     1.0  0.70855  0.59458  0.79560  1.0000
  H   H1187     1.0  0.50290  0.95815  0.75377  1.0000
  H   H1188     1.0  0.51040  0.94611  0.70276  1.0000
  H   H1189     1.0  0.70743  0.56316  0.87501  1.0000
  C   C717      1.0  0.71325  0.62147  0.82956  1.0000
  H   H1190     1.0  0.63164  0.72136  0.63616  1.0000
  H   H1191     1.0  0.63498  0.73425  0.67509  1.0000
  H   H1192     1.0  0.65005  0.71751  0.66402  1.0000
  Fe  Fe104     1.0  0.52473  0.97746  0.64143  1.0000
  C   C718      1.0  0.69527  0.67556  0.52625  1.0000
  H   H1193     1.0  0.66673  0.73291  0.71122  1.0000
  H   H1194     1.0  0.66188  0.63627  0.58387  1.0000
  S   S210      1.0  0.70304  0.67065  0.67971  1.0000
  H   H1195     1.0  0.48332  0.89327  0.71121  1.0000
  H   H1196     1.0  0.52190  0.92653  0.69832  1.0000
  C   C719      1.0  0.69583  0.75622  0.67816  1.0000
  H   H1197     1.0  0.61155  0.72526  0.82825  1.0000
  C   C720      1.0  0.69728  0.86652  0.88078  1.0000
  H   H1198     1.0  0.64383  0.65887  0.59533  1.0000
  N   N50       1.0  0.55455  0.50151  0.72910  1.0000
  H   H1199     1.0  0.51813  0.88091  0.76048  1.0000
  H   H1200     1.0  0.54875  0.55015  0.50820  1.0000
  H   H1201     1.0  0.58063  0.83197  0.70444  1.0000
  H   H1202     1.0  0.50735  0.52135  0.51129  1.0000
  C   C721      1.0  0.56496  0.48905  0.74836  1.0000
  C   C722      1.0  0.69733  0.88600  0.90248  1.0000
  H   H1203     1.0  0.69576  0.81178  0.70138  1.0000
  H   H1204     1.0  0.63677  0.89005  0.92866  1.0000
  C   C723      1.0  0.47767  0.95596  0.50406  1.0000
  H   H1205     1.0  0.54616  0.57330  0.94509  1.0000
  C   C724      1.0  0.63775  0.91301  0.67394  1.0000
  H   H1206     1.0  0.68778  0.62298  0.55303  1.0000
  H   H1207     1.0  0.63211  0.90770  0.69941  1.0000
  S   S211      1.0  0.60857  0.66788  0.49848  1.0000
  C   C725      1.0  0.66311  0.63807  0.51422  1.0000
  H   H1208     1.0  0.54343  0.97619  0.71607  1.0000
  H   H1209     1.0  0.66422  0.89412  0.88140  1.0000
  C   C726      1.0  0.53827  0.56193  0.96655  1.0000
  H   H1210     1.0  0.65128  0.85371  0.95340  1.0000
  S   S212      1.0  0.51621  0.49355  0.94703  1.0000
  H   H1211     1.0  0.65875  0.64446  0.49156  1.0000
  H   H1212     1.0  0.62317  0.87485  0.89249  1.0000
  H   H1213     1.0  0.62653  0.91946  0.66269  1.0000
  H   H1214     1.0  0.65165  0.88905  0.66596  1.0000
  C   C727      1.0  0.54923  0.51670  0.75215  1.0000
  H   H1215     1.0  0.52505  0.96133  0.80674  1.0000
  H   H1216     1.0  0.71911  0.77353  0.62103  1.0000
  H   H1217     1.0  0.47121  0.95015  0.68398  1.0000
  H   H1218     1.0  0.57653  0.74752  0.92235  1.0000
  C   C728      1.0  0.51951  0.49196  0.69207  1.0000
  H   H1219     1.0  0.68342  0.86042  0.86253  1.0000
  H   H1220     1.0  0.65508  0.92795  0.67556  1.0000
  C   C729      1.0  0.65758  0.87865  0.89749  1.0000
  H   H1221     1.0  0.68963  0.79851  0.63644  1.0000
  H   H1222     1.0  0.54218  0.90725  0.74923  1.0000
  H   H1223     1.0  0.60589  0.58169  0.95562  1.0000
  H   H1224     1.0  0.66027  0.78260  0.67881  1.0000
  C   C730      1.0  0.49298  0.57794  0.53212  1.0000
  H   H1225     1.0  0.66667  0.68600  0.55355  1.0000
  H   H1226     1.0  0.67947  0.54317  0.83640  1.0000
  H   H1227     1.0  0.52669  0.58131  0.52879  1.0000
  H   H1228     1.0  0.71368  0.87331  0.86682  1.0000
  H   H1229     1.0  0.55682  0.71766  0.93139  1.0000
  H   H1230     1.0  0.51771  0.54357  0.54136  1.0000
  H   H1231     1.0  0.69007  0.93512  0.95406  1.0000
  H   H1232     1.0  0.70100  0.79055  0.72327  1.0000
  N   N51       1.0  0.61706  0.87241  0.64690  1.0000
  C   C731      1.0  0.68159  0.56072  0.84211  1.0000
  H   H1233     1.0  0.55125  0.94380  0.73516  1.0000
  Fe  Fe105     1.0  0.71089  0.60325  0.71494  1.0000
  H   H1234     1.0  0.61030  0.89393  0.61329  1.0000
  H   H1235     1.0  0.56435  0.86137  0.61984  1.0000
  H   H1236     1.0  0.63253  0.85114  0.57687  1.0000
  C   C732      1.0  0.69861  0.78868  0.64514  1.0000
  H   H1237     1.0  0.49629  0.95671  0.81189  1.0000
  H   H1238     1.0  0.70933  0.63048  0.80957  1.0000
  H   H1239     1.0  0.62655  0.63764  0.56530  1.0000
  H   H1240     1.0  0.66816  0.97646  0.50020  1.0000
  S   S213      1.0  0.71235  0.61669  0.66405  1.0000
  H   H1241     1.0  0.62057  0.85685  0.69153  1.0000
  H   H1242     1.0  0.66500  0.89400  0.96311  1.0000
  H   H1243     1.0  0.71170  0.65083  0.56292  1.0000
  H   H1244     1.0  0.66087  0.84275  0.92119  1.0000
  C   C733      1.0  0.54821  0.97483  0.74149  1.0000
  H   H1245     1.0  0.70688  0.66814  0.51895  1.0000
  H   H1246     1.0  0.67774  0.79642  0.73473  1.0000
  H   H1247     1.0  0.48307  0.92997  0.76538  1.0000
  H   H1248     1.0  0.69405  0.90011  0.96334  1.0000
  H   H1249     1.0  0.53566  0.63576  0.96532  1.0000
  C   C734      1.0  0.54106  0.94960  0.75121  1.0000
  C   C735      1.0  0.70442  0.57544  0.85956  1.0000
  H   H1250     1.0  0.49278  0.89872  0.76591  1.0000
  H   H1251     1.0  0.66715  0.55891  0.85827  1.0000
  S   S214      1.0  0.65847  0.72686  0.49415  1.0000
  N   N52       1.0  0.51588  0.93316  0.74876  1.0000
  C   C736      1.0  0.58497  0.83859  0.67905  1.0000
  C   C737      1.0  0.50155  0.94252  0.76624  1.0000
  N   N53       1.0  0.67551  0.88016  0.92140  1.0000
  C   C738      1.0  0.68741  0.92308  0.93328  1.0000
  H   H1252     1.0  0.64785  0.90224  0.63024  1.0000
  H   H1253     1.0  0.65069  0.87903  0.59274  1.0000
  H   H1254     1.0  0.69389  0.74951  0.73100  1.0000
  C   C739      1.0  0.63467  0.87548  0.91254  1.0000
  H   H1255     1.0  0.69826  0.77591  0.59489  1.0000
  H   H1256     1.0  0.68936  0.72549  0.70607  1.0000
  H   H1257     1.0  0.55657  0.68134  0.92214  1.0000
  H   H1258     1.0  0.62236  0.87230  0.57821  1.0000
  C   C740      1.0  0.47122  0.95992  0.70551  1.0000
  S   S215      1.0  0.55605  0.97214  0.64738  1.0000
  S   S216      1.0  0.54592  0.94931  0.57395  1.0000
  H   H1259     1.0  0.63547  0.85257  0.63850  1.0000
  C   C741      1.0  0.69403  0.63806  0.56975  1.0000
  H   H1260     1.0  0.60790  0.83942  0.62242  1.0000
  C   C742      1.0  0.64113  0.61617  0.52353  1.0000
  H   H1261     1.0  0.69514  0.63175  0.59452  1.0000
  H   H1262     1.0  0.58582  0.82460  0.66450  1.0000
  C   C743      1.0  0.47887  0.97754  0.51095  1.0000
  H   H1263     1.0  0.60489  0.54471  0.69430  1.0000
  C   C744      1.0  0.51198  0.57595  0.51193  1.0000
  H   H1264     1.0  0.59358  0.88716  0.64950  1.0000
  C   C745      1.0  0.48126  0.52288  0.54097  1.0000
  H   H1265     1.0  0.60580  0.52476  0.72293  1.0000
  C   C746      1.0  0.60781  0.86096  0.67941  1.0000
  C   C747      1.0  0.70798  0.97384  0.87978  1.0000
  C   C748      1.0  0.48979  0.98158  0.71113  1.0000
  C   C749      1.0  0.52328  0.89752  0.74762  1.0000
  S   S217      1.0  0.64000  0.71847  0.98531  1.0000
  H   H1266     1.0  0.60494  0.87273  0.69642  1.0000
  C   C750      1.0  0.59529  0.53304  0.71477  1.0000
  H   H1267     1.0  0.58294  0.58493  0.93809  1.0000
  H   H1268     1.0  0.56327  0.55382  0.74189  1.0000
  C   C751      1.0  0.55961  0.67916  0.89590  1.0000
  C   C752      1.0  0.58040  0.86097  0.61187  1.0000
  C   C753      1.0  0.50696  0.94866  0.80268  1.0000
  C   C754      1.0  0.68357  0.85496  0.96288  1.0000
  H   H1269     1.0  0.51828  0.89324  0.72173  1.0000
  H   H1270     1.0  0.70390  0.92980  0.91967  1.0000
  H   H1271     1.0  0.54357  0.53619  0.71072  1.0000
  C   C755      1.0  0.50945  0.92996  0.71310  1.0000
  H   H1272     1.0  0.54260  0.66858  0.88479  1.0000
  H   H1273     1.0  0.56517  0.52408  0.68643  1.0000
  H   H1274     1.0  0.57460  0.50293  0.68598  1.0000
  C   C756      1.0  0.57161  0.51493  0.70265  1.0000
  C   C757      1.0  0.54749  0.53754  0.73702  1.0000
  H   H1275     1.0  0.47546  0.56665  0.52360  1.0000
  H   H1276     1.0  0.57755  0.84306  0.61503  1.0000
  Fe  Fe106     1.0  0.51588  0.95722  0.57230  1.0000
  H   H1277     1.0  0.70145  0.90088  0.88594  1.0000
  C   C758      1.0  0.62277  0.85654  0.62593  1.0000
  H   H1278     1.0  0.57065  0.84180  0.67108  1.0000
  H   H1279     1.0  0.62577  0.66444  0.56859  1.0000
  H   H1280     1.0  0.50242  0.93307  0.81774  1.0000
  Fe  Fe107     1.0  0.65028  0.75680  0.49271  1.0000
  H   H1281     1.0  0.71277  0.80086  0.66085  1.0000
  H   H1282     1.0  0.56273  0.52412  0.77113  1.0000
  N   N54       1.0  0.67275  0.65710  0.53940  1.0000
  N   N55       1.0  0.50633  0.55280  0.49677  1.0000
  H   H1283     1.0  0.65314  0.86384  0.88044  1.0000
  H   H1284     1.0  0.67612  0.63273  0.50561  1.0000
  C   C759      1.0  0.65694  0.66786  0.54488  1.0000
  H   H1285     1.0  0.70210  0.55347  0.79072  1.0000
  H   H1286     1.0  0.68509  0.66370  0.58893  1.0000
  H   H1287     1.0  0.67416  0.92383  0.91757  1.0000
  H   H1288     1.0  0.52969  0.50253  0.67118  1.0000
  H   H1289     1.0  0.55593  0.58041  0.50234  1.0000
  C   C760      1.0  0.68765  0.79468  0.71359  1.0000
  C   C761      1.0  0.71069  0.94321  0.84752  1.0000
  C   C762      1.0  0.67764  0.64900  0.57145  1.0000
  H   H1290     1.0  0.47567  0.53479  0.55268  1.0000
  H   H1291     1.0  0.61022  0.96329  0.49802  1.0000
  H   H1292     1.0  0.51211  0.50133  0.70676  1.0000
  H   H1293     1.0  0.68449  0.69915  0.50192  1.0000
  H   H1294     1.0  0.69917  0.74590  0.65892  1.0000
  C   C763      1.0  0.59164  0.58584  0.96141  1.0000
  H   H1295     1.0  0.53576  0.54473  0.95771  1.0000
  H   H1296     1.0  0.47160  0.91330  0.71771  1.0000
  H   H1297     1.0  0.69732  0.61241  0.84422  1.0000
  H   H1298     1.0  0.71304  0.76960  0.68595  1.0000
  H   H1299     1.0  0.70138  0.58651  0.87787  1.0000
  H   H1300     1.0  0.68020  0.83661  0.96355  1.0000
  H   H1301     1.0  0.71237  0.89209  0.91886  1.0000
  H   H1302     1.0  0.69602  0.85175  0.89546  1.0000
  H   H1303     1.0  0.64049  0.60131  0.50923  1.0000
  C   C764      1.0  0.47829  0.48821  0.76215  1.0000
  H   H1304     1.0  0.55119  0.97602  0.96377  1.0000
  C   C765      1.0  0.48527  0.91063  0.70528  1.0000
  H   H1305     1.0  0.59953  0.60385  0.97067  1.0000
  H   H1306     1.0  0.51841  0.58991  0.49318  1.0000
  H   H1307     1.0  0.56626  0.60579  0.98122  1.0000
  H   H1308     1.0  0.48237  0.91056  0.67859  1.0000
  H   H1309     1.0  0.57134  0.55094  0.97730  1.0000
  C   C766      1.0  0.51450  0.56103  0.97126  1.0000
  H   H1310     1.0  0.51490  0.57750  0.96360  1.0000
  H   H1311     1.0  0.49503  0.59577  0.52984  1.0000
  H   H1312     1.0  0.71153  0.70196  0.48911  1.0000
  H   H1313     1.0  0.82240  0.17457  0.02218  1.0000
  S   S218      1.0  0.94407  0.39905  0.35209  1.0000
  H   H1314     1.0  0.78877  0.17029  0.99441  1.0000
  S   S219      1.0  0.94608  0.42221  0.44526  1.0000
  Fe  Fe108     1.0  0.95270  0.36938  0.35637  1.0000
  S   S220      1.0  0.93520  0.33081  0.34373  1.0000
  Fe  Fe109     1.0  0.89852  0.21468  0.18401  1.0000
  S   S221      1.0  0.87751  0.23021  0.16220  1.0000
  S   S222      1.0  0.93741  0.23225  0.17589  1.0000
  Fe  Fe110     1.0  0.85880  0.18424  0.23161  1.0000
  S   S223      1.0  0.83614  0.19845  0.21240  1.0000
  S   S224      1.0  0.84829  0.15794  0.27341  1.0000
  Fe  Fe111     1.0  0.84844  0.19376  0.16236  1.0000
  S   S225      1.0  0.82148  0.17979  0.12176  1.0000
  Fe  Fe112     1.0  0.86742  0.23320  0.21417  1.0000
  S   S226      1.0  0.86661  0.26551  0.23507  1.0000
  S   S227      1.0  0.87004  0.17786  0.18149  1.0000
  S   S228      1.0  0.88936  0.21916  0.23606  1.0000
  H   H1315     1.0  0.93724  0.26751  0.10456  1.0000
  C   C767      1.0  0.95286  0.46536  0.02318  1.0000
  H   H1316     1.0  0.86904  0.18968  0.34263  1.0000
  S   S229      1.0  0.74494  0.10589  0.46712  1.0000
  S   S230      1.0  0.78266  0.08943  0.03067  1.0000
  Fe  Fe113     1.0  0.75099  0.09428  0.41712  1.0000
  S   S231      1.0  0.76404  0.12110  0.37549  1.0000
  H   H1317     1.0  0.85033  0.20760  0.38367  1.0000
  S   S232      1.0  0.76585  0.07169  0.43671  1.0000
  C   C768      1.0  0.81093  0.15445  0.09687  1.0000
  C   C769      1.0  0.82162  0.14021  0.09510  1.0000
  C   C770      1.0  0.81270  0.12045  0.07476  1.0000
  C   C771      1.0  0.79300  0.11459  0.05590  1.0000
  C   C772      1.0  0.78223  0.12875  0.05783  1.0000
  C   C773      1.0  0.79120  0.14857  0.07806  1.0000
  H   H1318     1.0  0.83687  0.14453  0.10919  1.0000
  H   H1319     1.0  0.82119  0.10963  0.07352  1.0000
  H   H1320     1.0  0.76685  0.12429  0.04403  1.0000
  H   H1321     1.0  0.78271  0.15938  0.07929  1.0000
  C   C774      1.0  0.82472  0.14799  0.30154  1.0000
  C   C775      1.0  0.80811  0.15575  0.30071  1.0000
  C   C776      1.0  0.78979  0.14736  0.32353  1.0000
  C   C777      1.0  0.78763  0.13096  0.34736  1.0000
  C   C778      1.0  0.80421  0.12316  0.34810  1.0000
  C   C779      1.0  0.82261  0.13165  0.32537  1.0000
  H   H1322     1.0  0.80934  0.16820  0.28252  1.0000
  H   H1323     1.0  0.77707  0.15352  0.32265  1.0000
  H   H1324     1.0  0.80286  0.11057  0.36620  1.0000
  H   H1325     1.0  0.83528  0.12543  0.32627  1.0000
  C   C780      1.0  0.91715  0.31428  0.31145  1.0000
  C   C781      1.0  0.89962  0.31852  0.29935  1.0000
  C   C782      1.0  0.88426  0.30343  0.27603  1.0000
  C   C783      1.0  0.88653  0.28426  0.26404  1.0000
  C   C784      1.0  0.90429  0.28029  0.27578  1.0000
  C   C785      1.0  0.91926  0.29501  0.29966  1.0000
  H   H1326     1.0  0.89743  0.33293  0.30881  1.0000
  H   H1327     1.0  0.87046  0.30656  0.26732  1.0000
  H   H1328     1.0  0.90639  0.26575  0.26673  1.0000
  H   H1329     1.0  0.93261  0.29144  0.30908  1.0000
  H   H1330     1.0  0.95976  0.26588  0.05880  1.0000
  H   H1331     1.0  0.95624  0.21347  0.06589  1.0000
  C   C786      1.0  0.88028  0.22740  0.33976  1.0000
  H   H1332     1.0  0.94112  0.35869  0.27419  1.0000
  C   C787      1.0  0.82595  0.22041  0.29511  1.0000
  H   H1333     1.0  0.84342  0.25109  0.34600  1.0000
  H   H1334     1.0  0.76250  0.14407  0.99569  1.0000
  H   H1335     1.0  0.94423  0.29687  0.09793  1.0000
  H   H1336     1.0  0.92704  0.32682  0.23614  1.0000
  C   C788      1.0  0.96198  0.22542  0.08628  1.0000
  C   C789      1.0  0.95448  0.23694  0.14005  1.0000
  C   C790      1.0  0.94695  0.22229  0.11286  1.0000
  H   H1337     1.0  0.96237  0.38770  0.27067  1.0000
  H   H1338     1.0  0.92984  0.20801  0.11289  1.0000
  H   H1339     1.0  0.88917  0.26575  0.37976  1.0000
  N   N56       1.0  0.94177  0.37427  0.22732  1.0000
  C   C791      1.0  0.91921  0.37298  0.23851  1.0000
  C   C792      1.0  0.93640  0.35581  0.20159  1.0000
  H   H1340     1.0  0.95567  0.45399  0.29895  1.0000
  H   H1341     1.0  0.82315  0.14811  0.01092  1.0000
  C   C793      1.0  0.92064  0.39234  0.26190  1.0000
  C   C794      1.0  0.92107  0.33087  0.21303  1.0000
  Fe  Fe114     1.0  0.75836  0.08241  0.48663  1.0000
  H   H1342     1.0  0.88528  0.47397  0.02759  1.0000
  H   H1343     1.0  0.90884  0.37303  0.21716  1.0000
  H   H1344     1.0  0.90866  0.35648  0.25157  1.0000
  C   C795      1.0  0.96234  0.46003  0.27467  1.0000
  H   H1345     1.0  0.92771  0.35902  0.18044  1.0000
  H   H1346     1.0  0.94606  0.40018  0.19132  1.0000
  H   H1347     1.0  0.73833  0.00999  0.36886  1.0000
  H   H1348     1.0  0.94950  0.31456  0.03049  1.0000
  H   H1349     1.0  0.90299  0.32744  0.21590  1.0000
  H   H1350     1.0  0.90354  0.38727  0.27317  1.0000
  H   H1351     1.0  0.93281  0.39553  0.28205  1.0000
  H   H1352     1.0  0.92539  0.40871  0.24857  1.0000
  Fe  Fe115     1.0  0.96109  0.41112  0.40155  1.0000
  H   H1353     1.0  0.94487  0.46619  0.04608  1.0000
  C   C796      1.0  0.83049  0.16671  0.00567  1.0000
  C   C797      1.0  0.95381  0.37121  0.25673  1.0000
  H   H1354     1.0  0.82306  0.21757  0.26843  1.0000
  C   C798      1.0  0.95563  0.39762  0.21188  1.0000
  H   H1355     1.0  0.95589  0.28998  0.99363  1.0000
  H   H1356     1.0  0.89898  0.20724  0.33566  1.0000
  C   C799      1.0  0.85975  0.25010  0.34669  1.0000
  N   N57       1.0  0.78934  0.11050  0.19401  1.0000
  C   C800      1.0  0.78678  0.13106  0.18222  1.0000
  C   C801      1.0  0.79381  0.09914  0.16434  1.0000
  C   C802      1.0  0.80953  0.11928  0.21701  1.0000
  C   C803      1.0  0.76756  0.09457  0.21167  1.0000
  C   C804      1.0  0.78304  0.14582  0.20910  1.0000
  C   C805      1.0  0.77492  0.08989  0.13820  1.0000
  C   C806      1.0  0.82386  0.10601  0.21787  1.0000
  C   C807      1.0  0.76584  0.07139  0.22301  1.0000
  H   H1357     1.0  0.80218  0.14276  0.16777  1.0000
  H   H1358     1.0  0.77202  0.12581  0.16550  1.0000
  H   H1359     1.0  0.79664  0.08423  0.17121  1.0000
  H   H1360     1.0  0.80996  0.11148  0.15189  1.0000
  H   H1361     1.0  0.82224  0.13735  0.21087  1.0000
  H   H1362     1.0  0.80401  0.12023  0.24263  1.0000
  H   H1363     1.0  0.76512  0.10298  0.23415  1.0000
  H   H1364     1.0  0.75241  0.09076  0.19624  1.0000
  H   H1365     1.0  0.79620  0.15134  0.22836  1.0000
  H   H1366     1.0  0.78415  0.16173  0.19774  1.0000
  H   H1367     1.0  0.76578  0.13666  0.22045  1.0000
  H   H1368     1.0  0.77980  0.08082  0.11887  1.0000
  H   H1369     1.0  0.75817  0.07716  0.14826  1.0000
  H   H1370     1.0  0.77313  0.10395  0.12557  1.0000
  H   H1371     1.0  0.81347  0.08725  0.22163  1.0000
  H   H1372     1.0  0.83609  0.11269  0.23847  1.0000
  H   H1373     1.0  0.83428  0.10905  0.19515  1.0000
  H   H1374     1.0  0.76703  0.06085  0.20238  1.0000
  H   H1375     1.0  0.74886  0.06117  0.23487  1.0000
  H   H1376     1.0  0.77882  0.07393  0.24170  1.0000
  C   C808      1.0  0.84884  0.22065  0.30334  1.0000
  C   C809      1.0  0.95969  0.44642  0.47193  1.0000
  C   C810      1.0  0.81943  0.20956  0.37370  1.0000
  H   H1377     1.0  0.81358  0.21953  0.35816  1.0000
  H   H1378     1.0  0.83496  0.19040  0.34997  1.0000
  C   C811      1.0  0.94278  0.44536  0.00342  1.0000
  H   H1379     1.0  0.89281  0.24172  0.32421  1.0000
  C   C812      1.0  0.95431  0.47326  0.25681  1.0000
  C   C813      1.0  0.87038  0.25964  0.38033  1.0000
  H   H1380     1.0  0.86785  0.27497  0.38643  1.0000
  H   H1381     1.0  0.92695  0.43093  0.01129  1.0000
  H   H1382     1.0  0.84676  0.20331  0.29618  1.0000
  C   C814      1.0  0.95076  0.28406  0.09465  1.0000
  Fe  Fe116     1.0  0.72921  0.04299  0.43753  1.0000
  H   H1383     1.0  0.87984  0.20228  0.30293  1.0000
  H   H1384     1.0  0.80489  0.19185  0.37538  1.0000
  N   N58       1.0  0.85685  0.22633  0.33817  1.0000
  H   H1385     1.0  0.95199  0.35606  0.19071  1.0000
  C   C815      1.0  0.84092  0.20780  0.36129  1.0000
  H   H1386     1.0  0.87071  0.26284  0.32799  1.0000
  C   C816      1.0  0.96683  0.32033  0.04105  1.0000
  H   H1387     1.0  0.92123  0.31855  0.19419  1.0000
  H   H1388     1.0  0.95865  0.41164  0.22966  1.0000
  H   H1389     1.0  0.82588  0.23707  0.30029  1.0000
  H   H1390     1.0  0.81133  0.20587  0.30722  1.0000
  H   H1391     1.0  0.82201  0.21654  0.39902  1.0000
  H   H1392     1.0  0.86241  0.24684  0.40015  1.0000
  H   H1393     1.0  0.86198  0.23305  0.28629  1.0000
  H   H1394     1.0  0.88706  0.23127  0.36506  1.0000
  C   C817      1.0  0.72350  0.99323  0.36773  1.0000
  C   C818      1.0  0.88174  0.20524  0.32964  1.0000
  S   S233      1.0  0.96600  0.37934  0.40764  1.0000
  H   H1395     1.0  0.96389  0.38131  0.47748  1.0000
  H   H1396     1.0  0.90791  0.47090  0.04723  1.0000
  H   H1397     1.0  0.93842  0.27355  0.04589  1.0000
  C   C819      1.0  0.95520  0.28031  0.05854  1.0000
  H   H1398     1.0  0.96267  0.25634  0.00752  1.0000
  H   H1399     1.0  0.84868  0.17444  0.01319  1.0000
  H   H1400     1.0  0.96600  0.28847  0.10989  1.0000
  Fe  Fe117     1.0  0.75628  0.07503  0.98927  1.0000
  H   H1401     1.0  0.94150  0.47733  0.26766  1.0000
  H   H1402     1.0  0.96520  0.32577  0.06619  1.0000
  H   H1403     1.0  0.90098  0.45516  0.99357  1.0000
  H   H1404     1.0  0.73451  0.98300  0.32315  1.0000
  C   C820      1.0  0.96265  0.48123  0.22509  1.0000
  H   H1405     1.0  0.96495  0.34415  0.25777  1.0000
  C   C821      1.0  0.77709  0.15526  0.97964  1.0000
  S   S234      1.0  0.93459  0.40553  0.85338  1.0000
  S   S235      1.0  0.74648  0.00831  0.91222  1.0000
  S   S236      1.0  0.93888  0.41852  0.94907  1.0000
  Fe  Fe118     1.0  0.92979  0.36906  0.84894  1.0000
  S   S237      1.0  0.89757  0.33836  0.83036  1.0000
  Fe  Fe119     1.0  0.89655  0.19396  0.68726  1.0000
  S   S238      1.0  0.88489  0.21767  0.66450  1.0000
  S   S239      1.0  0.92627  0.18844  0.66685  1.0000
  Fe  Fe120     1.0  0.85688  0.17701  0.73908  1.0000
  S   S240      1.0  0.84328  0.20051  0.71899  1.0000
  S   S241      1.0  0.84410  0.15209  0.78306  1.0000
  Fe  Fe121     1.0  0.84917  0.18832  0.66907  1.0000
  S   S242      1.0  0.82600  0.18033  0.62413  1.0000
  Fe  Fe122     1.0  0.88046  0.22757  0.71617  1.0000
  S   S243      1.0  0.90118  0.26625  0.72702  1.0000
  S   S244      1.0  0.86103  0.16383  0.68933  1.0000
  S   S245      1.0  0.89372  0.20476  0.73880  1.0000
  Fe  Fe123     1.0  0.73991  0.03665  0.93560  1.0000
  H   H1406     1.0  0.92194  0.38082  0.78151  1.0000
  H   H1407     1.0  0.93321  0.35821  0.73409  1.0000
  S   S246      1.0  0.73284  0.08896  0.97082  1.0000
  S   S247      1.0  0.78118  0.09064  0.53199  1.0000
  Fe  Fe124     1.0  0.74538  0.08472  0.92034  1.0000
  S   S248      1.0  0.75663  0.11196  0.87964  1.0000
  H   H1408     1.0  0.94221  0.26385  0.90793  1.0000
  S   S249      1.0  0.76962  0.07242  0.93904  1.0000
  C   C822      1.0  0.81425  0.15535  0.59851  1.0000
  C   C823      1.0  0.81411  0.13460  0.60733  1.0000
  C   C824      1.0  0.80400  0.11508  0.58663  1.0000
  C   C825      1.0  0.79388  0.11596  0.55687  1.0000
  C   C826      1.0  0.79429  0.13680  0.54783  1.0000
  C   C827      1.0  0.80438  0.15632  0.56855  1.0000
  H   H1409     1.0  0.82154  0.13350  0.63029  1.0000
  H   H1410     1.0  0.80387  0.09909  0.59387  1.0000
  H   H1411     1.0  0.78692  0.13791  0.52483  1.0000
  H   H1412     1.0  0.80444  0.17229  0.56137  1.0000
  C   C828      1.0  0.81929  0.14091  0.80900  1.0000
  C   C829      1.0  0.80241  0.14827  0.80728  1.0000
  C   C830      1.0  0.78334  0.13910  0.82886  1.0000
  C   C831      1.0  0.78072  0.12234  0.85230  1.0000
  C   C832      1.0  0.79753  0.11486  0.85385  1.0000
  C   C833      1.0  0.81670  0.12419  0.83253  1.0000
  H   H1413     1.0  0.80410  0.16113  0.78942  1.0000
  H   H1414     1.0  0.77051  0.14509  0.82735  1.0000
  H   H1415     1.0  0.79579  0.10189  0.87148  1.0000
  H   H1416     1.0  0.82961  0.11833  0.83413  1.0000
  C   C834      1.0  0.89848  0.31828  0.80165  1.0000
  C   C835      1.0  0.87936  0.29652  0.79801  1.0000
  C   C836      1.0  0.87983  0.28015  0.77557  1.0000
  C   C837      1.0  0.89921  0.28572  0.75588  1.0000
  C   C838      1.0  0.91805  0.30770  0.75901  1.0000
  C   C839      1.0  0.91787  0.32370  0.78216  1.0000
  H   H1417     1.0  0.86422  0.29220  0.81288  1.0000
  H   H1418     1.0  0.86513  0.26337  0.77319  1.0000
  H   H1419     1.0  0.93308  0.31219  0.74378  1.0000
  H   H1420     1.0  0.93270  0.34029  0.78480  1.0000
  H   H1421     1.0  0.78537  0.05662  0.87292  1.0000
  H   H1422     1.0  0.75722  0.13551  0.63380  1.0000
  H   H1423     1.0  0.74839  0.04759  0.76661  1.0000
  H   H1424     1.0  0.94177  0.20628  0.54106  1.0000
  H   H1425     1.0  0.84943  0.17008  0.54275  1.0000
  C   C840      1.0  0.82562  0.12435  0.95942  1.0000
  C   C841      1.0  0.76316  0.04887  0.78108  1.0000
  H   H1426     1.0  0.72630  0.07479  0.60524  1.0000
  C   C842      1.0  0.94469  0.46658  0.75277  1.0000
  H   H1427     1.0  0.94460  0.44723  0.79568  1.0000
  C   C843      1.0  0.95170  0.20390  0.64303  1.0000
  H   H1428     1.0  0.93908  0.18509  0.57029  1.0000
  C   C844      1.0  0.95167  0.28286  0.90566  1.0000
  C   C845      1.0  0.73118  0.98286  0.88845  1.0000
  H   H1429     1.0  0.80658  0.04976  0.85601  1.0000
  C   C846      1.0  0.82929  0.17302  0.96953  1.0000
  S   S250      1.0  0.94219  0.36908  0.89981  1.0000
  H   H1430     1.0  0.92922  0.20615  0.58017  1.0000
  H   H1431     1.0  0.92882  0.46682  0.75941  1.0000
  H   H1432     1.0  0.76251  0.06832  0.84368  1.0000
  C   C847      1.0  0.90496  0.46183  0.96833  1.0000
  H   H1433     1.0  0.92101  0.24957  0.78950  1.0000
  H   H1434     1.0  0.76025  0.13820  0.59064  1.0000
  H   H1435     1.0  0.75151  0.99138  0.80512  1.0000
  S   S251      1.0  0.72341  0.05163  0.48933  1.0000
  H   H1436     1.0  0.94850  0.46803  0.54302  1.0000
  H   H1437     1.0  0.89468  0.34754  0.75732  1.0000
  N   N59       1.0  0.94165  0.28319  0.84449  1.0000
  C   C848      1.0  0.93475  0.37360  0.72060  1.0000
  H   H1438     1.0  0.86794  0.16940  0.50954  1.0000
  C   C849      1.0  0.89382  0.35598  0.73423  1.0000
  C   C850      1.0  0.93022  0.25721  0.84160  1.0000
  H   H1439     1.0  0.88874  0.26869  0.86104  1.0000
  H   H1440     1.0  0.77001  0.03916  0.76589  1.0000
  C   C851      1.0  0.85614  0.15949  0.52960  1.0000
  N   N60       1.0  0.81125  0.15472  0.94848  1.0000
  C   C852      1.0  0.80638  0.16639  0.91995  1.0000
  C   C853      1.0  0.95621  0.47752  0.72377  1.0000
  C   C854      1.0  0.81941  0.13820  0.93473  1.0000
  C   C855      1.0  0.95297  0.44383  0.97356  1.0000
  C   C856      1.0  0.82605  0.17855  0.89498  1.0000
  H   H1441     1.0  0.87834  0.35866  0.73695  1.0000
  H   H1442     1.0  0.78363  0.02872  0.81104  1.0000
  H   H1443     1.0  0.84111  0.14515  0.51790  1.0000
  H   H1444     1.0  0.79137  0.15382  0.90594  1.0000
  H   H1445     1.0  0.80155  0.17980  0.92866  1.0000
  H   H1446     1.0  0.74633  0.00128  0.76620  1.0000
  H   H1447     1.0  0.77638  0.12764  0.94976  1.0000
  H   H1448     1.0  0.80612  0.12547  0.91847  1.0000
  H   H1449     1.0  0.83507  0.14734  0.91945  1.0000
  H   H1450     1.0  0.84656  0.17870  0.95837  1.0000
  H   H1451     1.0  0.93821  0.42578  0.71733  1.0000
  H   H1452     1.0  0.82153  0.18922  0.87840  1.0000
  H   H1453     1.0  0.84242  0.19016  0.90686  1.0000
  H   H1454     1.0  0.82835  0.16589  0.87900  1.0000
  C   C857      1.0  0.78184  0.07419  0.78014  1.0000
  H   H1455     1.0  0.93072  0.43460  0.50490  1.0000
  C   C858      1.0  0.96047  0.22718  0.63360  1.0000
  H   H1456     1.0  0.92133  0.24866  0.86445  1.0000
  C   C859      1.0  0.72479  0.11692  0.60851  1.0000
  C   C860      1.0  0.91967  0.39138  0.76189  1.0000
  Fe  Fe125     1.0  0.95060  0.40678  0.90251  1.0000
  H   H1457     1.0  0.90159  0.33166  0.70477  1.0000
  H   H1458     1.0  0.94330  0.25104  0.83752  1.0000
  C   C861      1.0  0.95795  0.46696  0.52176  1.0000
  C   C862      1.0  0.72443  0.09251  0.56017  1.0000
  H   H1459     1.0  0.90677  0.40795  0.79691  1.0000
  C   C863      1.0  0.93044  0.19489  0.56063  1.0000
  H   H1460     1.0  0.90012  0.25397  0.81360  1.0000
  C   C864      1.0  0.79267  0.05410  0.84946  1.0000
  H   H1461     1.0  0.93596  0.40754  0.76167  1.0000
  C   C865      1.0  0.72267  0.07127  0.57884  1.0000
  C   C866      1.0  0.90113  0.39806  0.77370  1.0000
  H   H1462     1.0  0.94112  0.28815  0.79207  1.0000
  H   H1463     1.0  0.88467  0.38270  0.77923  1.0000
  H   H1464     1.0  0.88626  0.34423  0.68269  1.0000
  H   H1465     1.0  0.76971  0.16104  0.95960  1.0000
  H   H1466     1.0  0.76697  0.01930  0.84738  1.0000
  H   H1467     1.0  0.93416  0.36905  0.69419  1.0000
  N   N61       1.0  0.75570  0.03777  0.81423  1.0000
  H   H1468     1.0  0.95163  0.23693  0.64120  1.0000
  H   H1469     1.0  0.93390  0.31079  0.86013  1.0000
  H   H1470     1.0  0.75589  0.11190  0.61011  1.0000
  C   C867      1.0  0.88847  0.33785  0.70674  1.0000
  H   H1471     1.0  0.90122  0.29145  0.88960  1.0000
  C   C868      1.0  0.77441  0.03392  0.82977  1.0000
  H   H1472     1.0  0.87208  0.32244  0.71278  1.0000
  C   C869      1.0  0.91255  0.24689  0.81389  1.0000
  H   H1473     1.0  0.92110  0.42661  0.68549  1.0000
  H   H1474     1.0  0.95926  0.32870  0.81956  1.0000
  H   H1475     1.0  0.91199  0.45130  0.95553  1.0000
  C   C870      1.0  0.78883  0.14110  0.96629  1.0000
  H   H1476     1.0  0.79924  0.07543  0.78087  1.0000
  N   N62       1.0  0.88815  0.16572  0.57093  1.0000
  C   C871      1.0  0.89605  0.15159  0.59143  1.0000
  C   C872      1.0  0.90687  0.17858  0.54620  1.0000
  C   C873      1.0  0.86682  0.14907  0.55337  1.0000
  C   C874      1.0  0.88324  0.18153  0.59330  1.0000
  C   C875      1.0  0.87839  0.13477  0.61602  1.0000
  H   H1477     1.0  0.84112  0.13564  0.97342  1.0000
  C   C876      1.0  0.88417  0.20360  0.57796  1.0000
  H   H1478     1.0  0.90182  0.14120  0.57560  1.0000
  H   H1479     1.0  0.91120  0.16298  0.60620  1.0000
  C   C877      1.0  0.96344  0.19163  0.63296  1.0000
  H   H1480     1.0  0.90939  0.16615  0.52980  1.0000
  H   H1481     1.0  0.81128  0.11387  0.97610  1.0000
  H   H1482     1.0  0.85290  0.13902  0.57110  1.0000
  H   H1483     1.0  0.86616  0.17194  0.60532  1.0000
  H   H1484     1.0  0.89575  0.18768  0.61368  1.0000
  H   H1485     1.0  0.87006  0.14313  0.63084  1.0000
  H   H1486     1.0  0.86517  0.11929  0.60356  1.0000
  H   H1487     1.0  0.88728  0.12860  0.63333  1.0000
  H   H1488     1.0  0.82977  0.11192  0.94574  1.0000
  H   H1489     1.0  0.74512  0.15494  0.56021  1.0000
  H   H1490     1.0  0.95699  0.17374  0.64002  1.0000
  C   C878      1.0  0.75094  0.12603  0.61038  1.0000
  H   H1491     1.0  0.87043  0.20685  0.58918  1.0000
  H   H1492     1.0  0.88160  0.20304  0.55131  1.0000
  H   H1493     1.0  0.90041  0.21896  0.58436  1.0000
  H   H1494     1.0  0.90811  0.38204  0.67894  1.0000
  C   C879      1.0  0.95356  0.45539  0.77336  1.0000
  C   C880      1.0  0.91060  0.39153  0.70246  1.0000
  N   N63       1.0  0.91514  0.37870  0.72962  1.0000
  H   H1495     1.0  0.89860  0.40949  0.75607  1.0000
  H   H1496     1.0  0.90240  0.18907  0.52945  1.0000
  H   H1497     1.0  0.80055  0.07047  0.83573  1.0000
  H   H1498     1.0  0.77994  0.08504  0.79958  1.0000
  H   H1499     1.0  0.91677  0.29327  0.82789  1.0000
  C   C881      1.0  0.74823  0.05142  0.83701  1.0000
  C   C882      1.0  0.92489  0.29262  0.85113  1.0000
  H   H1500     1.0  0.78031  0.08230  0.75712  1.0000
  H   H1501     1.0  0.82658  0.18868  0.97051  1.0000
  C   C883      1.0  0.95976  0.29088  0.87046  1.0000
  C   C884      1.0  0.92919  0.41629  0.69534  1.0000
  C   C885      1.0  0.95368  0.29270  0.81221  1.0000
  H   H1502     1.0  0.89403  0.39205  0.70618  1.0000
  H   H1503     1.0  0.72720  0.00698  0.83338  1.0000
  H   H1504     1.0  0.90264  0.22791  0.81720  1.0000
  H   H1505     1.0  0.74755  0.13498  0.53076  1.0000
  H   H1506     1.0  0.87014  0.13614  0.53936  1.0000
  C   C886      1.0  0.90471  0.27896  0.87490  1.0000
  H   H1507     1.0  0.90738  0.26767  0.89240  1.0000
  H   H1508     1.0  0.74287  0.10369  0.55513  1.0000
  H   H1509     1.0  0.94188  0.41632  0.67713  1.0000
  H   H1510     1.0  0.88913  0.45857  0.95515  1.0000
  C   C887      1.0  0.94787  0.44805  0.50001  1.0000
  H   H1511     1.0  0.73528  0.06602  0.56839  1.0000
  C   C888      1.0  0.73521  0.01448  0.80939  1.0000
  H   H1512     1.0  0.94151  0.29119  0.91568  1.0000
  H   H1513     1.0  0.74235  0.04220  0.86077  1.0000
  H   H1514     1.0  0.96697  0.28869  0.92144  1.0000
  C   C889      1.0  0.73976  0.99601  0.79143  1.0000
  H   H1515     1.0  0.96843  0.39240  0.51761  1.0000
  H   H1516     1.0  0.96495  0.28475  0.80525  1.0000
  C   C890      1.0  0.95925  0.39252  0.72766  1.0000
  H   H1517     1.0  0.96887  0.31002  0.87214  1.0000
  C   C891      1.0  0.96845  0.31916  0.81040  1.0000
  C   C892      1.0  0.73630  0.14195  0.54087  1.0000
  C   C893      1.0  0.72907  0.05658  0.82429  1.0000
  H   H1518     1.0  0.73329  0.15142  0.52056  1.0000
  H   H1519     1.0  0.96261  0.39438  0.75433  1.0000
  S   S252      1.0  0.96395  0.37939  0.82566  1.0000
  H   H1520     1.0  0.96311  0.40951  0.71733  1.0000
  H   H1521     1.0  0.72162  0.01605  0.79532  1.0000
  H   H1522     1.0  0.73377  0.06596  0.80072  1.0000
  H   H1523     1.0  0.72626  0.06799  0.84217  1.0000
  Fe  Fe126     1.0  0.96982  0.41599  0.83287  1.0000
  H   H1524     1.0  0.72126  0.13167  0.61463  1.0000
  H   H1525     1.0  0.79042  0.13120  0.98705  1.0000
  S   S253      1.0  0.72912  0.03773  0.98774  1.0000
  Fe  Fe127     1.0  0.90149  0.65342  0.43005  1.0000
  S   S254      1.0  0.88173  0.61774  0.40875  1.0000
  S   S255      1.0  0.94014  0.67233  0.41953  1.0000
  H   H1526     1.0  0.92942  0.52964  0.44376  1.0000
  S   S256      1.0  0.83999  0.60997  0.45918  1.0000
  S   S257      1.0  0.84042  0.66027  0.03207  1.0000
  Fe  Fe128     1.0  0.87219  0.60598  0.46081  1.0000
  H   H1527     1.0  0.93412  0.70082  0.36849  1.0000
  Fe  Fe129     1.0  0.85148  0.62537  0.40896  1.0000
  S   S258      1.0  0.82417  0.61178  0.36899  1.0000
  C   C894      1.0  0.72168  0.72198  0.11950  1.0000
  S   S259      1.0  0.87167  0.66186  0.42751  1.0000
  Fe  Fe130     1.0  0.74286  0.62591  0.17010  1.0000
  S   S260      1.0  0.76516  0.66192  0.18717  1.0000
  S   S261      1.0  0.75524  0.60926  0.13016  1.0000
  Fe  Fe131     1.0  0.75378  0.64763  0.23793  1.0000
  S   S262      1.0  0.78199  0.66108  0.27665  1.0000
  C   C895      1.0  0.90168  0.48346  0.04029  1.0000
  H   H1528     1.0  0.75212  0.71753  0.00502  1.0000
  Fe  Fe132     1.0  0.93946  0.53747  0.10588  1.0000
  S   S263      1.0  0.90824  0.54230  0.09371  1.0000
  H   H1529     1.0  0.93793  0.58397  0.14700  1.0000
  Fe  Fe133     1.0  0.73347  0.66681  0.18533  1.0000
  H   H1530     1.0  0.77359  0.59807  0.43578  1.0000
  S   S264      1.0  0.94021  0.50324  0.10843  1.0000
  H   H1531     1.0  0.78831  0.68903  0.10247  1.0000
  H   H1532     1.0  0.73492  0.63683  0.09645  1.0000
  C   C896      1.0  0.77769  0.65455  0.46006  1.0000
  C   C897      1.0  0.94710  0.64955  0.05706  1.0000
  H   H1533     1.0  0.74637  0.65257  0.04055  1.0000
  C   C898      1.0  0.92202  0.58113  0.01095  1.0000
  C   C899      1.0  0.92392  0.56809  0.03695  1.0000
  C   C900      1.0  0.90716  0.55984  0.06153  1.0000
  C   C901      1.0  0.88882  0.56529  0.06028  1.0000
  C   C902      1.0  0.88717  0.57878  0.03461  1.0000
  C   C903      1.0  0.73797  0.68865  0.04056  1.0000
  H   H1534     1.0  0.93815  0.56412  0.03762  1.0000
  H   H1535     1.0  0.87570  0.55892  0.07914  1.0000
  H   H1536     1.0  0.87288  0.58269  0.03375  1.0000
  C   C904      1.0  0.81658  0.64551  0.05893  1.0000
  C   C905      1.0  0.81276  0.65796  0.08455  1.0000
  C   C906      1.0  0.79409  0.64716  0.10643  1.0000
  C   C907      1.0  0.77883  0.62374  0.10285  1.0000
  C   C908      1.0  0.78271  0.61122  0.07742  1.0000
  C   C909      1.0  0.80144  0.62201  0.05555  1.0000
  H   H1537     1.0  0.82448  0.67608  0.08763  1.0000
  H   H1538     1.0  0.79162  0.65690  0.12624  1.0000
  H   H1539     1.0  0.77113  0.59305  0.07452  1.0000
  H   H1540     1.0  0.80412  0.61216  0.03605  1.0000
  C   C910      1.0  0.81317  0.62585  0.34269  1.0000
  C   C911      1.0  0.79330  0.61240  0.32462  1.0000
  C   C912      1.0  0.78350  0.62280  0.30423  1.0000
  C   C913      1.0  0.79352  0.64685  0.30164  1.0000
  C   C914      1.0  0.81347  0.66027  0.31954  1.0000
  C   C915      1.0  0.82332  0.64987  0.33980  1.0000
  H   H1541     1.0  0.78528  0.59379  0.32670  1.0000
  H   H1542     1.0  0.76810  0.61223  0.29077  1.0000
  H   H1543     1.0  0.82144  0.67888  0.31757  1.0000
  H   H1544     1.0  0.83878  0.66044  0.35310  1.0000
  C   C916      1.0  0.72277  0.93541  0.41585  1.0000
  H   H1545     1.0  0.94443  0.61432  0.23589  1.0000
  H   H1546     1.0  0.92248  0.52003  0.03321  1.0000
  H   H1547     1.0  0.94093  0.65825  0.28865  1.0000
  C   C917      1.0  0.73680  0.65426  0.09082  1.0000
  H   H1548     1.0  0.78541  0.63082  0.38858  1.0000
  H   H1549     1.0  0.92238  0.59131  0.11814  1.0000
  C   C918      1.0  0.95866  0.69166  0.38953  1.0000
  H   H1550     1.0  0.95526  0.61600  0.28976  1.0000
  C   C919      1.0  0.95153  0.70323  0.36735  1.0000
  H   H1551     1.0  0.93688  0.50347  0.02654  1.0000
  H   H1552     1.0  0.96823  0.67757  0.24235  1.0000
  H   H1553     1.0  0.72988  0.67524  0.02125  1.0000
  C   C920      1.0  0.77655  0.63738  0.40593  1.0000
  C   C921      1.0  0.88613  0.51769  0.99215  1.0000
  H   H1554     1.0  0.73598  0.73755  0.12831  1.0000
  H   H1555     1.0  0.76077  0.62186  0.41382  1.0000
  N   N64       1.0  0.96549  0.62762  0.08788  1.0000
  H   H1556     1.0  0.80561  0.68292  0.41193  1.0000
  C   C922      1.0  0.78810  0.70579  0.10114  1.0000
  H   H1557     1.0  0.77397  0.72336  0.07296  1.0000
  H   H1558     1.0  0.77643  0.67041  0.45309  1.0000
  H   H1559     1.0  0.93481  0.58702  0.99163  1.0000
  H   H1560     1.0  0.89754  0.49009  0.06327  1.0000
  H   H1561     1.0  0.93054  0.65024  0.05575  1.0000
  H   H1562     1.0  0.96002  0.66662  0.06596  1.0000
  C   C923      1.0  0.72128  0.97787  0.34180  1.0000
  C   C924      1.0  0.93875  0.59829  0.13164  1.0000
  C   C925      1.0  0.90367  0.58656  0.00960  1.0000
  C   C926      1.0  0.76828  0.65201  0.38581  1.0000
  H   H1563     1.0  0.93128  0.61345  0.06846  1.0000
  H   H1564     1.0  0.78625  0.71017  0.12700  1.0000
  N   N65       1.0  0.79161  0.64919  0.43488  1.0000
  C   C927      1.0  0.80038  0.63305  0.44746  1.0000
  H   H1565     1.0  0.72501  0.68402  0.06055  1.0000
  C   C928      1.0  0.94412  0.62971  0.08007  1.0000
  N   N66       1.0  0.95323  0.53628  0.48327  1.0000
  H   H1566     1.0  0.75400  0.70246  0.09860  1.0000
  H   H1567     1.0  0.76059  0.66067  0.40139  1.0000
  H   H1568     1.0  0.88727  0.51755  0.01917  1.0000
  H   H1569     1.0  0.74315  0.66483  0.11330  1.0000
  H   H1570     1.0  0.80625  0.69546  0.04955  1.0000
  S   S265      1.0  0.73245  0.61094  0.22103  1.0000
  H   H1571     1.0  0.79063  0.67151  0.02220  1.0000
  C   C929      1.0  0.82971  0.68567  0.44765  1.0000
  Fe  Fe134     1.0  0.96064  0.51690  0.15476  1.0000
  H   H1572     1.0  0.78493  0.71589  0.02223  1.0000
  H   H1573     1.0  0.94056  0.63840  0.24668  1.0000
  H   H1574     1.0  0.82061  0.66677  0.40241  1.0000
  H   H1575     1.0  0.91544  0.63716  0.33178  1.0000
  H   H1576     1.0  0.95491  0.59081  0.09143  1.0000
  C   C930      1.0  0.95594  0.51608  0.46944  1.0000
  H   H1577     1.0  0.95416  0.67036  0.32584  1.0000
  H   H1578     1.0  0.75979  0.64039  0.46064  1.0000
  H   H1579     1.0  0.78987  0.59981  0.47099  1.0000
  H   H1580     1.0  0.93961  0.61208  0.14827  1.0000
  N   N67       1.0  0.81136  0.61656  0.20221  1.0000
  C   C931      1.0  0.79376  0.59434  0.21746  1.0000
  C   C932      1.0  0.83377  0.62329  0.21920  1.0000
  C   C933      1.0  0.81386  0.61155  0.16665  1.0000
  C   C934      1.0  0.80295  0.63457  0.20549  1.0000
  C   C935      1.0  0.77041  0.58258  0.20024  1.0000
  C   C936      1.0  0.83294  0.62464  0.25687  1.0000
  C   C937      1.0  0.83279  0.63107  0.14678  1.0000
  C   C938      1.0  0.82121  0.66009  0.20817  1.0000
  H   H1581     1.0  0.80039  0.58139  0.21863  1.0000
  H   H1582     1.0  0.78998  0.59727  0.24323  1.0000
  H   H1583     1.0  0.84724  0.64024  0.21057  1.0000
  H   H1584     1.0  0.84045  0.61078  0.21308  1.0000
  H   H1585     1.0  0.81701  0.59618  0.16439  1.0000
  H   H1586     1.0  0.79777  0.60703  0.15315  1.0000
  H   H1587     1.0  0.79173  0.63337  0.18462  1.0000
  H   H1588     1.0  0.79177  0.63142  0.22754  1.0000
  H   H1589     1.0  0.75771  0.56905  0.21643  1.0000
  H   H1590     1.0  0.76376  0.59496  0.19478  1.0000
  H   H1591     1.0  0.77140  0.57388  0.17724  1.0000
  H   H1592     1.0  0.82510  0.60716  0.26797  1.0000
  H   H1593     1.0  0.85060  0.63403  0.26651  1.0000
  H   H1594     1.0  0.82335  0.63388  0.26532  1.0000
  H   H1595     1.0  0.82907  0.64583  0.14377  1.0000
  H   H1596     1.0  0.83312  0.62459  0.12162  1.0000
  H   H1597     1.0  0.85009  0.63677  0.15694  1.0000
  H   H1598     1.0  0.82994  0.66390  0.23210  1.0000
  H   H1599     1.0  0.81260  0.67125  0.20690  1.0000
  H   H1600     1.0  0.83417  0.66559  0.18836  1.0000
  H   H1601     1.0  0.74136  0.94626  0.42000  1.0000
  H   H1602     1.0  0.78230  0.66490  0.37046  1.0000
  H   H1603     1.0  0.72340  0.70895  0.01813  1.0000
  C   C939      1.0  0.81154  0.67097  0.42252  1.0000
  C   C940      1.0  0.93069  0.63421  0.32824  1.0000
  C   C941      1.0  0.93043  0.55890  0.46915  1.0000
  H   H1604     1.0  0.80482  0.71902  0.09150  1.0000
  C   C942      1.0  0.75369  0.66433  0.06191  1.0000
  H   H1605     1.0  0.81135  0.63050  0.42850  1.0000
  C   C943      1.0  0.76815  0.70530  0.08120  1.0000
  H   H1606     1.0  0.76894  0.66232  0.06842  1.0000
  H   H1607     1.0  0.81177  0.64027  0.46871  1.0000
  H   H1608     1.0  0.93624  0.63250  0.35316  1.0000
  C   C944      1.0  0.95377  0.63245  0.24465  1.0000
  H   H1609     1.0  0.92506  0.61785  0.31441  1.0000
  H   H1610     1.0  0.93493  0.57371  0.45238  1.0000
  H   H1611     1.0  0.93938  0.50242  0.46014  1.0000
  H   H1612     1.0  0.96147  0.72716  0.32690  1.0000
  S   S266      1.0  0.95651  0.54947  0.15456  1.0000
  C   C945      1.0  0.94258  0.54462  0.45744  1.0000
  H   H1613     1.0  0.95117  0.64648  0.03161  1.0000
  S   S267      1.0  0.73537  0.69993  0.16427  1.0000
  C   C946      1.0  0.78180  0.60886  0.45757  1.0000
  S   S268      1.0  0.89312  0.64098  0.48223  1.0000
  N   N68       1.0  0.75969  0.68882  0.05264  1.0000
  H   H1614     1.0  0.74595  0.72540  0.04538  1.0000
  Fe  Fe135     1.0  0.86145  0.64573  0.47790  1.0000
  H   H1615     1.0  0.76859  0.60961  0.47390  1.0000
  S   S269      1.0  0.87112  0.57315  0.48176  1.0000
  C   C947      1.0  0.79674  0.69028  0.02640  1.0000
  H   H1616     1.0  0.93560  0.63177  0.10253  1.0000
  C   C948      1.0  0.94937  0.65500  0.30982  1.0000
  H   H1617     1.0  0.84401  0.70006  0.43463  1.0000
  H   H1618     1.0  0.76832  0.68958  0.00110  1.0000
  H   H1619     1.0  0.73031  0.90667  0.41479  1.0000
  C   C949      1.0  0.95936  0.60602  0.10775  1.0000
  H   H1620     1.0  0.91156  0.54847  0.46745  1.0000
  C   C950      1.0  0.77694  0.69677  0.02483  1.0000
  H   H1621     1.0  0.72192  0.87055  0.42357  1.0000
  H   H1622     1.0  0.95567  0.55509  0.43883  1.0000
  H   H1623     1.0  0.96052  0.65840  0.13515  1.0000
  S   S270      1.0  0.95225  0.49839  0.20429  1.0000
  H   H1624     1.0  0.75496  0.64055  0.36845  1.0000
  H   H1625     1.0  0.72331  0.88550  0.36442  1.0000
  H   H1626     1.0  0.96441  0.53571  0.00400  1.0000
  C   C951      1.0  0.96708  0.71814  0.34378  1.0000
  S   S271      1.0  0.72417  0.65627  0.23781  1.0000
  H   H1627     1.0  0.96299  0.61130  0.04070  1.0000
  H   H1628     1.0  0.96946  0.69565  0.27693  1.0000
  C   C952      1.0  0.74045  0.71162  0.02654  1.0000
  C   C953      1.0  0.92049  0.50383  0.02115  1.0000
  H   H1629     1.0  0.72794  0.91457  0.35713  1.0000
  H   H1630     1.0  0.80925  0.69928  0.00645  1.0000
  H   H1631     1.0  0.96936  0.63153  0.34117  1.0000
  H   H1632     1.0  0.96673  0.64272  0.22582  1.0000
  C   C954      1.0  0.96537  0.63285  0.27731  1.0000
  H   H1633     1.0  0.83736  0.67595  0.46016  1.0000
  H   H1634     1.0  0.82283  0.69376  0.46567  1.0000
  S   S272      1.0  0.89230  0.65667  0.98816  1.0000
  Fe  Fe136     1.0  0.85476  0.64789  0.98872  1.0000
  Fe  Fe137     1.0  0.89374  0.66878  0.93645  1.0000
  S   S273      1.0  0.88398  0.63421  0.91414  1.0000
  S   S274      1.0  0.92127  0.70259  0.91509  1.0000
  H   H1635     1.0  0.74381  0.94416  0.84794  1.0000
  S   S275      1.0  0.84300  0.61171  0.96915  1.0000
  S   S276      1.0  0.84958  0.66098  0.52034  1.0000
  Fe  Fe138     1.0  0.88077  0.62140  0.96604  1.0000
  C   C955      1.0  0.86055  0.61029  0.55727  1.0000
  Fe  Fe139     1.0  0.84749  0.62817  0.91904  1.0000
  S   S277      1.0  0.82347  0.61236  0.87535  1.0000
  H   H1636     1.0  0.85185  0.56451  0.55089  1.0000
  S   S278      1.0  0.85733  0.66360  0.93880  1.0000
  Fe  Fe140     1.0  0.74974  0.62496  0.66251  1.0000
  S   S279      1.0  0.76189  0.66076  0.68377  1.0000
  S   S280      1.0  0.76295  0.61323  0.61711  1.0000
  Fe  Fe141     1.0  0.75741  0.64319  0.73303  1.0000
  S   S281      1.0  0.78152  0.65854  0.77667  1.0000
  C   C956      1.0  0.95660  0.73541  0.88067  1.0000
  S   S282      1.0  0.74718  0.60808  0.71157  1.0000
  Fe  Fe142     1.0  0.95355  0.54812  0.60717  1.0000
  S   S283      1.0  0.93635  0.57052  0.59402  1.0000
  C   C957      1.0  0.93875  0.52777  0.51388  1.0000
  H   H1637     1.0  0.92681  0.68156  0.82336  1.0000
  H   H1638     1.0  0.83075  0.57997  0.51583  1.0000
  S   S284      1.0  0.94465  0.51023  0.60452  1.0000
  H   H1639     1.0  0.83962  0.62896  0.61155  1.0000
  H   H1640     1.0  0.88421  0.64676  0.55125  1.0000
  C   C958      1.0  0.92306  0.48737  0.96693  1.0000
  H   H1641     1.0  0.89335  0.50329  0.94841  1.0000
  H   H1642     1.0  0.75149  0.58352  0.81386  1.0000
  C   C959      1.0  0.88674  0.55141  0.52463  1.0000
  C   C960      1.0  0.90110  0.55036  0.54917  1.0000
  C   C961      1.0  0.91897  0.57066  0.56131  1.0000
  C   C962      1.0  0.92200  0.59198  0.54905  1.0000
  C   C963      1.0  0.90774  0.59304  0.52439  1.0000
  C   C964      1.0  0.72199  0.70021  0.62677  1.0000
  H   H1643     1.0  0.89798  0.53393  0.55937  1.0000
  H   H1644     1.0  0.93549  0.60781  0.55873  1.0000
  S   S285      1.0  0.90201  0.60234  0.97553  1.0000
  C   C965      1.0  0.82550  0.64728  0.54717  1.0000
  C   C966      1.0  0.82269  0.66001  0.57328  1.0000
  C   C967      1.0  0.80375  0.64997  0.59494  1.0000
  C   C968      1.0  0.78724  0.62703  0.59065  1.0000
  C   C969      1.0  0.79000  0.61435  0.56437  1.0000
  C   C970      1.0  0.80899  0.62435  0.54283  1.0000
  H   H1645     1.0  0.83528  0.67779  0.57685  1.0000
  H   H1646     1.0  0.80191  0.65999  0.61494  1.0000
  H   H1647     1.0  0.77733  0.59660  0.56076  1.0000
  H   H1648     1.0  0.81083  0.61430  0.52293  1.0000
  C   C971      1.0  0.81213  0.62564  0.84812  1.0000
  C   C972      1.0  0.80110  0.61381  0.81949  1.0000
  C   C973      1.0  0.79177  0.62362  0.79723  1.0000
  C   C974      1.0  0.79321  0.64538  0.80349  1.0000
  C   C975      1.0  0.80423  0.65720  0.83213  1.0000
  C   C976      1.0  0.81361  0.64742  0.85432  1.0000
  H   H1649     1.0  0.79988  0.59697  0.81438  1.0000
  H   H1650     1.0  0.78351  0.61437  0.77523  1.0000
  H   H1651     1.0  0.80541  0.67401  0.83727  1.0000
  H   H1652     1.0  0.82187  0.65668  0.87631  1.0000
  C   C977      1.0  0.94705  0.71255  0.89154  1.0000
  H   H1653     1.0  0.87286  0.53561  0.51556  1.0000
  H   H1654     1.0  0.88066  0.48362  0.98032  1.0000
  H   H1655     1.0  0.73618  0.72409  0.58661  1.0000
  H   H1656     1.0  0.92631  0.49174  0.94043  1.0000
  C   C978      1.0  0.75419  0.59310  0.88355  1.0000
  C   C979      1.0  0.82201  0.56700  0.53515  1.0000
  H   H1657     1.0  0.88087  0.58800  0.58722  1.0000
  H   H1658     1.0  0.91538  0.49122  0.50316  1.0000
  N   N69       1.0  0.84957  0.59074  0.58150  1.0000
  H   H1659     1.0  0.80696  0.56864  0.54466  1.0000
  C   C980      1.0  0.96015  0.53520  0.97777  1.0000
  H   H1660     1.0  0.85269  0.55288  0.61621  1.0000
  H   H1661     1.0  0.85429  0.61771  0.63767  1.0000
  C   C981      1.0  0.83825  0.61349  0.62460  1.0000
  H   H1662     1.0  0.94840  0.74600  0.88710  1.0000
  H   H1663     1.0  0.84754  0.61467  0.54663  1.0000
  H   H1664     1.0  0.89563  0.53560  0.98292  1.0000
  H   H1665     1.0  0.73737  0.69843  0.63048  1.0000
  H   H1666     1.0  0.76281  0.58452  0.86971  1.0000
  C   C982      1.0  0.83099  0.59280  0.60107  1.0000
  H   H1667     1.0  0.87614  0.63947  0.59265  1.0000
  H   H1668     1.0  0.72334  0.97989  0.78946  1.0000
  H   H1669     1.0  0.72583  0.57569  0.76865  1.0000
  C   C983      1.0  0.74368  0.97174  0.87689  1.0000
  H   H1670     1.0  0.75889  0.61792  0.84628  1.0000
  C   C984      1.0  0.89002  0.57273  0.51203  1.0000
  H   H1671     1.0  0.89613  0.63125  0.57293  1.0000
  H   H1672     1.0  0.73864  0.61529  0.87694  1.0000
  S   S286      1.0  0.94424  0.49137  0.69878  1.0000
  C   C985      1.0  0.91465  0.50751  0.50905  1.0000
  H   H1673     1.0  0.82851  0.55352  0.57898  1.0000
  H   H1674     1.0  0.84592  0.57052  0.64477  1.0000
  Fe  Fe143     1.0  0.72428  0.65147  0.68794  1.0000
  H   H1675     1.0  0.86797  0.60498  0.53614  1.0000
  H   H1676     1.0  0.82021  0.57676  0.61498  1.0000
  C   C986      1.0  0.89416  0.50133  0.97536  1.0000
  H   H1677     1.0  0.91044  0.60957  0.51508  1.0000
  H   H1678     1.0  0.87730  0.60593  0.61672  1.0000
  C   C987      1.0  0.83856  0.56834  0.56252  1.0000
  H   H1679     1.0  0.93228  0.53034  0.94622  1.0000
  N   N70       1.0  0.88506  0.68715  0.81826  1.0000
  C   C988      1.0  0.87207  0.69960  0.83122  1.0000
  C   C989      1.0  0.87786  0.68066  0.78322  1.0000
  C   C990      1.0  0.91019  0.70399  0.81894  1.0000
  C   C991      1.0  0.87984  0.66660  0.83987  1.0000
  C   C992      1.0  0.87807  0.70969  0.86611  1.0000
  C   C993      1.0  0.85216  0.66454  0.77815  1.0000
  C   C994      1.0  0.92694  0.69503  0.80685  1.0000
  C   C995      1.0  0.88308  0.64642  0.82467  1.0000
  H   H1680     1.0  0.87440  0.71406  0.81471  1.0000
  H   H1681     1.0  0.85337  0.68784  0.83186  1.0000
  H   H1682     1.0  0.88729  0.67238  0.77099  1.0000
  H   H1683     1.0  0.88231  0.69647  0.76842  1.0000
  H   H1684     1.0  0.91368  0.71971  0.80451  1.0000
  H   H1685     1.0  0.91567  0.71008  0.84424  1.0000
  H   H1686     1.0  0.89030  0.67219  0.86248  1.0000
  H   H1687     1.0  0.86174  0.65888  0.84861  1.0000
  H   H1688     1.0  0.89501  0.72519  0.86694  1.0000
  H   H1689     1.0  0.86526  0.71531  0.87443  1.0000
  H   H1690     1.0  0.87756  0.69680  0.88397  1.0000
  H   H1691     1.0  0.84546  0.64957  0.79489  1.0000
  H   H1692     1.0  0.84186  0.67400  0.78109  1.0000
  H   H1693     1.0  0.84939  0.65768  0.75275  1.0000
  H   H1694     1.0  0.94462  0.70949  0.80765  1.0000
  H   H1695     1.0  0.78215  0.67077  0.50813  1.0000
  H   H1696     1.0  0.89105  0.63997  0.84301  1.0000
  H   H1697     1.0  0.89422  0.65066  0.80278  1.0000
  H   H1698     1.0  0.86620  0.63154  0.81933  1.0000
  H   H1699     1.0  0.87378  0.57213  0.64342  1.0000
  H   H1700     1.0  0.94760  0.52209  0.53210  1.0000
  C   C996      1.0  0.78591  0.65757  0.49596  1.0000
  C   C997      1.0  0.74427  0.60500  0.86076  1.0000
  C   C998      1.0  0.85912  0.57006  0.62808  1.0000
  H   H1701     1.0  0.82504  0.60909  0.64420  1.0000
  C   C999      1.0  0.86767  0.58973  0.60279  1.0000
  C   C1000     1.0  0.88028  0.63306  0.56976  1.0000
  H   H1702     1.0  0.81542  0.54986  0.52302  1.0000
  H   H1703     1.0  0.76150  0.97839  0.88337  1.0000
  H   H1704     1.0  0.81852  0.59430  0.58445  1.0000
  H   H1705     1.0  0.76760  0.60647  0.89899  1.0000
  H   H1706     1.0  0.93650  0.54156  0.52671  1.0000
  C   C1001     1.0  0.73303  0.57378  0.82059  1.0000
  H   H1707     1.0  0.96566  0.52376  0.96425  1.0000
  H   H1708     1.0  0.74108  0.58062  0.90033  1.0000
  H   H1709     1.0  0.92396  0.68884  0.78122  1.0000
  C   C1002     1.0  0.73361  0.95226  0.85668  1.0000
  H   H1710     1.0  0.93173  0.54208  0.98530  1.0000
  H   H1711     1.0  0.95995  0.53870  0.72886  1.0000
  H   H1712     1.0  0.95078  0.68135  0.89087  1.0000
  C   C1003     1.0  0.93459  0.52842  0.97280  1.0000
  C   C1004     1.0  0.95799  0.69907  0.88276  1.0000
  H   H1713     1.0  0.90492  0.51120  0.49006  1.0000
  Fe  Fe144     1.0  0.96060  0.51519  0.65483  1.0000
  N   N71       1.0  0.91764  0.50472  0.98469  1.0000
  H   H1714     1.0  0.90484  0.50438  0.53237  1.0000
  C   C1005     1.0  0.96130  0.54605  0.75369  1.0000
  H   H1715     1.0  0.73728  0.61505  0.80014  1.0000
  H   H1716     1.0  0.80438  0.66338  0.49916  1.0000
  C   C1006     1.0  0.72092  0.56265  0.78838  1.0000
  S   S287      1.0  0.72106  0.63736  0.73904  1.0000
  H   H1717     1.0  0.93473  0.56626  0.49397  1.0000
  C   C1007     1.0  0.72127  0.71478  0.60201  1.0000
  H   H1718     1.0  0.95185  0.55646  0.75353  1.0000
  H   H1719     1.0  0.73160  0.55949  0.83672  1.0000
  H   H1720     1.0  0.95236  0.53185  0.77145  1.0000
  H   H1721     1.0  0.72683  0.63508  0.84436  1.0000
  H   H1722     1.0  0.72658  0.54980  0.78006  1.0000
  H   H1723     1.0  0.72375  0.80087  0.60548  1.0000
  H   H1724     1.0  0.77605  0.64147  0.51012  1.0000
  H   H1725     1.0  0.93911  0.48797  0.97627  1.0000
  H   H1726     1.0  0.96728  0.57405  0.52999  1.0000
  S   S288      1.0  0.96589  0.55182  0.65912  1.0000
  N   N72       1.0  0.72519  0.58933  0.83845  1.0000
  C   C1008     1.0  0.72128  0.60461  0.81445  1.0000
  H   H1727     1.0  0.96104  0.50770  0.48893  1.0000
  H   H1728     1.0  0.86786  0.51193  0.98628  1.0000
