data_image0
_chemical_formula_structural       HFeS2FeSHFeSFeS3FeS2FeS2FeSFeS3HCSH4CHC2HCH4C6H4C6H4C2H3C2H5NC6H8CH4NC4SCHCH11CH2CHCH5C3H5CHSNC2H3CHCHCHCH3FeH2CH3CH4C2HCNC6H4CH2SH8CH7CHCHCH3CH3CH3CH2CHFeS2FeS2HSHFeS2FeSFeS2HFeS2FeS2FeSFeS3C6HCHC3H2CH4C2H3SCH4CH3C4H4C6H8NC2H4NC8H9CHCH8NC5H8CHC2HCH3CH2CHC2FeHCHCH2C2H5CH5CH3CNHC6H10SH3CHC2H2CH3C2H4CHFeH2CH6C3H4C2HNHCH2CSHFeSHFeSFeHSFeSFeHFe2S3C2H3SC4H2C4HCH2CH2C3H3CHFeS2FeSH2FeS3FeSHFeSHFeSFeS2HC3HC6H2C8H2C2H3C3H3CHCH4SH2C2HCH5SH2CHCHNHC4HC2H7NH2CHCH11CHC4HSHCHSH3C2HSCH2C2H2CH3SH2NH4CH3S2CHCH3C2H2CH2SCFeS2FeS2FeSFeHS2H5C4H3C6H6CHCHFeS2FeS2FeSFeS3FeHSH2SC6H6NHC3HC2H2CHCH5CH4C2SH4SCHC2HCH9CHNCH3CH3CH2CHC3HCFeCHNH2NHCHCHCH2NHCH2C2HCH5CHC2HCH2CH2SHC2H4CHC2HC5H3NH3C2H6NC2H3C6H2CH2CH3CHCH3CH5CH5SH4FeS2FeS2FeSFeS4FeS2FeSHFeSFeS3C2HCH2CH2CHC2H4C5H2C6H3C7H4CH2CHFeH6CHCH2C2HCH11CH7NC8H12NH2CH2NC8H16CH5CH2CH3C4H4C2H3CH3CH6CH2CH4NC5H4CSNH3CH2C2H9CHCH5NH2CFeS2FeS2FeSFeS3HSHFeSHFeS2FeSHFeSFeS3H5C6H5C3H3N2HC3H4CH2C5H2C6H4C2HC2HC2H2C2HCH3CH5SHCHNH7CHSCHNC8H10CH11C2H3SCH5C2HC3HCH3NSCH2FeCH6CHCHC2HCH4CHCHCNSFeH7C3H3CNHFeS2FeSHFeSFeS3FeS2FeS2FeSFeS3CHSH4C4HCH2CHC6H4C6H4C2HCH2C3H3CHNH2CH2CHC3H2CH2CH7C2HC2HNC5H14SHC2NSCHCH5CH6CHNC8H9CH2CH4NC2H2CHCH3FeHCHNH3CH2SH4CH7CH5CH4CH2CH4CH2CH2CHCH3NHCH2CHCHCH5Fe2S2FeS2FeSCFeS2FeSFeS3FeS2FeS2FeSFeS3C6H3C6H2C7H5NH3C2H2CH4C6H5SCH7CH2CHC3H5CH5CNC4HC3H11CH8CHCH8C3HCHCH7CSCNC2H4CH4CHCHCH7C2HCHCH2CNHCH2CHCNHCNH5CH4CHFeSH4C2HS2HFeSHFeSFeS2FeSFeHCFeSCSCHC2H2C4H2C6H3CHC3NH2C2FeS2FeSH2FeS3FeSCFeSCFeSFeS2H4C7H4C2SC3H2C2HCH2C2H3CHCNH2CHCSFeNH3SH3NC2H2CHCH5SC2H8FeH2SH4CH7CH3CH3CH3CH12CH2C2NC8H5C3H6S2CHC3H2CHCH3CHSCFeS2FeS2FeSFeHS2HCHCHC4H3C6H7CHCFeS2FeS2FeSFeS3FeHSH2SC6H5CH2C3H2CHCH2CHCHCHCHCH10C2HC2H8CH5CH9SH3CNH5NH7C2H4C2HCH3CHC3H5CH4CH2NHCNHC2SC2H5C3HC2H3CH4CH2C2H3CHC2H5CHCFeS2FeS2FeSFeS4FeS2FeS2FeSFeS3CH2CH2CHC2HCH2CH2C2HC2H2C6H4C6H7CNC6H13CHNH2C2H3CHC2H2C2H2CHC2HC4H2CNH3CH2CHCH2C4H2C2HCHCHNHCH3NH5CH2C2H3C2HCH5CHCH4NH4SHCH2CHCH2CHCHC2H6C2H2CH2CH16CH8CH3FeS2FeS2FeSFeS3HSHFeSHFeS2FeSCFeSFeS3CH4C6H5C4HC2HCHC2H4CHC2HCH2CHC6H4C2SC2H5CH2NCHCNH2SH9NH5CH2CH3C3H7CHCH6CHCHCHCHC3HCH3CH2CH2C3HCH2CHCH2CNC8H20CHCH3CSC2HC2HCH3FeH9CHC2HCH4SH3FeHSH2C2H
_chemical_formula_sum              "H1536 Fe128 S256 C896 N64"
_cell_length_a       45.1157
_cell_length_b       45.074
_cell_length_c       39.3791
_cell_angle_alpha    90.0345
_cell_angle_beta     90.1327
_cell_angle_gamma    89.9543

_space_group_name_H-M_alt    "P 1"
_space_group_IT_number       1

loop_
  _space_group_symop_operation_xyz
  'x, y, z'

loop_
  _atom_site_type_symbol
  _atom_site_label
  _atom_site_symmetry_multiplicity
  _atom_site_fract_x
  _atom_site_fract_y
  _atom_site_fract_z
  _atom_site_occupancy
  H   H1        1.0  0.39858  0.18505  0.20669  1.0000
  Fe  Fe1       1.0  0.06679  0.09249  0.14269  1.0000
  S   S1        1.0  0.09933  0.12549  0.16418  1.0000
  S   S2        1.0  0.07330  0.06214  0.09645  1.0000
  Fe  Fe2       1.0  0.02640  0.09680  0.20638  1.0000
  S   S3        1.0  0.05600  0.12981  0.23247  1.0000
  H   H2        1.0  0.30737  0.21830  0.30904  1.0000
  Fe  Fe3       1.0  0.05853  0.15069  0.18059  1.0000
  S   S4        1.0  0.05780  0.20055  0.17470  1.0000
  Fe  Fe4       1.0  0.09445  0.10226  0.21437  1.0000
  S   S5        1.0  0.13275  0.08497  0.24694  1.0000
  S   S6        1.0  0.02620  0.11955  0.15544  1.0000
  S   S7        1.0  0.06456  0.06736  0.19202  1.0000
  Fe  Fe5       1.0  0.31124  0.14325  0.41599  1.0000
  S   S8        1.0  0.34402  0.11007  0.39571  1.0000
  S   S9        1.0  0.31915  0.17403  0.46163  1.0000
  Fe  Fe6       1.0  0.27129  0.13761  0.35187  1.0000
  S   S10       1.0  0.30147  0.10442  0.32683  1.0000
  S   S11       1.0  0.23057  0.15945  0.32801  1.0000
  Fe  Fe7       1.0  0.30355  0.08423  0.37915  1.0000
  S   S12       1.0  0.30305  0.03446  0.38709  1.0000
  Fe  Fe8       1.0  0.33955  0.13267  0.34507  1.0000
  S   S13       1.0  0.37856  0.15135  0.31482  1.0000
  S   S14       1.0  0.27094  0.11572  0.40330  1.0000
  S   S15       1.0  0.30907  0.16763  0.36616  1.0000
  H   H3        1.0  0.33210  0.28128  0.25365  1.0000
  C   C1        1.0  0.33853  0.22194  0.26749  1.0000
  S   S16       1.0  0.44249  0.27808  0.20846  1.0000
  H   H4        1.0  0.30621  0.25376  0.28916  1.0000
  H   H5        1.0  0.01430  0.02879  0.14021  1.0000
  H   H6        1.0  0.19148  0.20900  0.42196  1.0000
  H   H7        1.0  0.32190  0.21315  0.24908  1.0000
  C   C2        1.0  0.47328  0.25688  0.19579  1.0000
  H   H8        1.0  0.40848  0.24598  0.31867  1.0000
  C   C3        1.0  0.02447  0.24980  0.18763  1.0000
  C   C4        1.0  0.02485  0.21873  0.18623  1.0000
  H   H9        1.0  0.39965  0.13220  0.48341  1.0000
  C   C5        1.0  0.47576  0.22740  0.20688  1.0000
  H   H10       1.0  0.38914  0.21475  0.30420  1.0000
  H   H11       1.0  0.04440  0.26218  0.18204  1.0000
  H   H12       1.0  0.39863  0.26934  0.25934  1.0000
  H   H13       1.0  0.45836  0.21771  0.22215  1.0000
  C   C6        1.0  0.40742  0.13116  0.29448  1.0000
  C   C7        1.0  0.40508  0.10081  0.28740  1.0000
  C   C8        1.0  0.42782  0.08615  0.26938  1.0000
  C   C9        1.0  0.45319  0.10157  0.25847  1.0000
  C   C10       1.0  0.45570  0.13180  0.26596  1.0000
  C   C11       1.0  0.43295  0.14646  0.28385  1.0000
  H   H14       1.0  0.38557  0.08877  0.29536  1.0000
  H   H15       1.0  0.42566  0.06276  0.26376  1.0000
  H   H16       1.0  0.37718  0.30086  0.22450  1.0000
  H   H17       1.0  0.43518  0.16982  0.28947  1.0000
  C   C12       1.0  0.16020  0.10644  0.26815  1.0000
  C   C13       1.0  0.15696  0.13699  0.27336  1.0000
  C   C14       1.0  0.17868  0.15286  0.29174  1.0000
  C   C15       1.0  0.20386  0.13849  0.30499  1.0000
  C   C16       1.0  0.20717  0.10799  0.29962  1.0000
  C   C17       1.0  0.18550  0.09212  0.28125  1.0000
  H   H18       1.0  0.13757  0.14822  0.26357  1.0000
  H   H19       1.0  0.17597  0.17634  0.29592  1.0000
  H   H20       1.0  0.22644  0.09663  0.30961  1.0000
  H   H21       1.0  0.18847  0.06860  0.27707  1.0000
  C   C18       1.0  0.08115  0.07157  0.05336  1.0000
  C   C19       1.0  0.07727  0.10033  0.04075  1.0000
  H   H22       1.0  0.36480  0.17823  0.22885  1.0000
  H   H23       1.0  0.49268  0.30328  0.26231  1.0000
  H   H24       1.0  0.07009  0.11782  0.05766  1.0000
  C   C20       1.0  0.09040  0.04912  0.03079  1.0000
  C   C21       1.0  0.24450  0.02884  0.36752  1.0000
  H   H25       1.0  0.33655  0.24394  0.31758  1.0000
  H   H26       1.0  0.05218  0.00117  0.11303  1.0000
  H   H27       1.0  0.24545  0.05200  0.36034  1.0000
  H   H28       1.0  0.22905  0.19721  0.42573  1.0000
  H   H29       1.0  0.27516  0.21289  0.41780  1.0000
  N   N1        1.0  0.25297  0.25195  0.39798  1.0000
  C   C22       1.0  0.22290  0.24454  0.41232  1.0000
  C   C23       1.0  0.25638  0.28523  0.39756  1.0000
  C   C24       1.0  0.25622  0.24050  0.36219  1.0000
  C   C25       1.0  0.30878  0.24565  0.41131  1.0000
  C   C26       1.0  0.25738  0.30056  0.43260  1.0000
  C   C27       1.0  0.23190  0.25006  0.33687  1.0000
  H   H30       1.0  0.20516  0.25778  0.39970  1.0000
  H   H31       1.0  0.22164  0.25092  0.43959  1.0000
  H   H32       1.0  0.27651  0.29198  0.38320  1.0000
  H   H33       1.0  0.23766  0.29578  0.38369  1.0000
  H   H34       1.0  0.27747  0.24815  0.35104  1.0000
  H   H35       1.0  0.31322  0.26972  0.41366  1.0000
  H   H36       1.0  0.32369  0.23427  0.42966  1.0000
  H   H37       1.0  0.23638  0.29768  0.44677  1.0000
  C   C28       1.0  0.26931  0.01522  0.38210  1.0000
  H   H38       1.0  0.99911  0.17888  0.19245  1.0000
  H   H39       1.0  0.20974  0.24196  0.34443  1.0000
  H   H40       1.0  0.43639  0.12608  0.49899  1.0000
  H   H41       1.0  0.23116  0.27446  0.33345  1.0000
  N   N2        1.0  0.11172  0.23824  0.25937  1.0000
  C   C29       1.0  0.07822  0.23819  0.25943  1.0000
  C   C30       1.0  0.12136  0.27002  0.25479  1.0000
  C   C31       1.0  0.12212  0.22649  0.29334  1.0000
  C   C32       1.0  0.12202  0.21854  0.23076  1.0000
  S   S17       1.0  0.17143  0.31628  0.44690  1.0000
  C   C33       1.0  0.11261  0.28475  0.22084  1.0000
  H   H42       1.0  0.31525  0.23776  0.38571  1.0000
  C   C34       1.0  0.15559  0.21748  0.22374  1.0000
  H   H43       1.0  0.06946  0.25521  0.27739  1.0000
  H   H44       1.0  0.06943  0.24431  0.23409  1.0000
  H   H45       1.0  0.14568  0.27279  0.25706  1.0000
  H   H46       1.0  0.11212  0.28384  0.27565  1.0000
  H   H47       1.0  0.10680  0.23374  0.31396  1.0000
  H   H48       1.0  0.12158  0.20176  0.29361  1.0000
  H   H49       1.0  0.11544  0.19513  0.23542  1.0000
  H   H50       1.0  0.11051  0.22393  0.20650  1.0000
  H   H51       1.0  0.03873  0.21149  0.26720  1.0000
  H   H52       1.0  0.99853  0.28891  0.19787  1.0000
  H   H53       1.0  0.06849  0.20103  0.29468  1.0000
  C   C35       1.0  0.06317  0.20852  0.26856  1.0000
  H   H54       1.0  0.31209  0.11840  0.49950  1.0000
  H   H55       1.0  0.10323  0.01545  0.35570  1.0000
  C   C36       1.0  0.47761  0.00154  0.20379  1.0000
  H   H56       1.0  0.14690  0.04906  0.35548  1.0000
  C   C37       1.0  0.09249  0.32005  0.47053  1.0000
  H   H57       1.0  0.16660  0.20038  0.23966  1.0000
  H   H58       1.0  0.16687  0.23902  0.22707  1.0000
  H   H59       1.0  0.15914  0.21164  0.19662  1.0000
  H   H60       1.0  0.12154  0.30774  0.22056  1.0000
  H   H61       1.0  0.34418  0.30551  0.20037  1.0000
  C   C38       1.0  0.49578  0.26918  0.17593  1.0000
  C   C39       1.0  0.21851  0.01235  0.36178  1.0000
  C   C40       1.0  0.08014  0.02538  0.29364  1.0000
  H   H62       1.0  0.25730  0.21580  0.36188  1.0000
  H   H63       1.0  0.11853  0.06302  0.32832  1.0000
  H   H64       1.0  0.17076  0.23181  0.28684  1.0000
  H   H65       1.0  0.28786  0.01043  0.31484  1.0000
  H   H66       1.0  0.26019  0.32481  0.42869  1.0000
  C   C41       1.0  0.01877  0.29037  0.10972  1.0000
  H   H67       1.0  0.36973  0.27719  0.18835  1.0000
  S   S18       1.0  0.48097  0.08241  0.23511  1.0000
  N   N3        1.0  0.10392  0.00306  0.30263  1.0000
  C   C42       1.0  0.17438  0.32274  0.49131  1.0000
  C   C43       1.0  0.21390  0.21150  0.41073  1.0000
  H   H68       1.0  0.32374  0.31818  0.30126  1.0000
  H   H69       1.0  0.16284  0.27763  0.50360  1.0000
  H   H70       1.0  0.42139  0.22730  0.28098  1.0000
  C   C44       1.0  0.99898  0.20288  0.19342  1.0000
  H   H71       1.0  0.15891  0.22314  0.32884  1.0000
  C   C45       1.0  0.99840  0.26500  0.19620  1.0000
  H   H72       1.0  0.00836  0.29735  0.13379  1.0000
  C   C46       1.0  0.41279  0.12706  0.50663  1.0000
  H   H73       1.0  0.02873  0.02251  0.06631  1.0000
  C   C47       1.0  0.47668  0.04890  0.14867  1.0000
  H   H74       1.0  0.04972  0.30423  0.48700  1.0000
  H   H75       1.0  0.06874  0.19088  0.25013  1.0000
  H   H76       1.0  0.09356  0.02681  0.04020  1.0000
  Fe  Fe9       1.0  0.44198  0.32721  0.19736  1.0000
  H   H77       1.0  0.32364  0.25807  0.21845  1.0000
  H   H78       1.0  0.09000  0.04711  0.28639  1.0000
  C   C48       1.0  0.32141  0.23580  0.29741  1.0000
  H   H79       1.0  0.49384  0.29172  0.16691  1.0000
  H   H80       1.0  0.47505  0.14397  0.25778  1.0000
  H   H81       1.0  0.13137  0.02333  0.26401  1.0000
  C   C49       1.0  0.13459  0.04459  0.33154  1.0000
  H   H82       1.0  0.27268  0.24230  0.44721  1.0000
  H   H83       1.0  0.37184  0.27221  0.29086  1.0000
  H   H84       1.0  0.23680  0.24013  0.31166  1.0000
  H   H85       1.0  0.12222  0.27296  0.19874  1.0000
  C   C50       1.0  0.15316  0.23604  0.30569  1.0000
  C   C51       1.0  0.28821  0.00513  0.28725  1.0000
  H   H86       1.0  0.39743  0.19037  0.25140  1.0000
  C   C52       1.0  0.27640  0.23750  0.41981  1.0000
  N   N4        1.0  0.36011  0.24211  0.24955  1.0000
  C   C53       1.0  0.34238  0.26707  0.23381  1.0000
  C   C54       1.0  0.37541  0.22552  0.22113  1.0000
  C   C55       1.0  0.38236  0.25574  0.27357  1.0000
  C   C56       1.0  0.35973  0.28854  0.21055  1.0000
  C   C57       1.0  0.38445  0.19304  0.22789  1.0000
  C   C58       1.0  0.40132  0.23442  0.29513  1.0000
  H   H87       1.0  0.34949  0.20188  0.27791  1.0000
  H   H88       1.0  0.36098  0.22462  0.19812  1.0000
  H   H89       1.0  0.39580  0.23737  0.21306  1.0000
  H   H90       1.0  0.21249  0.20300  0.38436  1.0000
  C   C59       1.0  0.32318  0.16453  0.50526  1.0000
  H   H91       1.0  0.30850  0.04896  0.28488  1.0000
  H   H92       1.0  0.19949  0.02300  0.35029  1.0000
  S   S19       1.0  0.18449  0.32514  0.35299  1.0000
  H   H93       1.0  0.33010  0.02191  0.26408  1.0000
  H   H94       1.0  0.15104  0.04507  0.31079  1.0000
  H   H95       1.0  0.06574  0.02996  0.31603  1.0000
  H   H96       1.0  0.15341  0.25984  0.31313  1.0000
  H   H97       1.0  0.01587  0.20036  0.09164  1.0000
  H   H98       1.0  0.04263  0.03449  0.26042  1.0000
  H   H99       1.0  0.48254  0.07251  0.14411  1.0000
  H   H100      1.0  0.07201  0.01534  0.23966  1.0000
  C   C60       1.0  0.30696  0.02880  0.26875  1.0000
  H   H101      1.0  0.08828  0.28684  0.21776  1.0000
  H   H102      1.0  0.45783  0.04924  0.16663  1.0000
  H   H103      1.0  0.10199  0.29743  0.46835  1.0000
  H   H104      1.0  0.29664  0.03488  0.24407  1.0000
  H   H105      1.0  0.03216  0.27011  0.11420  1.0000
  H   H106      1.0  0.02600  0.23446  0.07208  1.0000
  H   H107      1.0  0.03448  0.30822  0.10241  1.0000
  C   C61       1.0  0.05958  0.01679  0.26382  1.0000
  H   H108      1.0  0.02993  0.00760  0.19029  1.0000
  C   C62       1.0  0.11928  0.01411  0.33428  1.0000
  H   H109      1.0  0.06626  0.31899  0.26293  1.0000
  C   C63       1.0  0.12481  0.00084  0.27283  1.0000
  H   H110      1.0  0.33843  0.00424  0.32656  1.0000
  H   H111      1.0  0.27629  0.29302  0.44836  1.0000
  H   H112      1.0  0.00810  0.28054  0.05751  1.0000
  C   C64       1.0  0.06604  0.32132  0.49540  1.0000
  H   H113      1.0  0.26495  0.00927  0.27917  1.0000
  H   H114      1.0  0.13664  0.99842  0.34285  1.0000
  H   H115      1.0  0.48333  0.01890  0.22288  1.0000
  C   C65       1.0  0.00687  0.22000  0.07794  1.0000
  H   H116      1.0  0.45512  0.00764  0.19474  1.0000
  H   H117      1.0  0.08466  0.32613  0.44467  1.0000
  H   H118      1.0  0.44616  0.99856  0.13519  1.0000
  C   C66       1.0  0.16843  0.29923  0.51375  1.0000
  H   H119      1.0  0.40513  0.10495  0.51530  1.0000
  H   H120      1.0  0.47002  0.03972  0.12369  1.0000
  C   C67       1.0  0.02865  0.99786  0.06633  1.0000
  H   H121      1.0  0.45868  0.17199  0.53185  1.0000
  Fe  Fe10      1.0  0.14523  0.27462  0.70973  1.0000
  S   S20       1.0  0.10628  0.29959  0.73088  1.0000
  S   S21       1.0  0.16806  0.23757  0.73891  1.0000
  Fe  Fe11      1.0  0.09274  0.30294  0.67593  1.0000
  S   S22       1.0  0.04662  0.29741  0.65481  1.0000
  S   S23       1.0  0.12989  0.27497  0.65524  1.0000
  H   H122      1.0  0.07659  0.19814  0.84922  1.0000
  S   S24       1.0  0.15023  0.04010  0.80828  1.0000
  H   H123      1.0  0.01374  0.12378  0.88178  1.0000
  Fe  Fe12      1.0  0.11843  0.06871  0.89519  1.0000
  S   S25       1.0  0.15182  0.09460  0.86447  1.0000
  S   S26       1.0  0.09604  0.09295  0.93958  1.0000
  Fe  Fe13      1.0  0.12529  0.08233  0.81849  1.0000
  S   S27       1.0  0.10990  0.11285  0.77585  1.0000
  Fe  Fe14      1.0  0.17445  0.05053  0.85676  1.0000
  S   S28       1.0  0.22451  0.04898  0.85489  1.0000
  S   S29       1.0  0.09024  0.05928  0.84916  1.0000
  H   H124      1.0  0.45975  0.13833  0.79758  1.0000
  Fe  Fe15      1.0  0.41785  0.17913  0.69291  1.0000
  S   S30       1.0  0.38440  0.20634  0.66403  1.0000
  S   S31       1.0  0.46701  0.17600  0.68369  1.0000
  Fe  Fe16      1.0  0.37238  0.14886  0.73751  1.0000
  S   S32       1.0  0.33497  0.17364  0.71258  1.0000
  S   S33       1.0  0.36310  0.11820  0.78217  1.0000
  Fe  Fe17      1.0  0.35756  0.16431  0.66279  1.0000
  S   S34       1.0  0.33287  0.14191  0.61914  1.0000
  Fe  Fe18      1.0  0.36436  0.21411  0.71583  1.0000
  S   S35       1.0  0.34305  0.25837  0.73019  1.0000
  S   S36       1.0  0.39270  0.13640  0.68778  1.0000
  S   S37       1.0  0.40004  0.18998  0.74465  1.0000
  C   C68       1.0  0.37558  0.08101  0.78644  1.0000
  C   C69       1.0  0.36900  0.06531  0.81635  1.0000
  C   C70       1.0  0.37856  0.03579  0.82082  1.0000
  C   C71       1.0  0.41511  0.17516  0.58805  1.0000
  C   C72       1.0  0.40216  0.03760  0.76584  1.0000
  C   C73       1.0  0.39185  0.06683  0.76096  1.0000
  H   H125      1.0  0.35656  0.07606  0.83634  1.0000
  C   C74       1.0  0.39549  0.02188  0.79571  1.0000
  H   H126      1.0  0.39669  0.07842  0.73760  1.0000
  C   C75       1.0  0.36025  0.28516  0.75696  1.0000
  C   C76       1.0  0.38955  0.28195  0.76810  1.0000
  C   C77       1.0  0.40264  0.30394  0.78873  1.0000
  H   H127      1.0  0.46516  0.11418  0.60800  1.0000
  H   H128      1.0  0.04556  0.01376  0.85083  1.0000
  C   C78       1.0  0.34419  0.31048  0.76698  1.0000
  H   H129      1.0  0.40213  0.26256  0.76075  1.0000
  H   H130      1.0  0.42513  0.30104  0.79736  1.0000
  H   H131      1.0  0.31718  0.10700  0.56099  1.0000
  H   H132      1.0  0.32151  0.31310  0.75863  1.0000
  C   C79       1.0  0.33444  0.18031  0.56361  1.0000
  C   C80       1.0  0.32945  0.15148  0.57550  1.0000
  H   H133      1.0  0.28513  0.03057  0.84674  1.0000
  H   H134      1.0  0.01770  0.11542  0.74517  1.0000
  H   H135      1.0  0.34057  0.19764  0.58126  1.0000
  S   S38       1.0  0.14334  0.02537  0.89100  1.0000
  C   C81       1.0  0.32127  0.12933  0.55210  1.0000
  H   H136      1.0  0.26439  0.13785  0.82707  1.0000
  H   H137      1.0  0.47510  0.28352  0.66690  1.0000
  H   H138      1.0  0.21420  0.19614  0.72621  1.0000
  H   H139      1.0  0.00929  0.15324  0.75400  1.0000
  C   C82       1.0  0.28817  0.22021  0.63312  1.0000
  H   H140      1.0  0.02818  0.04743  0.81249  1.0000
  H   H141      1.0  0.43757  0.13309  0.63371  1.0000
  H   H142      1.0  0.10298  0.03782  0.97923  1.0000
  C   C83       1.0  0.03844  0.24754  0.69445  1.0000
  C   C84       1.0  0.02666  0.26654  0.66974  1.0000
  C   C85       1.0  0.16992  0.30330  0.54924  1.0000
  C   C86       1.0  0.47107  0.23645  0.67527  1.0000
  H   H143      1.0  0.02960  0.21087  0.72818  1.0000
  H   H144      1.0  0.06096  0.25057  0.70327  1.0000
  H   H145      1.0  0.04886  0.10818  0.89182  1.0000
  H   H146      1.0  0.44717  0.23650  0.67319  1.0000
  C   C87       1.0  0.15132  0.20318  0.74919  1.0000
  C   C88       1.0  0.16449  0.18506  0.77410  1.0000
  C   C89       1.0  0.15225  0.15724  0.78242  1.0000
  C   C90       1.0  0.12703  0.14704  0.76535  1.0000
  C   C91       1.0  0.11415  0.16497  0.74006  1.0000
  C   C92       1.0  0.12600  0.19305  0.73227  1.0000
  H   H147      1.0  0.18407  0.19275  0.78735  1.0000
  H   H148      1.0  0.16226  0.14378  0.80209  1.0000
  H   H149      1.0  0.09481  0.15721  0.72648  1.0000
  H   H150      1.0  0.11582  0.20663  0.71282  1.0000
  H   H151      1.0  0.22594  0.15959  0.71868  1.0000
  H   H152      1.0  0.46160  0.31979  0.74953  1.0000
  H   H153      1.0  0.04713  0.14157  0.74696  1.0000
  H   H154      1.0  0.33484  0.20916  0.51978  1.0000
  N   N5        1.0  0.42643  0.15124  0.56458  1.0000
  C   C93       1.0  0.09157  0.08402  0.98347  1.0000
  C   C94       1.0  0.42274  0.12150  0.58163  1.0000
  H   H155      1.0  0.10903  0.28663  0.52223  1.0000
  H   H156      1.0  0.27141  0.24052  0.77059  1.0000
  H   H157      1.0  0.07355  0.26990  0.52593  1.0000
  H   H158      1.0  0.47366  0.31445  0.80639  1.0000
  N   N6        1.0  0.26921  0.09035  0.77746  1.0000
  C   C95       1.0  0.28575  0.09598  0.81025  1.0000
  C   C96       1.0  0.26855  0.05718  0.77211  1.0000
  C   C97       1.0  0.23810  0.10240  0.78164  1.0000
  C   C98       1.0  0.28535  0.10629  0.74937  1.0000
  C   C99       1.0  0.28678  0.12851  0.82257  1.0000
  C   C100      1.0  0.29897  0.04186  0.76804  1.0000
  C   C101      1.0  0.21356  0.08876  0.75922  1.0000
  C   C102      1.0  0.27450  0.10102  0.71271  1.0000
  H   H159      1.0  0.27609  0.08263  0.83131  1.0000
  H   H160      1.0  0.30922  0.08885  0.80821  1.0000
  H   H161      1.0  0.25528  0.05084  0.74958  1.0000
  H   H162      1.0  0.48221  0.19355  0.57711  1.0000
  H   H163      1.0  0.23022  0.09920  0.80824  1.0000
  H   H164      1.0  0.23762  0.12682  0.77737  1.0000
  H   H165      1.0  0.28420  0.13070  0.75322  1.0000
  H   H166      1.0  0.30956  0.10169  0.75012  1.0000
  H   H167      1.0  0.42803  0.17647  0.61193  1.0000
  C   C103      1.0  0.40674  0.15132  0.53344  1.0000
  H   H168      1.0  0.39217  0.16984  0.59654  1.0000
  C   C104      1.0  0.38671  0.32938  0.79858  1.0000
  H   H169      1.0  0.43445  0.09453  0.62525  1.0000
  H   H170      1.0  0.23425  0.32883  0.78052  1.0000
  H   H171      1.0  0.42953  0.12587  0.74763  1.0000
  H   H172      1.0  0.21905  0.08887  0.73192  1.0000
  H   H173      1.0  0.19284  0.10184  0.76245  1.0000
  H   H174      1.0  0.25610  0.11628  0.70609  1.0000
  H   H175      1.0  0.26780  0.07791  0.70751  1.0000
  H   H176      1.0  0.29320  0.10514  0.69496  1.0000
  N   N7        1.0  0.03590  0.15364  0.82071  1.0000
  C   C105      1.0  0.05135  0.14105  0.85164  1.0000
  C   C106      1.0  0.05695  0.17551  0.80465  1.0000
  C   C107      1.0  0.02968  0.12813  0.79672  1.0000
  C   C108      1.0  0.00746  0.16805  0.83216  1.0000
  C   C109      1.0  0.06415  0.20347  0.82569  1.0000
  H   H177      1.0  0.38312  0.14902  0.54083  1.0000
  H   H178      1.0  0.31226  0.05157  0.74719  1.0000
  H   H179      1.0  0.07367  0.13216  0.84471  1.0000
  H   H180      1.0  0.05552  0.15852  0.87102  1.0000
  H   H181      1.0  0.04898  0.18357  0.77969  1.0000
  H   H182      1.0  0.07833  0.16444  0.79904  1.0000
  H   H183      1.0  0.04808  0.11159  0.79753  1.0000
  H   H184      1.0  0.00948  0.11583  0.80471  1.0000
  C   C110      1.0  0.47971  0.16921  0.58048  1.0000
  H   H185      1.0  0.23932  0.32008  0.72522  1.0000
  C   C111      1.0  0.33119  0.18677  0.52871  1.0000
  C   C112      1.0  0.47093  0.13692  0.77238  1.0000
  H   H186      1.0  0.07884  0.21805  0.81039  1.0000
  C   C113      1.0  0.02566  0.13551  0.75874  1.0000
  H   H187      1.0  0.00369  0.19739  0.78667  1.0000
  H   H188      1.0  0.47677  0.26657  0.79227  1.0000
  H   H189      1.0  0.29537  0.01810  0.76175  1.0000
  C   C114      1.0  0.45201  0.11613  0.75009  1.0000
  H   H190      1.0  0.01549  0.02243  0.77947  1.0000
  H   H191      1.0  0.04402  0.21653  0.83174  1.0000
  C   C115      1.0  0.28329  0.23213  0.66943  1.0000
  H   H192      1.0  0.30164  0.22309  0.68514  1.0000
  C   C116      1.0  0.44121  0.11607  0.61394  1.0000
  C   C117      1.0  0.48415  0.32616  0.74062  1.0000
  Fe  Fe19      1.0  0.11749  0.01780  0.84255  1.0000
  H   H193      1.0  0.31195  0.04210  0.79197  1.0000
  C   C118      1.0  0.31840  0.13571  0.51716  1.0000
  H   H194      1.0  0.48843  0.31227  0.71779  1.0000
  C   C119      1.0  0.48625  0.20982  0.68068  1.0000
  H   H195      1.0  0.16592  0.28483  0.56612  1.0000
  H   H196      1.0  0.31005  0.22814  0.62394  1.0000
  C   C120      1.0  0.27274  0.01192  0.85639  1.0000
  C   C121      1.0  0.48692  0.26307  0.67179  1.0000
  H   H197      1.0  0.03072  0.09640  0.85401  1.0000
  H   H198      1.0  0.46862  0.15930  0.76069  1.0000
  H   H199      1.0  0.23066  0.28401  0.67715  1.0000
  H   H200      1.0  0.28752  0.25647  0.66895  1.0000
  H   H201      1.0  0.25702  0.04622  0.79365  1.0000
  C   C122      1.0  0.08220  0.10640  0.00602  1.0000
  H   H202      1.0  0.03718  0.32967  0.72609  1.0000
  H   H203      1.0  0.07880  0.12867  0.99657  1.0000
  H   H204      1.0  0.11359  0.29281  0.58386  1.0000
  H   H205      1.0  0.45370  0.03087  0.90045  1.0000
  H   H206      1.0  0.37337  0.02403  0.84401  1.0000
  C   C123      1.0  0.08799  0.28766  0.53668  1.0000
  H   H207      1.0  0.39896  0.11780  0.58829  1.0000
  H   H208      1.0  0.41517  0.02698  0.74624  1.0000
  H   H209      1.0  0.20835  0.06579  0.76752  1.0000
  C   C124      1.0  0.41437  0.20680  0.57305  1.0000
  N   N8        1.0  0.25371  0.22526  0.68538  1.0000
  H   H210      1.0  0.20361  0.17858  0.68713  1.0000
  C   C125      1.0  0.25270  0.24050  0.71956  1.0000
  C   C126      1.0  0.22846  0.23654  0.66381  1.0000
  C   C127      1.0  0.25057  0.19210  0.68867  1.0000
  C   C128      1.0  0.27025  0.22530  0.74841  1.0000
  C   C129      1.0  0.22981  0.26970  0.65432  1.0000
  C   C130      1.0  0.22186  0.18115  0.70591  1.0000
  H   H211      1.0  0.22958  0.24336  0.72864  1.0000
  H   H212      1.0  0.26139  0.26357  0.71770  1.0000
  H   H213      1.0  0.22641  0.22357  0.63985  1.0000
  H   H214      1.0  0.20690  0.23317  0.67702  1.0000
  H   H215      1.0  0.25064  0.18142  0.66320  1.0000
  H   H216      1.0  0.26999  0.18195  0.70168  1.0000
  H   H217      1.0  0.27133  0.22843  0.61489  1.0000
  H   H218      1.0  0.29870  0.12922  0.84728  1.0000
  H   H219      1.0  0.29328  0.22011  0.74100  1.0000
  H   H220      1.0  0.44886  0.09409  0.76201  1.0000
  S   S39       1.0  0.17254  0.31582  0.70269  1.0000
  H   H221      1.0  0.01112  0.18271  0.85457  1.0000
  H   H222      1.0  0.47427  0.16441  0.60722  1.0000
  H   H223      1.0  0.24876  0.27476  0.63743  1.0000
  C   C131      1.0  0.03479  0.11597  0.87042  1.0000
  H   H224      1.0  0.20933  0.27576  0.64015  1.0000
  C   C132      1.0  0.02593  0.00903  0.86692  1.0000
  C   C133      1.0  0.17777  0.33092  0.56272  1.0000
  H   H225      1.0  0.41134  0.22310  0.59394  1.0000
  H   H226      1.0  0.28912  0.19563  0.63241  1.0000
  C   C134      1.0  0.09583  0.05531  0.99615  1.0000
  H   H227      1.0  0.29944  0.14289  0.80497  1.0000
  H   H228      1.0  0.25921  0.20472  0.75714  1.0000
  H   H229      1.0  0.46117  0.11372  0.72412  1.0000
  C   C135      1.0  0.02062  0.22511  0.70863  1.0000
  C   C136      1.0  0.24235  0.01490  0.86323  1.0000
  H   H230      1.0  0.46795  0.13513  0.54406  1.0000
  H   H231      1.0  0.42898  0.10312  0.56426  1.0000
  H   H232      1.0  0.02036  0.03081  0.87861  1.0000
  H   H233      1.0  0.39526  0.20965  0.55554  1.0000
  C   C137      1.0  0.45812  0.15621  0.55363  1.0000
  H   H234      1.0  0.43513  0.21263  0.55969  1.0000
  Fe  Fe20      1.0  0.15350  0.31868  0.65001  1.0000
  H   H235      1.0  0.01207  0.30290  0.76586  1.0000
  H   H236      1.0  0.49098  0.19099  0.79676  1.0000
  C   C138      1.0  0.09631  0.27817  0.57298  1.0000
  H   H237      1.0  0.42517  0.00721  0.91635  1.0000
  H   H238      1.0  0.43113  0.00856  0.87183  1.0000
  H   H239      1.0  0.10616  0.25559  0.57206  1.0000
  H   H240      1.0  0.46790  0.00260  0.83527  1.0000
  H   H241      1.0  0.00038  0.28134  0.73074  1.0000
  H   H242      1.0  0.47264  0.26878  0.74653  1.0000
  C   C139      1.0  0.48860  0.26553  0.76766  1.0000
  C   C140      1.0  0.44272  0.00914  0.89669  1.0000
  C   C141      1.0  0.99756  0.26222  0.65831  1.0000
  H   H243      1.0  0.07694  0.27670  0.59013  1.0000
  H   H244      1.0  0.40834  0.17277  0.51958  1.0000
  H   H245      1.0  0.03039  0.29862  0.54367  1.0000
  H   H246      1.0  0.48952  0.09495  0.81250  1.0000
  C   C142      1.0  0.04447  0.31767  0.55184  1.0000
  C   C143      1.0  0.00841  0.03777  0.79992  1.0000
  H   H247      1.0  0.04763  0.31404  0.57941  1.0000
  N   N9        1.0  0.07340  0.31758  0.53265  1.0000
  H   H248      1.0  0.49544  0.08125  0.77057  1.0000
  C   C144      1.0  0.49489  0.32641  0.80259  1.0000
  H   H249      1.0  0.49729  0.24261  0.76486  1.0000
  H   H250      1.0  0.05680  0.99860  0.90763  1.0000
  C   C145      1.0  0.34402  0.55082  0.46248  1.0000
  S   S40       1.0  0.14728  0.38159  0.38160  1.0000
  H   H251      1.0  0.30988  0.58251  0.45079  1.0000
  Fe  Fe21      1.0  0.22252  0.35582  0.34220  1.0000
  S   S41       1.0  0.19309  0.38896  0.31568  1.0000
  H   H252      1.0  0.17039  0.45654  0.25904  1.0000
  Fe  Fe22      1.0  0.18792  0.40833  0.36808  1.0000
  S   S42       1.0  0.18693  0.45817  0.37471  1.0000
  Fe  Fe23      1.0  0.15451  0.36008  0.33083  1.0000
  H   H253      1.0  0.02186  0.34239  0.23701  1.0000
  S   S43       1.0  0.21997  0.37720  0.39382  1.0000
  Fe  Fe24      1.0  0.44312  0.37796  0.14630  1.0000
  S   S44       1.0  0.45473  0.38926  0.09128  1.0000
  Fe  Fe25      1.0  0.46863  0.38626  0.21829  1.0000
  H   H254      1.0  0.13557  0.44662  0.32301  1.0000
  Fe  Fe26      1.0  0.17988  0.34860  0.40310  1.0000
  Fe  Fe27      1.0  0.40130  0.37995  0.20780  1.0000
  S   S45       1.0  0.35702  0.39874  0.22529  1.0000
  S   S46       1.0  0.47913  0.35455  0.17615  1.0000
  S   S47       1.0  0.43532  0.41189  0.18724  1.0000
  C   C146      1.0  0.42869  0.39777  0.05881  1.0000
  C   C147      1.0  0.40080  0.40959  0.06625  1.0000
  H   H255      1.0  0.14404  0.51171  0.19273  1.0000
  H   H256      1.0  0.45851  0.38524  0.01857  1.0000
  H   H257      1.0  0.39409  0.41230  0.09243  1.0000
  S   S48       1.0  0.24112  0.66082  0.31733  1.0000
  C   C148      1.0  0.22074  0.47714  0.36958  1.0000
  C   C149      1.0  0.22106  0.50825  0.37074  1.0000
  C   C150      1.0  0.27415  0.47736  0.36207  1.0000
  C   C151      1.0  0.24731  0.46173  0.36476  1.0000
  H   H258      1.0  0.29468  0.46523  0.35928  1.0000
  H   H259      1.0  0.24726  0.43773  0.36375  1.0000
  C   C152      1.0  0.03485  0.38686  0.25015  1.0000
  C   C153      1.0  0.05675  0.40422  0.26620  1.0000
  C   C154      1.0  0.08206  0.39094  0.28099  1.0000
  C   C155      1.0  0.08578  0.36012  0.27973  1.0000
  H   H260      1.0  0.01427  0.54799  0.18340  1.0000
  C   C156      1.0  0.03851  0.35605  0.24916  1.0000
  H   H261      1.0  0.05412  0.42806  0.26714  1.0000
  H   H262      1.0  0.09880  0.40446  0.29306  1.0000
  C   C157      1.0  0.35522  0.47897  0.26284  1.0000
  H   H263      1.0  0.12781  0.52811  0.24748  1.0000
  H   H264      1.0  0.12228  0.48043  0.34276  1.0000
  C   C158      1.0  0.28474  0.38074  0.28338  1.0000
  C   C159      1.0  0.30514  0.39437  0.26129  1.0000
  C   C160      1.0  0.33220  0.38056  0.25328  1.0000
  H   H265      1.0  0.00256  0.65972  0.25885  1.0000
  H   H266      1.0  0.26390  0.39151  0.28910  1.0000
  H   H267      1.0  0.29980  0.41564  0.25014  1.0000
  C   C161      1.0  0.48030  0.49330  0.21970  1.0000
  H   H268      1.0  0.09719  0.45560  0.32249  1.0000
  Fe  Fe28      1.0  0.06202  0.61900  0.14159  1.0000
  S   S49       1.0  0.09718  0.64920  0.16335  1.0000
  S   S50       1.0  0.05186  0.60897  0.08567  1.0000
  Fe  Fe29      1.0  0.03089  0.61201  0.21110  1.0000
  S   S51       1.0  0.06408  0.64101  0.23781  1.0000
  H   H269      1.0  0.41304  0.43287  0.29680  1.0000
  H   H270      1.0  0.03120  0.50393  0.12620  1.0000
  Fe  Fe30      1.0  0.09893  0.61726  0.20754  1.0000
  S   S52       1.0  0.13987  0.59566  0.23144  1.0000
  S   S53       1.0  0.02422  0.64292  0.16745  1.0000
  S   S54       1.0  0.06601  0.58562  0.18384  1.0000
  Fe  Fe31      1.0  0.31164  0.63093  0.41060  1.0000
  S   S55       1.0  0.34636  0.60003  0.38996  1.0000
  H   H271      1.0  0.34960  0.53286  0.48055  1.0000
  Fe  Fe32      1.0  0.27923  0.63502  0.34150  1.0000
  S   S56       1.0  0.31167  0.60461  0.31533  1.0000
  H   H272      1.0  0.25887  0.58323  0.46594  1.0000
  Fe  Fe33      1.0  0.30845  0.57741  0.36318  1.0000
  S   S57       1.0  0.30872  0.52726  0.36271  1.0000
  Fe  Fe34      1.0  0.34712  0.62940  0.34379  1.0000
  S   S58       1.0  0.38985  0.64765  0.32139  1.0000
  S   S59       1.0  0.27350  0.60584  0.38724  1.0000
  H   H273      1.0  0.38746  0.51751  0.35400  1.0000
  C   C162      1.0  0.29119  0.35304  0.29761  1.0000
  C   C163      1.0  0.33890  0.35310  0.26798  1.0000
  C   C164      1.0  0.14841  0.49652  0.21441  1.0000
  H   H274      1.0  0.36305  0.56646  0.46188  1.0000
  C   C165      1.0  0.41434  0.62779  0.29440  1.0000
  C   C166      1.0  0.40765  0.59936  0.28240  1.0000
  C   C167      1.0  0.42784  0.58425  0.26122  1.0000
  C   C168      1.0  0.45471  0.59756  0.25147  1.0000
  C   C169      1.0  0.46116  0.62620  0.26303  1.0000
  C   C170      1.0  0.44114  0.64114  0.28450  1.0000
  H   H275      1.0  0.38687  0.58914  0.28933  1.0000
  H   H276      1.0  0.42258  0.56221  0.25219  1.0000
  C   C171      1.0  0.00456  0.50125  0.18482  1.0000
  C   C172      1.0  0.37102  0.51837  0.30084  1.0000
  C   C173      1.0  0.16755  0.61446  0.25540  1.0000
  C   C174      1.0  0.16678  0.64516  0.26076  1.0000
  C   C175      1.0  0.31580  0.56800  0.47265  1.0000
  C   C176      1.0  0.21291  0.64252  0.29373  1.0000
  C   C177      1.0  0.21356  0.61183  0.28852  1.0000
  C   C178      1.0  0.19108  0.59795  0.26938  1.0000
  H   H277      1.0  0.23153  0.59881  0.29901  1.0000
  H   H278      1.0  0.19213  0.57432  0.26518  1.0000
  C   C179      1.0  0.07341  0.59481  0.05136  1.0000
  C   C180      1.0  0.09923  0.57816  0.05648  1.0000
  H   H279      1.0  0.40555  0.51841  0.02716  1.0000
  H   H280      1.0  0.36780  0.63816  0.47092  1.0000
  H   H281      1.0  0.10736  0.57458  0.08200  1.0000
  C   C181      1.0  0.06305  0.59889  0.01791  1.0000
  C   C182      1.0  0.24781  0.52390  0.36734  1.0000
  C   C183      1.0  0.27450  0.50846  0.36359  1.0000
  H   H282      1.0  0.20064  0.52033  0.37473  1.0000
  H   H283      1.0  0.24778  0.54784  0.36835  1.0000
  H   H284      1.0  0.13072  0.47950  0.21430  1.0000
  C   C184      1.0  0.31844  0.33940  0.28998  1.0000
  H   H285      1.0  0.11437  0.53248  0.32452  1.0000
  C   C185      1.0  0.25430  0.51016  0.45552  1.0000
  H   H286      1.0  0.23369  0.52320  0.45161  1.0000
  H   H287      1.0  0.25329  0.49807  0.47995  1.0000
  H   H288      1.0  0.33027  0.43436  0.31842  1.0000
  H   H289      1.0  0.32225  0.58380  0.49286  1.0000
  S   S60       1.0  0.11769  0.34208  0.29659  1.0000
  H   H290      1.0  0.02564  0.55116  0.07020  1.0000
  H   H291      1.0  0.34189  0.54145  0.43649  1.0000
  C   C186      1.0  0.35921  0.64464  0.49546  1.0000
  C   C187      1.0  0.38989  0.53070  0.33043  1.0000
  H   H292      1.0  0.37628  0.53182  0.27787  1.0000
  C   C188      1.0  0.32187  0.48599  0.26677  1.0000
  H   H293      1.0  0.21999  0.46944  0.25563  1.0000
  H   H294      1.0  0.35984  0.34251  0.26245  1.0000
  H   H295      1.0  0.34632  0.47954  0.33735  1.0000
  H   H296      1.0  0.46965  0.47123  0.21745  1.0000
  H   H297      1.0  0.44661  0.66309  0.29368  1.0000
  S   S61       1.0  0.30329  0.64605  0.46515  1.0000
  H   H298      1.0  0.20836  0.54723  0.02357  1.0000
  H   H299      1.0  0.38217  0.55350  0.33655  1.0000
  C   C189      1.0  0.02626  0.52738  0.11961  1.0000
  H   H300      1.0  0.27922  0.54373  0.42902  1.0000
  C   C190      1.0  0.41510  0.44825  0.27499  1.0000
  H   H301      1.0  0.11845  0.46456  0.26646  1.0000
  N   N10       1.0  0.15163  0.49728  0.27999  1.0000
  H   H302      1.0  0.36179  0.42215  0.34104  1.0000
  C   C191      1.0  0.14866  0.51482  0.24750  1.0000
  C   C192      1.0  0.15918  0.51829  0.30848  1.0000
  C   C193      1.0  0.17587  0.47436  0.27763  1.0000
  C   C194      1.0  0.26325  0.56917  0.48874  1.0000
  H   H303      1.0  0.36393  0.42464  0.29623  1.0000
  C   C195      1.0  0.13572  0.54222  0.31629  1.0000
  C   C196      1.0  0.20732  0.48631  0.27020  1.0000
  H   H304      1.0  0.17021  0.48593  0.20962  1.0000
  H   H305      1.0  0.41361  0.53263  0.32338  1.0000
  H   H306      1.0  0.16643  0.53176  0.24510  1.0000
  H   H307      1.0  0.35671  0.45549  0.25509  1.0000
  H   H308      1.0  0.16379  0.50597  0.33233  1.0000
  H   H309      1.0  0.18015  0.53035  0.30296  1.0000
  H   H310      1.0  0.17801  0.46207  0.30196  1.0000
  N   N11       1.0  0.37426  0.48560  0.29346  1.0000
  H   H311      1.0  0.47765  0.45938  0.15250  1.0000
  H   H312      1.0  0.01637  0.51193  0.06777  1.0000
  C   C197      1.0  0.12261  0.48161  0.28636  1.0000
  H   H313      1.0  0.30721  0.50890  0.50437  1.0000
  C   C198      1.0  0.11975  0.46536  0.32071  1.0000
  H   H314      1.0  0.31267  0.47797  0.29115  1.0000
  H   H315      1.0  0.18694  0.36866  0.48781  1.0000
  H   H316      1.0  0.14391  0.55628  0.33750  1.0000
  H   H317      1.0  0.21934  0.49109  0.29427  1.0000
  H   H318      1.0  0.20742  0.50663  0.25449  1.0000
  H   H319      1.0  0.04436  0.54091  0.13114  1.0000
  H   H320      1.0  0.36333  0.49148  0.24029  1.0000
  H   H321      1.0  0.46593  0.50505  0.04672  1.0000
  H   H322      1.0  0.47920  0.50863  0.16846  1.0000
  H   H323      1.0  0.02825  0.49541  0.18132  1.0000
  H   H324      1.0  0.25465  0.49307  0.43518  1.0000
  C   C199      1.0  0.32886  0.64993  0.49934  1.0000
  H   H325      1.0  0.30069  0.51441  0.44639  1.0000
  C   C200      1.0  0.06381  0.34282  0.26381  1.0000
  C   C201      1.0  0.28215  0.52989  0.45225  1.0000
  C   C202      1.0  0.38179  0.41869  0.03975  1.0000
  C   C203      1.0  0.03011  0.52888  0.08079  1.0000
  H   H326      1.0  0.48173  0.63670  0.25572  1.0000
  S   S62       1.0  0.43391  0.35724  0.24201  1.0000
  H   H327      1.0  0.24276  0.55603  0.49294  1.0000
  C   C204      1.0  0.11418  0.56548  0.02849  1.0000
  H   H328      1.0  0.05357  0.52379  0.07450  1.0000
  S   S63       1.0  0.47967  0.57752  0.22522  1.0000
  H   H329      1.0  0.13203  0.55722  0.29436  1.0000
  H   H330      1.0  0.10360  0.49729  0.28433  1.0000
  H   H331      1.0  0.45236  0.53471  0.02184  1.0000
  C   C205      1.0  0.43706  0.39457  0.02458  1.0000
  C   C206      1.0  0.35486  0.43576  0.31890  1.0000
  H   H332      1.0  0.43889  0.44792  0.26769  1.0000
  S   S64       1.0  0.00342  0.40440  0.23147  1.0000
  C   C207      1.0  0.29568  0.52952  0.51279  1.0000
  H   H333      1.0  0.14886  0.65812  0.25007  1.0000
  H   H334      1.0  0.31755  0.51015  0.26440  1.0000
  C   C208      1.0  0.36517  0.46819  0.32453  1.0000
  C   C209      1.0  0.18941  0.65911  0.27975  1.0000
  H   H335      1.0  0.47255  0.45477  0.04479  1.0000
  H   H336      1.0  0.36051  0.42838  0.04584  1.0000
  C   C210      1.0  0.40639  0.48016  0.28480  1.0000
  H   H337      1.0  0.41335  0.49488  0.26349  1.0000
  H   H338      1.0  0.46252  0.50977  0.22489  1.0000
  H   H339      1.0  0.30936  0.47490  0.24600  1.0000
  S   S65       1.0  0.26575  0.33454  0.32459  1.0000
  H   H340      1.0  0.40263  0.43984  0.25275  1.0000
  H   H341      1.0  0.49521  0.49372  0.24215  1.0000
  N   N12       1.0  0.28955  0.54919  0.48252  1.0000
  H   H342      1.0  0.42101  0.48584  0.30662  1.0000
  H   H343      1.0  0.34773  0.52396  0.30727  1.0000
  H   H344      1.0  0.38351  0.46773  0.34348  1.0000
  H   H345      1.0  0.19012  0.51168  0.01867  1.0000
  C   C211      1.0  0.99764  0.53284  0.17175  1.0000
  H   H346      1.0  0.00048  0.50052  0.21264  1.0000
  H   H347      1.0  0.01143  0.58232  0.13735  1.0000
  H   H348      1.0  0.13383  0.55225  0.03283  1.0000
  S   S66       1.0  0.31499  0.66228  0.36642  1.0000
  S   S67       1.0  0.40666  0.34778  0.16446  1.0000
  C   C212      1.0  0.18213  0.35040  0.50475  1.0000
  H   H349      1.0  0.49587  0.43834  0.18447  1.0000
  C   C213      1.0  0.49680  0.50248  0.18702  1.0000
  H   H350      1.0  0.05531  0.34317  0.49068  1.0000
  H   H351      1.0  0.11021  0.33606  0.47725  1.0000
  H   H352      1.0  0.42930  0.46903  0.02697  1.0000
  C   C214      1.0  0.46766  0.51536  0.02114  1.0000
  C   C215      1.0  0.48926  0.45332  0.02433  1.0000
  H   H353      1.0  0.49280  0.42929  0.01946  1.0000
  H   H354      1.0  0.49511  0.48958  0.10700  1.0000
  C   C216      1.0  0.00170  0.59616  0.76730  1.0000
  H   H355      1.0  0.04900  0.58684  0.75798  1.0000
  H   H356      1.0  0.41907  0.48970  0.93377  1.0000
  S   S68       1.0  0.14504  0.37620  0.76000  1.0000
  C   C217      1.0  0.22005  0.56346  0.92866  1.0000
  Fe  Fe35      1.0  0.36912  0.42818  0.91568  1.0000
  S   S69       1.0  0.34389  0.39451  0.88474  1.0000
  S   S70       1.0  0.36662  0.43054  0.97359  1.0000
  Fe  Fe36      1.0  0.38475  0.46486  0.85222  1.0000
  S   S71       1.0  0.36110  0.43390  0.81651  1.0000
  S   S72       1.0  0.41085  0.50554  0.83581  1.0000
  Fe  Fe37      1.0  0.32550  0.43377  0.85644  1.0000
  S   S73       1.0  0.27657  0.43480  0.84414  1.0000
  Fe  Fe38      1.0  0.38142  0.39702  0.84728  1.0000
  H   H357      1.0  0.30895  0.40501  0.77470  1.0000
  S   S74       1.0  0.34765  0.46734  0.88986  1.0000
  S   S75       1.0  0.40830  0.42818  0.88044  1.0000
  H   H358      1.0  0.06295  0.48881  0.87630  1.0000
  H   H359      1.0  0.02926  0.64659  0.79182  1.0000
  H   H360      1.0  0.31317  0.37330  0.74818  1.0000
  H   H361      1.0  0.00601  0.52349  0.88525  1.0000
  H   H362      1.0  0.35041  0.51184  0.81047  1.0000
  C   C218      1.0  0.21530  0.49989  0.83427  1.0000
  C   C219      1.0  0.22917  0.47206  0.83633  1.0000
  C   C220      1.0  0.26004  0.46998  0.83997  1.0000
  C   C221      1.0  0.27703  0.49590  0.84110  1.0000
  H   H363      1.0  0.19152  0.50124  0.83132  1.0000
  H   H364      1.0  0.21584  0.45215  0.83555  1.0000
  H   H365      1.0  0.30085  0.49452  0.84366  1.0000
  C   C222      1.0  0.12654  0.40950  0.77147  1.0000
  C   C223      1.0  0.09802  0.41643  0.75981  1.0000
  C   C224      1.0  0.08410  0.44295  0.77034  1.0000
  C   C225      1.0  0.09872  0.46294  0.79214  1.0000
  C   C226      1.0  0.12724  0.45602  0.80364  1.0000
  C   C227      1.0  0.14093  0.42936  0.79359  1.0000
  H   H366      1.0  0.08669  0.40132  0.74284  1.0000
  H   H367      1.0  0.06205  0.44813  0.76129  1.0000
  H   H368      1.0  0.13871  0.47111  0.82050  1.0000
  H   H369      1.0  0.16283  0.42416  0.80305  1.0000
  H   H370      1.0  0.40209  0.64435  0.51998  1.0000
  H   H371      1.0  0.18173  0.53549  0.93466  1.0000
  C   C228      1.0  0.39020  0.41567  0.00554  1.0000
  H   H372      1.0  0.25198  0.63476  0.71057  1.0000
  C   C229      1.0  0.48898  0.47787  0.84780  1.0000
  H   H373      1.0  0.27531  0.47957  0.97187  1.0000
  Fe  Fe39      1.0  0.10612  0.53171  0.83360  1.0000
  S   S76       1.0  0.13155  0.56620  0.80453  1.0000
  S   S77       1.0  0.08049  0.49592  0.80521  1.0000
  Fe  Fe40      1.0  0.12017  0.56041  0.90343  1.0000
  S   S78       1.0  0.14664  0.59689  0.87891  1.0000
  S   S79       1.0  0.12285  0.55196  0.96084  1.0000
  Fe  Fe41      1.0  0.11030  0.59904  0.83973  1.0000
  S   S80       1.0  0.08819  0.64142  0.82085  1.0000
  Fe  Fe42      1.0  0.16564  0.56102  0.84578  1.0000
  S   S81       1.0  0.21504  0.56095  0.83609  1.0000
  S   S82       1.0  0.08205  0.56484  0.86652  1.0000
  S   S83       1.0  0.14174  0.52421  0.87240  1.0000
  Fe  Fe43      1.0  0.37194  0.64123  0.71578  1.0000
  H   H374      1.0  0.39973  0.51652  0.98153  1.0000
  S   S84       1.0  0.34904  0.60194  0.74062  1.0000
  H   H375      1.0  0.14571  0.64131  0.78648  1.0000
  H   H376      1.0  0.24450  0.49454  0.90386  1.0000
  S   S85       1.0  0.41085  0.63920  0.68051  1.0000
  C   C230      1.0  0.36695  0.57526  0.76662  1.0000
  C   C231      1.0  0.35028  0.55154  0.77966  1.0000
  C   C232      1.0  0.36353  0.53001  0.80069  1.0000
  C   C233      1.0  0.39357  0.53212  0.80913  1.0000
  C   C234      1.0  0.41028  0.55590  0.79620  1.0000
  C   C235      1.0  0.39709  0.57728  0.77481  1.0000
  H   H377      1.0  0.32699  0.54971  0.77341  1.0000
  H   H378      1.0  0.43349  0.55775  0.80266  1.0000
  H   H379      1.0  0.41015  0.59526  0.76458  1.0000
  H   H380      1.0  0.08299  0.37112  0.58654  1.0000
  H   H381      1.0  0.19069  0.37567  0.55038  1.0000
  H   H382      1.0  0.01504  0.61348  0.70648  1.0000
  N   N13       1.0  0.99803  0.62776  0.75529  1.0000
  H   H383      1.0  0.48021  0.63524  0.57112  1.0000
  C   C236      1.0  0.21551  0.64065  0.80760  1.0000
  C   C237      1.0  0.23220  0.52584  0.83607  1.0000
  C   C238      1.0  0.26311  0.52377  0.83922  1.0000
  H   H384      1.0  0.27636  0.54369  0.84075  1.0000
  C   C239      1.0  0.03287  0.58672  0.77916  1.0000
  C   C240      1.0  0.10390  0.56973  0.99501  1.0000
  H   H385      1.0  0.24480  0.53692  0.98350  1.0000
  H   H386      1.0  0.47939  0.37494  0.74688  1.0000
  C   C241      1.0  0.02063  0.34789  0.72462  1.0000
  H   H387      1.0  0.04304  0.61160  0.01362  1.0000
  C   C242      1.0  0.04867  0.64221  0.72781  1.0000
  H   H388      1.0  0.30693  0.53430  0.56640  1.0000
  H   H389      1.0  0.27214  0.60394  0.83479  1.0000
  H   H390      1.0  0.44547  0.50684  0.90676  1.0000
  H   H391      1.0  0.20072  0.37265  0.82592  1.0000
  H   H392      1.0  0.18437  0.48039  0.89775  1.0000
  C   C243      1.0  0.28232  0.63256  0.79112  1.0000
  H   H393      1.0  0.02036  0.48289  0.91624  1.0000
  H   H394      1.0  0.47165  0.45116  0.97341  1.0000
  H   H395      1.0  0.47814  0.46565  0.76266  1.0000
  H   H396      1.0  0.20110  0.34817  0.77083  1.0000
  C   C244      1.0  0.28126  0.60188  0.80872  1.0000
  C   C245      1.0  0.01573  0.63329  0.72338  1.0000
  S   S86       1.0  0.11537  0.34683  0.66759  1.0000
  H   H397      1.0  0.22787  0.40875  0.80148  1.0000
  H   H398      1.0  0.17740  0.49008  0.96102  1.0000
  H   H399      1.0  0.47844  0.45760  0.85846  1.0000
  H   H400      1.0  0.01503  0.44588  0.90369  1.0000
  S   S87       1.0  0.40479  0.35702  0.82347  1.0000
  C   C246      1.0  0.23976  0.43215  0.75699  1.0000
  H   H401      1.0  0.11868  0.35506  0.58851  1.0000
  C   C247      1.0  0.27246  0.37338  0.77871  1.0000
  C   C248      1.0  0.13380  0.66113  0.77915  1.0000
  H   H402      1.0  0.00789  0.34584  0.56777  1.0000
  C   C249      1.0  0.20070  0.53038  0.00492  1.0000
  H   H403      1.0  0.27984  0.34987  0.78113  1.0000
  H   H404      1.0  0.17622  0.44841  0.92263  1.0000
  H   H405      1.0  0.20452  0.52608  0.90035  1.0000
  H   H406      1.0  0.42463  0.40081  0.97186  1.0000
  H   H407      1.0  0.05835  0.45066  0.86248  1.0000
  H   H408      1.0  0.46201  0.35969  0.71014  1.0000
  H   H409      1.0  0.43150  0.64011  0.84626  1.0000
  H   H410      1.0  0.04109  0.60008  0.80080  1.0000
  H   H411      1.0  0.34472  0.35173  0.79543  1.0000
  C   C250      1.0  0.00189  0.42823  0.83450  1.0000
  H   H412      1.0  0.48001  0.51667  0.95189  1.0000
  N   N14       1.0  0.45853  0.49391  0.99365  1.0000
  C   C251      1.0  0.35728  0.33242  0.78780  1.0000
  H   H413      1.0  0.01634  0.41833  0.81466  1.0000
  H   H414      1.0  0.21221  0.63210  0.75389  1.0000
  H   H415      1.0  0.26441  0.57741  0.54383  1.0000
  C   C252      1.0  0.00536  0.51116  0.86074  1.0000
  H   H416      1.0  0.46576  0.36540  0.80152  1.0000
  H   H417      1.0  0.05929  0.63494  0.75165  1.0000
  H   H418      1.0  0.49252  0.61548  0.85042  1.0000
  C   C253      1.0  0.22735  0.51946  0.98365  1.0000
  H   H419      1.0  0.20752  0.46631  0.97020  1.0000
  H   H420      1.0  0.27374  0.58676  0.70055  1.0000
  C   C254      1.0  0.19323  0.46571  0.91785  1.0000
  H   H421      1.0  0.47810  0.52818  0.78104  1.0000
  C   C255      1.0  0.49313  0.64965  0.55381  1.0000
  C   C256      1.0  0.41785  0.40324  0.99804  1.0000
  C   C257      1.0  0.24866  0.50009  0.93091  1.0000
  H   H422      1.0  0.23954  0.43125  0.72892  1.0000
  C   C258      1.0  0.02560  0.34605  0.54819  1.0000
  Fe  Fe44      1.0  0.13261  0.34112  0.72068  1.0000
  C   C259      1.0  0.36791  0.65665  0.55551  1.0000
  H   H423      1.0  0.20277  0.40359  0.76700  1.0000
  N   N15       1.0  0.22020  0.50869  0.94838  1.0000
  H   H424      1.0  0.22574  0.45145  0.76412  1.0000
  H   H425      1.0  0.28504  0.46852  0.92992  1.0000
  N   N16       1.0  0.24104  0.37480  0.76555  1.0000
  H   H426      1.0  0.28994  0.63413  0.72320  1.0000
  C   C260      1.0  0.23876  0.36902  0.72789  1.0000
  H   H427      1.0  0.23755  0.50133  0.99888  1.0000
  C   C261      1.0  0.40287  0.50341  0.00504  1.0000
  H   H428      1.0  0.26432  0.51910  0.93018  1.0000
  C   C262      1.0  0.07834  0.58675  0.98989  1.0000
  H   H429      1.0  0.18347  0.54171  0.98969  1.0000
  H   H430      1.0  0.30484  0.63511  0.77998  1.0000
  N   N17       1.0  0.48893  0.65204  0.81437  1.0000
  H   H431      1.0  0.24557  0.60495  0.51951  1.0000
  C   C263      1.0  0.26740  0.62649  0.73063  1.0000
  H   H432      1.0  0.43258  0.44494  0.81076  1.0000
  H   H433      1.0  0.38198  0.49084  0.00916  1.0000
  C   C264      1.0  0.20538  0.53258  0.92753  1.0000
  C   C265      1.0  0.33749  0.66152  0.55948  1.0000
  H   H434      1.0  0.46154  0.61365  0.80246  1.0000
  C   C266      1.0  0.25207  0.33934  0.71567  1.0000
  H   H435      1.0  0.45631  0.48540  0.79147  1.0000
  H   H436      1.0  0.00529  0.65153  0.70852  1.0000
  H   H437      1.0  0.22812  0.60325  0.77766  1.0000
  H   H438      1.0  0.28485  0.60452  0.51905  1.0000
  H   H439      1.0  0.47127  0.49497  0.84870  1.0000
  C   C267      1.0  0.31516  0.54264  0.54160  1.0000
  H   H440      1.0  0.02757  0.51486  0.84919  1.0000
  C   C268      1.0  0.44320  0.49333  0.93021  1.0000
  C   C269      1.0  0.05430  0.46665  0.88338  1.0000
  H   H441      1.0  0.27361  0.38218  0.80504  1.0000
  C   C270      1.0  0.29664  0.38951  0.75783  1.0000
  H   H442      1.0  0.21506  0.36960  0.71968  1.0000
  H   H443      1.0  0.26896  0.58440  0.79509  1.0000
  C   C271      1.0  0.22674  0.40421  0.77377  1.0000
  H   H444      1.0  0.46524  0.42321  0.81697  1.0000
  H   H445      1.0  0.28655  0.58280  0.74275  1.0000
  S   S88       1.0  0.18247  0.33640  0.60712  1.0000
  H   H446      1.0  0.47859  0.64454  0.66195  1.0000
  C   C272      1.0  0.48189  0.35809  0.72677  1.0000
  C   C273      1.0  0.31815  0.65832  0.53150  1.0000
  H   H447      1.0  0.20789  0.57847  0.91111  1.0000
  H   H448      1.0  0.28867  0.40267  0.73607  1.0000
  H   H449      1.0  0.47648  0.64752  0.86711  1.0000
  H   H450      1.0  0.24699  0.58166  0.73311  1.0000
  C   C274      1.0  0.26516  0.58999  0.51965  1.0000
  H   H451      1.0  0.27447  0.52208  0.52445  1.0000
  C   C275      1.0  0.00487  0.46238  0.83340  1.0000
  C   C276      1.0  0.22853  0.62764  0.77459  1.0000
  H   H452      1.0  0.48831  0.36194  0.83911  1.0000
  C   C277      1.0  0.09531  0.35026  0.58141  1.0000
  C   C278      1.0  0.26842  0.59246  0.72731  1.0000
  C   C279      1.0  0.22325  0.35081  0.78304  1.0000
  C   C280      1.0  0.21757  0.35511  0.82140  1.0000
  C   C281      1.0  0.09406  0.34232  0.54319  1.0000
  H   H453      1.0  0.03877  0.36651  0.55201  1.0000
  H   H454      1.0  0.07005  0.59016  0.96439  1.0000
  H   H455      1.0  0.06763  0.45900  0.90546  1.0000
  N   N18       1.0  0.25879  0.63903  0.76477  1.0000
  H   H456      1.0  0.29471  0.66251  0.53482  1.0000
  H   H457      1.0  0.23810  0.36021  0.83576  1.0000
  H   H458      1.0  0.26223  0.43721  0.76685  1.0000
  C   C282      1.0  0.49299  0.65657  0.64372  1.0000
  C   C283      1.0  0.42867  0.48106  0.00236  1.0000
  H   H459      1.0  0.41270  0.63631  0.80676  1.0000
  H   H460      1.0  0.03195  0.56341  0.78829  1.0000
  H   H461      1.0  0.30427  0.59348  0.81190  1.0000
  H   H462      1.0  0.24935  0.38655  0.71257  1.0000
  H   H463      1.0  0.45421  0.47176  0.92545  1.0000
  H   H464      1.0  0.24335  0.56285  0.91989  1.0000
  N   N19       1.0  0.00013  0.47849  0.86650  1.0000
  C   C284      1.0  0.26594  0.47388  0.94664  1.0000
  C   C285      1.0  0.19937  0.48268  0.95118  1.0000
  H   H465      1.0  0.25253  0.45339  0.94849  1.0000
  H   H466      1.0  0.21323  0.45413  0.90824  1.0000
  H   H467      1.0  0.31533  0.56708  0.54355  1.0000
  C   C286      1.0  0.37861  0.64815  0.52336  1.0000
  C   C287      1.0  0.48043  0.46873  0.99060  1.0000
  C   C288      1.0  0.48803  0.35902  0.81109  1.0000
  C   C289      1.0  0.02137  0.46804  0.89366  1.0000
  C   C290      1.0  0.00586  0.64875  0.78381  1.0000
  C   C291      1.0  0.45732  0.51032  0.96026  1.0000
  H   H468      1.0  0.02643  0.46821  0.82155  1.0000
  H   H469      1.0  0.11709  0.33738  0.53486  1.0000
  C   C292      1.0  0.18411  0.35434  0.54026  1.0000
  H   H470      1.0  0.06184  0.63221  0.70692  1.0000
  H   H471      1.0  0.02901  0.36370  0.70524  1.0000
  C   C293      1.0  0.49432  0.64011  0.84962  1.0000
  H   H472      1.0  0.27573  0.33700  0.72288  1.0000
  H   H473      1.0  0.21864  0.57363  0.95425  1.0000
  H   H474      1.0  0.44899  0.42564  0.77575  1.0000
  C   C294      1.0  0.45405  0.43849  0.79914  1.0000
  H   H475      1.0  0.19586  0.62736  0.81517  1.0000
  C   C295      1.0  0.43175  0.64739  0.81940  1.0000
  H   H476      1.0  0.08791  0.36326  0.52987  1.0000
  H   H477      1.0  0.01432  0.34689  0.52313  1.0000
  H   H478      1.0  0.42216  0.46397  0.98345  1.0000
  C   C296      1.0  0.46063  0.63828  0.80104  1.0000
  H   H479      1.0  0.45748  0.64368  0.77364  1.0000
  H   H480      1.0  0.44522  0.53173  0.96291  1.0000
  H   H481      1.0  0.33831  0.53439  0.53967  1.0000
  H   H482      1.0  0.00939  0.41832  0.85869  1.0000
  H   H483      1.0  0.01973  0.35967  0.74928  1.0000
  C   C297      1.0  0.47216  0.46655  0.79007  1.0000
  H   H484      1.0  0.49055  0.53540  0.82419  1.0000
  H   H485      1.0  0.25084  0.33849  0.68749  1.0000
  H   H486      1.0  0.28116  0.64924  0.81196  1.0000
  H   H487      1.0  0.23147  0.63978  0.82900  1.0000
  H   H488      1.0  0.20826  0.33427  0.83200  1.0000
  S   S89       1.0  0.39357  0.66155  0.58944  1.0000
  H   H489      1.0  0.47862  0.65778  0.53302  1.0000
  H   H490      1.0  0.20764  0.66376  0.80384  1.0000
  H   H491      1.0  0.45592  0.66250  0.61024  1.0000
  H   H492      1.0  0.08757  0.33288  0.59899  1.0000
  Fe  Fe45      1.0  0.18215  0.85539  0.40671  1.0000
  S   S90       1.0  0.14678  0.88803  0.39150  1.0000
  S   S91       1.0  0.18959  0.83297  0.45825  1.0000
  Fe  Fe46      1.0  0.21062  0.85585  0.33544  1.0000
  S   S92       1.0  0.17698  0.88799  0.31478  1.0000
  S   S93       1.0  0.24401  0.83365  0.30028  1.0000
  Fe  Fe47      1.0  0.18373  0.91195  0.36441  1.0000
  S   S94       1.0  0.18447  0.96207  0.36189  1.0000
  Fe  Fe48      1.0  0.14286  0.86172  0.34306  1.0000
  S   S95       1.0  0.09890  0.84437  0.32254  1.0000
  S   S96       1.0  0.21973  0.88154  0.38321  1.0000
  S   S97       1.0  0.17589  0.82728  0.36002  1.0000
  S   S98       1.0  0.05589  0.72027  0.20094  1.0000
  Fe  Fe49      1.0  0.42202  0.86662  0.15354  1.0000
  S   S99       1.0  0.39535  0.83741  0.18862  1.0000
  S   S100      1.0  0.40037  0.86913  0.10105  1.0000
  Fe  Fe50      1.0  0.46976  0.87674  0.20836  1.0000
  S   S101      1.0  0.44629  0.84855  0.24678  1.0000
  H   H493      1.0  0.32354  0.70222  0.25139  1.0000
  Fe  Fe51      1.0  0.43902  0.81736  0.20316  1.0000
  S   S102      1.0  0.44094  0.76775  0.21064  1.0000
  Fe  Fe52      1.0  0.40441  0.87103  0.22913  1.0000
  S   S103      1.0  0.37164  0.88803  0.26878  1.0000
  S   S104      1.0  0.46519  0.84386  0.16552  1.0000
  S   S105      1.0  0.42834  0.90205  0.19346  1.0000
  C   C298      1.0  0.40906  0.88554  0.06116  1.0000
  C   C299      1.0  0.38835  0.88303  0.03453  1.0000
  H   H494      1.0  0.01100  0.93653  0.07314  1.0000
  C   C300      1.0  0.43587  0.90016  0.05497  1.0000
  H   H495      1.0  0.36750  0.87184  0.03899  1.0000
  H   H496      1.0  0.45206  0.90224  0.07512  1.0000
  C   C301      1.0  0.47148  0.74811  0.19432  1.0000
  H   H497      1.0  0.27809  0.95994  0.32899  1.0000
  H   H498      1.0  0.14951  0.95965  0.28360  1.0000
  C   C302      1.0  0.02380  0.73878  0.18620  1.0000
  H   H499      1.0  0.46241  0.92356  0.01797  1.0000
  C   C303      1.0  0.47364  0.71747  0.20001  1.0000
  C   C304      1.0  0.42709  0.78511  0.11479  1.0000
  H   H500      1.0  0.03723  0.78114  0.20644  1.0000
  H   H501      1.0  0.36890  0.68030  0.23136  1.0000
  H   H502      1.0  0.45665  0.70609  0.21424  1.0000
  H   H503      1.0  0.21356  0.74158  0.46545  1.0000
  C   C305      1.0  0.44245  0.72055  0.07787  1.0000
  C   C306      1.0  0.21717  0.98218  0.37050  1.0000
  C   C307      1.0  0.01989  0.96848  0.15837  1.0000
  C   C308      1.0  0.26785  0.98514  0.39117  1.0000
  C   C309      1.0  0.24188  0.96863  0.38535  1.0000
  H   H504      1.0  0.28698  0.97451  0.40248  1.0000
  H   H505      1.0  0.24103  0.94547  0.39235  1.0000
  C   C310      1.0  0.03825  0.88844  0.24289  1.0000
  C   C311      1.0  0.06582  0.90125  0.25099  1.0000
  C   C312      1.0  0.08466  0.88818  0.27542  1.0000
  C   C313      1.0  0.07597  0.86221  0.29210  1.0000
  C   C314      1.0  0.04854  0.84930  0.28379  1.0000
  C   C315      1.0  0.02978  0.86228  0.25930  1.0000
  H   H506      1.0  0.07266  0.92132  0.23818  1.0000
  H   H507      1.0  0.10589  0.89810  0.28123  1.0000
  H   H508      1.0  0.04170  0.82922  0.29652  1.0000
  C   C316      1.0  0.15370  0.98337  0.27848  1.0000
  C   C317      1.0  0.27944  0.84901  0.29181  1.0000
  C   C318      1.0  0.29256  0.86963  0.31370  1.0000
  C   C319      1.0  0.32109  0.88076  0.30670  1.0000
  C   C320      1.0  0.33662  0.87182  0.27751  1.0000
  C   C321      1.0  0.32351  0.85118  0.25562  1.0000
  C   C322      1.0  0.29517  0.83964  0.26293  1.0000
  H   H509      1.0  0.28087  0.87681  0.33621  1.0000
  H   H510      1.0  0.33116  0.89643  0.32404  1.0000
  H   H511      1.0  0.33506  0.84434  0.23288  1.0000
  H   H512      1.0  0.28519  0.82371  0.24583  1.0000
  C   C323      1.0  0.49364  0.76251  0.17589  1.0000
  H   H513      1.0  0.12673  0.84887  0.46536  1.0000
  H   H514      1.0  0.08568  0.96091  0.28534  1.0000
  C   C324      1.0  0.00136  0.72359  0.16892  1.0000
  H   H515      1.0  0.40424  0.77147  0.27452  1.0000
  Fe  Fe53      1.0  0.05954  0.67060  0.19204  1.0000
  H   H516      1.0  0.00710  0.73639  0.29502  1.0000
  H   H517      1.0  0.29573  0.93239  0.20501  1.0000
  H   H518      1.0  0.44651  0.96453  0.15902  1.0000
  H   H519      1.0  0.45362  0.97201  0.23802  1.0000
  H   H520      1.0  0.23991  0.94513  0.26601  1.0000
  H   H521      1.0  0.41745  0.80780  0.11650  1.0000
  C   C325      1.0  0.33655  0.77200  0.24799  1.0000
  H   H522      1.0  0.35036  0.73230  0.22293  1.0000
  C   C326      1.0  0.27696  0.95358  0.30183  1.0000
  H   H523      1.0  0.31782  0.76271  0.26273  1.0000
  H   H524      1.0  0.33790  0.73651  0.30748  1.0000
  C   C327      1.0  0.32850  0.96738  0.29127  1.0000
  C   C328      1.0  0.39033  0.69193  0.22925  1.0000
  H   H525      1.0  0.24861  0.70885  0.44569  1.0000
  C   C329      1.0  0.33012  0.69691  0.27770  1.0000
  H   H526      1.0  0.40312  0.69653  0.28158  1.0000
  H   H527      1.0  0.26947  0.69569  0.40954  1.0000
  H   H528      1.0  0.44589  0.78608  0.13298  1.0000
  H   H529      1.0  0.40771  0.67454  0.22706  1.0000
  H   H530      1.0  0.16707  0.98433  0.25485  1.0000
  H   H531      1.0  0.00840  0.91946  0.11478  1.0000
  H   H532      1.0  0.40335  0.82103  0.04032  1.0000
  H   H533      1.0  0.28394  0.91860  0.24521  1.0000
  H   H534      1.0  0.36254  0.70742  0.31498  1.0000
  H   H535      1.0  0.41856  0.72296  0.25388  1.0000
  H   H536      1.0  0.39106  0.70504  0.20539  1.0000
  C   C330      1.0  0.48753  0.80766  0.08437  1.0000
  H   H537      1.0  0.20934  0.75296  0.32928  1.0000
  H   H538      1.0  0.18491  0.74530  0.36489  1.0000
  H   H539      1.0  0.09116  0.84125  0.51270  1.0000
  H   H540      1.0  0.04741  0.99581  0.26833  1.0000
  H   H541      1.0  0.01756  0.69620  0.25646  1.0000
  H   H542      1.0  0.32249  0.92778  0.23793  1.0000
  H   H543      1.0  0.00080  0.96198  0.17464  1.0000
  N   N20       1.0  0.24204  0.75456  0.39443  1.0000
  C   C331      1.0  0.25161  0.77960  0.37139  1.0000
  C   C332      1.0  0.23106  0.72973  0.37194  1.0000
  C   C333      1.0  0.26891  0.74450  0.41436  1.0000
  C   C334      1.0  0.21839  0.76645  0.41783  1.0000
  C   C335      1.0  0.26651  0.80642  0.38894  1.0000
  C   C336      1.0  0.20383  0.73699  0.34969  1.0000
  C   C337      1.0  0.26816  0.71296  0.42959  1.0000
  C   C338      1.0  0.20201  0.74408  0.44067  1.0000
  H   H544      1.0  0.26727  0.77140  0.35161  1.0000
  H   H545      1.0  0.23240  0.78894  0.35722  1.0000
  H   H546      1.0  0.22519  0.70960  0.38657  1.0000
  H   H547      1.0  0.24912  0.72218  0.35464  1.0000
  H   H548      1.0  0.28909  0.74497  0.39805  1.0000
  H   H549      1.0  0.27352  0.75998  0.43580  1.0000
  H   H550      1.0  0.22801  0.78306  0.43562  1.0000
  H   H551      1.0  0.20143  0.77955  0.40377  1.0000
  H   H552      1.0  0.27305  0.82274  0.36919  1.0000
  H   H553      1.0  0.25107  0.81818  0.40624  1.0000
  H   H554      1.0  0.28704  0.80022  0.40272  1.0000
  H   H555      1.0  0.28474  0.93025  0.30121  1.0000
  N   N21       1.0  0.29678  0.97330  0.28091  1.0000
  H   H556      1.0  0.04576  0.98984  0.04826  1.0000
  H   H557      1.0  0.00403  0.70050  0.16276  1.0000
  C   C339      1.0  0.10378  0.95229  0.33512  1.0000
  H   H558      1.0  0.46023  0.80375  0.03991  1.0000
  H   H559      1.0  0.17932  0.75263  0.44575  1.0000
  N   N22       1.0  0.12361  0.78120  0.24900  1.0000
  C   C340      1.0  0.12106  0.81194  0.23391  1.0000
  C   C341      1.0  0.14685  0.78245  0.27658  1.0000
  C   C342      1.0  0.09407  0.77375  0.26476  1.0000
  C   C343      1.0  0.13123  0.75955  0.22097  1.0000
  C   C344      1.0  0.09525  0.81685  0.20872  1.0000
  C   C345      1.0  0.17706  0.79541  0.26577  1.0000
  C   C346      1.0  0.09176  0.74395  0.28361  1.0000
  C   C347      1.0  0.14862  0.73131  0.23107  1.0000
  H   H560      1.0  0.11880  0.82895  0.25428  1.0000
  H   H561      1.0  0.14159  0.81798  0.21990  1.0000
  H   H562      1.0  0.15124  0.76026  0.28763  1.0000
  H   H563      1.0  0.13884  0.79614  0.29832  1.0000
  H   H564      1.0  0.08736  0.79147  0.28293  1.0000
  H   H565      1.0  0.07634  0.77291  0.24518  1.0000
  H   H566      1.0  0.11079  0.75214  0.20754  1.0000
  H   H567      1.0  0.14474  0.77038  0.20084  1.0000
  H   H568      1.0  0.07383  0.81910  0.22230  1.0000
  H   H569      1.0  0.09868  0.83810  0.19499  1.0000
  H   H570      1.0  0.09368  0.79891  0.18950  1.0000
  H   H571      1.0  0.17616  0.82003  0.26474  1.0000
  H   H572      1.0  0.19414  0.78960  0.28500  1.0000
  H   H573      1.0  0.18455  0.78679  0.24086  1.0000
  H   H574      1.0  0.33305  0.94313  0.29186  1.0000
  H   H575      1.0  0.06997  0.74307  0.29665  1.0000
  C   C348      1.0  0.24378  0.95332  0.29217  1.0000
  H   H576      1.0  0.17191  0.73644  0.23790  1.0000
  H   H577      1.0  0.14941  0.71607  0.20887  1.0000
  H   H578      1.0  0.13837  0.71878  0.25205  1.0000
  H   H579      1.0  0.34582  0.79164  0.26119  1.0000
  H   H580      1.0  0.47434  0.95250  0.20618  1.0000
  C   C349      1.0  0.33786  0.97962  0.32629  1.0000
  H   H581      1.0  0.06620  0.97697  0.31976  1.0000
  H   H582      1.0  0.42241  0.77009  0.02848  1.0000
  C   C350      1.0  0.04090  0.98732  0.18052  1.0000
  H   H583      1.0  0.19862  0.72207  0.42903  1.0000
  H   H584      1.0  0.37353  0.77360  0.30262  1.0000
  H   H585      1.0  0.06158  0.99336  0.16709  1.0000
  C   C351      1.0  0.02007  0.76908  0.19330  1.0000
  C   C352      1.0  0.16330  0.82834  0.49148  1.0000
  C   C353      1.0  0.45780  0.75110  0.07953  1.0000
  C   C354      1.0  0.13395  0.83808  0.48849  1.0000
  H   H586      1.0  0.09182  0.72507  0.26554  1.0000
  H   H587      1.0  0.28801  0.70984  0.44598  1.0000
  H   H588      1.0  0.41631  0.74525  0.14441  1.0000
  H   H589      1.0  0.37808  0.75956  0.22504  1.0000
  C   C355      1.0  0.49134  0.98097  0.14645  1.0000
  C   C356      1.0  0.08893  0.97353  0.30938  1.0000
  H   H590      1.0  0.32728  0.78019  0.22355  1.0000
  H   H591      1.0  0.10890  0.74106  0.30348  1.0000
  H   H592      1.0  0.27097  0.97337  0.23434  1.0000
  C   C357      1.0  0.40469  0.76339  0.13070  1.0000
  H   H593      1.0  0.48697  0.80551  0.11229  1.0000
  H   H594      1.0  0.32331  0.97167  0.34700  1.0000
  H   H595      1.0  0.43245  0.71659  0.05248  1.0000
  C   C358      1.0  0.45790  0.97730  0.13886  1.0000
  H   H596      1.0  0.30898  0.69675  0.29216  1.0000
  H   H597      1.0  0.09175  0.93078  0.33506  1.0000
  H   H598      1.0  0.30899  0.98083  0.22853  1.0000
  H   H599      1.0  0.33967  0.67419  0.27864  1.0000
  H   H600      1.0  0.47246  0.75091  0.10238  1.0000
  H   H601      1.0  0.99819  0.74529  0.25243  1.0000
  C   C359      1.0  0.29341  0.96692  0.24356  1.0000
  H   H602      1.0  0.11367  0.99037  0.25065  1.0000
  H   H603      1.0  0.18877  0.68286  0.28349  1.0000
  C   C360      1.0  0.40942  0.74713  0.32117  1.0000
  H   H604      1.0  0.42555  0.71737  0.09772  1.0000
  H   H605      1.0  0.34445  0.97600  0.27217  1.0000
  H   H606      1.0  0.10243  0.96113  0.36140  1.0000
  H   H607      1.0  0.42849  0.73363  0.31236  1.0000
  N   N23       1.0  0.37426  0.73387  0.27117  1.0000
  C   C361      1.0  0.38977  0.75784  0.29137  1.0000
  C   C362      1.0  0.36057  0.74856  0.24048  1.0000
  C   C363      1.0  0.39742  0.71159  0.26027  1.0000
  C   C364      1.0  0.35147  0.71962  0.29392  1.0000
  C   C365      1.0  0.03554  0.98561  0.10216  1.0000
  H   H608      1.0  0.39667  0.73456  0.34039  1.0000
  H   H609      1.0  0.12715  0.94734  0.32923  1.0000
  H   H610      1.0  0.45520  0.96433  0.11502  1.0000
  H   H611      1.0  0.39924  0.75510  0.05991  1.0000
  C   C366      1.0  0.29924  0.93448  0.23284  1.0000
  S   S106      1.0  0.01508  0.90594  0.21240  1.0000
  N   N24       1.0  0.43817  0.77832  0.07949  1.0000
  H   H612      1.0  0.23319  0.97529  0.29571  1.0000
  H   H613      1.0  0.38148  0.80714  0.07548  1.0000
  H   H614      1.0  0.00724  0.99017  0.05589  1.0000
  C   C367      1.0  0.45656  0.80450  0.06790  1.0000
  H   H615      1.0  0.45944  0.70298  0.08173  1.0000
  H   H616      1.0  0.41887  0.76683  0.33425  1.0000
  C   C368      1.0  0.44169  0.91220  0.02251  1.0000
  C   C369      1.0  0.41324  0.77463  0.05425  1.0000
  H   H617      1.0  0.04819  0.96449  0.09966  1.0000
  H   H618      1.0  0.49300  0.96927  0.24182  1.0000
  H   H619      1.0  0.23206  0.93778  0.30945  1.0000
  H   H620      1.0  0.38862  0.75397  0.11252  1.0000
  H   H621      1.0  0.39089  0.77564  0.14938  1.0000
  H   H622      1.0  0.19640  0.71630  0.33686  1.0000
  H   H623      1.0  0.03182  0.94734  0.15317  1.0000
  H   H624      1.0  0.47293  0.75145  0.05717  1.0000
  H   H625      1.0  0.16763  0.99319  0.29878  1.0000
  C   C370      1.0  0.47462  0.97199  0.22332  1.0000
  H   H626      1.0  0.44472  0.82582  0.07264  1.0000
  C   C371      1.0  0.39202  0.80131  0.05095  1.0000
  H   H627      1.0  0.04747  0.97392  0.20300  1.0000
  H   H628      1.0  0.00869  0.85216  0.25325  1.0000
  H   H629      1.0  0.36067  0.97187  0.33219  1.0000
  H   H630      1.0  0.00375  0.79043  0.28244  1.0000
  H   H631      1.0  0.37389  0.79562  0.03296  1.0000
  N   N25       1.0  0.00943  0.98251  0.12570  1.0000
  H   H632      1.0  0.49245  0.78614  0.17185  1.0000
  H   H633      1.0  0.49655  0.83000  0.07842  1.0000
  C   C372      1.0  0.11380  0.83367  0.51539  1.0000
  Fe  Fe54      1.0  0.10429  0.80849  0.63603  1.0000
  S   S107      1.0  0.07953  0.84161  0.66801  1.0000
  S   S108      1.0  0.09647  0.81523  0.57901  1.0000
  Fe  Fe55      1.0  0.12349  0.77359  0.70004  1.0000
  S   S109      1.0  0.10066  0.80483  0.73607  1.0000
  S   S110      1.0  0.14844  0.73273  0.71820  1.0000
  Fe  Fe56      1.0  0.06348  0.80248  0.69800  1.0000
  S   S111      1.0  0.01514  0.79960  0.71280  1.0000
  Fe  Fe57      1.0  0.11880  0.84115  0.70286  1.0000
  S   S112      1.0  0.14136  0.88437  0.71796  1.0000
  S   S113      1.0  0.08525  0.76927  0.66382  1.0000
  S   S114      1.0  0.14492  0.81013  0.66927  1.0000
  H   H634      1.0  0.02174  0.95460  0.83705  1.0000
  S   S115      1.0  0.40287  0.71124  0.67048  1.0000
  H   H635      1.0  0.02887  0.81220  0.57585  1.0000
  Fe  Fe58      1.0  0.36515  0.70803  0.70726  1.0000
  S   S116      1.0  0.33941  0.74830  0.72528  1.0000
  H   H636      1.0  0.02807  0.76201  0.63111  1.0000
  Fe  Fe59      1.0  0.39872  0.92200  0.90879  1.0000
  S   S117      1.0  0.36535  0.88653  0.89660  1.0000
  S   S118      1.0  0.42911  0.92524  0.95539  1.0000
  Fe  Fe60      1.0  0.39104  0.95189  0.83842  1.0000
  S   S119      1.0  0.35738  0.91831  0.82097  1.0000
  H   H637      1.0  0.43100  0.82820  0.71274  1.0000
  Fe  Fe61      1.0  0.33872  0.92401  0.87357  1.0000
  S   S120      1.0  0.28912  0.92606  0.88181  1.0000
  Fe  Fe62      1.0  0.38651  0.88363  0.84496  1.0000
  S   S121      1.0  0.40529  0.84129  0.82156  1.0000
  S   S122      1.0  0.37054  0.95996  0.88959  1.0000
  S   S123      1.0  0.42178  0.91674  0.85851  1.0000
  H   H638      1.0  0.01146  0.69539  0.67743  1.0000
  H   H639      1.0  0.15907  0.79859  0.57152  1.0000
  H   H640      1.0  0.37794  0.89287  0.98202  1.0000
  H   H641      1.0  0.00697  0.73991  0.54181  1.0000
  H   H642      1.0  0.14150  0.87230  0.57197  1.0000
  C   C373      1.0  0.35789  0.77433  0.75171  1.0000
  C   C374      1.0  0.38774  0.77066  0.76052  1.0000
  C   C375      1.0  0.40182  0.79140  0.78190  1.0000
  C   C376      1.0  0.38630  0.81605  0.79466  1.0000
  C   C377      1.0  0.35654  0.81993  0.78561  1.0000
  C   C378      1.0  0.34241  0.79911  0.76424  1.0000
  H   H643      1.0  0.39996  0.75178  0.75094  1.0000
  H   H644      1.0  0.42484  0.78823  0.78870  1.0000
  H   H645      1.0  0.34439  0.83885  0.79520  1.0000
  H   H646      1.0  0.31936  0.80215  0.75749  1.0000
  H   H647      1.0  0.30437  0.68262  0.76050  1.0000
  C   C379      1.0  0.24160  0.96397  0.88321  1.0000
  C   C380      1.0  0.27177  0.96071  0.87544  1.0000
  C   C381      1.0  0.39420  0.89494  0.00213  1.0000
  H   H648      1.0  0.45447  0.87114  0.79003  1.0000
  H   H649      1.0  0.22971  0.94580  0.89474  1.0000
  H   H650      1.0  0.46495  0.96344  0.83843  1.0000
  N   N26       1.0  0.17496  0.89218  0.60430  1.0000
  N   N27       1.0  0.48897  0.69458  0.59456  1.0000
  H   H651      1.0  0.22952  0.89600  0.64179  1.0000
  C   C382      1.0  0.42089  0.90968  0.99589  1.0000
  C   C383      1.0  0.47608  0.85963  0.79345  1.0000
  C   C384      1.0  0.47517  0.74359  0.69853  1.0000
  H   H652      1.0  0.20351  0.99304  0.88253  1.0000
  H   H653      1.0  0.03716  0.74097  0.69584  1.0000
  H   H654      1.0  0.05150  0.66656  0.72489  1.0000
  H   H655      1.0  0.45135  0.74236  0.69698  1.0000
  C   C385      1.0  0.13137  0.70737  0.74654  1.0000
  H   H656      1.0  0.11632  0.91764  0.59954  1.0000
  H   H657      1.0  0.22054  0.82989  0.59114  1.0000
  C   C386      1.0  0.17597  0.92224  0.58755  1.0000
  C   C387      1.0  0.28375  0.68841  0.74664  1.0000
  C   C388      1.0  0.10296  0.71249  0.75947  1.0000
  C   C389      1.0  0.14518  0.87770  0.59919  1.0000
  C   C390      1.0  0.28734  0.98480  0.86206  1.0000
  H   H658      1.0  0.19878  0.93156  0.58872  1.0000
  H   H659      1.0  0.09094  0.73224  0.75209  1.0000
  C   C391      1.0  0.12685  0.90944  0.74834  1.0000
  C   C392      1.0  0.10224  0.90242  0.76835  1.0000
  C   C393      1.0  0.09239  0.92246  0.79344  1.0000
  C   C394      1.0  0.10705  0.94960  0.79880  1.0000
  C   C395      1.0  0.13158  0.95660  0.77869  1.0000
  C   C396      1.0  0.14133  0.93666  0.75352  1.0000
  H   H660      1.0  0.09101  0.88145  0.76471  1.0000
  H   H661      1.0  0.07346  0.91681  0.80893  1.0000
  H   H662      1.0  0.14309  0.97735  0.78254  1.0000
  H   H663      1.0  0.16037  0.94230  0.73818  1.0000
  C   C397      1.0  0.12274  0.81975  0.54573  1.0000
  C   C398      1.0  0.00794  0.80430  0.58794  1.0000
  H   H664      1.0  0.42757  0.85037  0.74982  1.0000
  C   C399      1.0  0.47319  0.83506  0.73831  1.0000
  C   C400      1.0  0.15207  0.81000  0.54873  1.0000
  H   H665      1.0  0.17721  0.87457  0.65552  1.0000
  C   C401      1.0  0.10550  0.66644  0.79233  1.0000
  C   C402      1.0  0.44204  0.84598  0.72769  1.0000
  H   H666      1.0  0.18718  0.84718  0.75643  1.0000
  H   H667      1.0  0.14414  0.85604  0.61256  1.0000
  C   C403      1.0  0.00820  0.76400  0.54696  1.0000
  C   C404      1.0  0.99862  0.71460  0.68473  1.0000
  H   H668      1.0  0.17489  0.81748  0.78253  1.0000
  C   C405      1.0  0.16687  0.92302  0.54971  1.0000
  H   H669      1.0  0.28667  0.68411  0.71910  1.0000
  H   H670      1.0  0.49601  0.72778  0.63390  1.0000
  H   H671      1.0  0.05288  0.71632  0.61648  1.0000
  C   C406      1.0  0.49219  0.87754  0.82125  1.0000
  H   H672      1.0  0.19475  0.80641  0.52428  1.0000
  H   H673      1.0  0.01168  0.69544  0.79645  1.0000
  H   H674      1.0  0.44296  0.86589  0.71122  1.0000
  H   H675      1.0  0.21593  0.84675  0.63177  1.0000
  H   H676      1.0  0.18493  0.82958  0.61054  1.0000
  S   S124      1.0  0.09419  0.97398  0.83093  1.0000
  H   H677      1.0  0.28065  0.71278  0.74929  1.0000
  C   C407      1.0  0.48973  0.76954  0.68827  1.0000
  H   H678      1.0  0.03643  0.71487  0.57549  1.0000
  N   N28       1.0  0.00484  0.77105  0.58420  1.0000
  H   H679      1.0  0.14322  0.91721  0.54587  1.0000
  H   H680      1.0  0.21274  0.93247  0.64414  1.0000
  H   H681      1.0  0.48524  0.82954  0.71447  1.0000
  H   H682      1.0  0.16353  0.91123  0.65307  1.0000
  H   H683      1.0  0.02826  0.81042  0.63839  1.0000
  H   H684      1.0  0.45585  0.74849  0.60226  1.0000
  H   H685      1.0  0.47212  0.89849  0.74513  1.0000
  C   C408      1.0  0.46447  0.98297  0.90086  1.0000
  H   H686      1.0  0.05164  0.76658  0.59529  1.0000
  S   S125      1.0  0.41024  0.98572  0.80142  1.0000
  C   C409      1.0  0.03003  0.75703  0.60363  1.0000
  H   H687      1.0  0.01425  0.85541  0.76354  1.0000
  N   N29       1.0  0.20390  0.88319  0.81748  1.0000
  C   C410      1.0  0.20087  0.85040  0.81017  1.0000
  C   C411      1.0  0.22880  0.88687  0.84273  1.0000
  C   C412      1.0  0.21243  0.89818  0.78465  1.0000
  C   C413      1.0  0.17457  0.89480  0.83048  1.0000
  C   C414      1.0  0.17850  0.84187  0.78206  1.0000
  C   C415      1.0  0.22600  0.86854  0.87566  1.0000
  C   C416      1.0  0.21911  0.93167  0.78628  1.0000
  C   C417      1.0  0.17531  0.92218  0.85411  1.0000
  H   H688      1.0  0.22273  0.84065  0.80304  1.0000
  H   H689      1.0  0.19360  0.83818  0.83325  1.0000
  H   H690      1.0  0.23137  0.91028  0.85045  1.0000
  H   H691      1.0  0.25052  0.88097  0.83101  1.0000
  H   H692      1.0  0.23239  0.88721  0.77360  1.0000
  H   H693      1.0  0.19455  0.89586  0.76533  1.0000
  H   H694      1.0  0.15965  0.90040  0.80894  1.0000
  H   H695      1.0  0.16240  0.87739  0.84487  1.0000
  H   H696      1.0  0.21975  0.88475  0.58574  1.0000
  H   H697      1.0  0.15659  0.85257  0.78566  1.0000
  C   C418      1.0  0.22679  0.99080  0.87660  1.0000
  H   H698      1.0  0.24130  0.87777  0.89516  1.0000
  H   H699      1.0  0.20326  0.86901  0.88620  1.0000
  H   H700      1.0  0.23281  0.84517  0.87129  1.0000
  H   H701      1.0  0.19863  0.94475  0.79027  1.0000
  H   H702      1.0  0.22795  0.93880  0.76128  1.0000
  H   H703      1.0  0.23622  0.93758  0.80536  1.0000
  H   H704      1.0  0.18417  0.91656  0.87958  1.0000
  H   H705      1.0  0.15228  0.93029  0.85794  1.0000
  H   H706      1.0  0.18806  0.94099  0.84380  1.0000
  H   H707      1.0  0.47027  0.98208  0.92819  1.0000
  H   H708      1.0  0.47697  0.78779  0.67800  1.0000
  C   C419      1.0  0.01327  0.74064  0.69461  1.0000
  C   C420      1.0  0.46560  0.70800  0.57170  1.0000
  H   H709      1.0  0.19192  0.86657  0.56194  1.0000
  H   H710      1.0  0.47258  0.69227  0.83841  1.0000
  H   H711      1.0  0.09764  0.88311  0.60441  1.0000
  S   S126      1.0  0.34455  0.66907  0.67978  1.0000
  C   C421      1.0  0.03701  0.98837  0.89548  1.0000
  H   H712      1.0  0.31066  0.98259  0.85622  1.0000
  H   H713      1.0  0.18096  0.90838  0.53385  1.0000
  H   H714      1.0  0.32894  0.66817  0.58398  1.0000
  H   H715      1.0  0.46954  0.83779  0.80435  1.0000
  H   H716      1.0  0.48724  0.90159  0.81878  1.0000
  C   C422      1.0  0.44430  0.73026  0.58873  1.0000
  C   C423      1.0  0.03296  0.72305  0.60169  1.0000
  H   H717      1.0  0.49439  0.88177  0.71316  1.0000
  C   C424      1.0  0.09017  0.69218  0.78233  1.0000
  C   C425      1.0  0.17219  0.81427  0.52176  1.0000
  C   C426      1.0  0.49148  0.71945  0.71068  1.0000
  H   H718      1.0  0.46138  0.69171  0.63951  1.0000
  C   C427      1.0  0.01317  0.97374  0.82214  1.0000
  H   H719      1.0  0.02018  0.98542  0.91567  1.0000
  H   H720      1.0  0.47057  0.69276  0.79348  1.0000
  H   H721      1.0  0.45101  0.69058  0.56058  1.0000
  N   N30       1.0  0.49149  0.98350  0.87830  1.0000
  S   S127      1.0  0.47393  0.68595  0.72155  1.0000
  C   C428      1.0  0.11802  0.89549  0.61154  1.0000
  H   H722      1.0  0.03283  0.98212  0.80805  1.0000
  H   H723      1.0  0.46958  0.81364  0.75172  1.0000
  Fe  Fe63      1.0  0.38493  0.66967  0.64609  1.0000
  C   C429      1.0  0.18025  0.89598  0.64184  1.0000
  H   H724      1.0  0.06836  0.69652  0.79246  1.0000
  H   H725      1.0  0.45169  0.96222  0.89654  1.0000
  H   H726      1.0  0.16193  0.93853  0.60144  1.0000
  H   H727      1.0  0.25133  0.68311  0.78558  1.0000
  H   H728      1.0  0.43006  0.74055  0.56891  1.0000
  H   H729      1.0  0.21257  0.90849  0.68014  1.0000
  C   C430      1.0  0.20501  0.84322  0.60685  1.0000
  H   H730      1.0  0.04408  0.96645  0.88565  1.0000
  C   C431      1.0  0.21066  0.90893  0.65199  1.0000
  H   H731      1.0  0.11772  0.89770  0.63960  1.0000
  C   C432      1.0  0.48473  0.68537  0.81512  1.0000
  C   C433      1.0  0.49285  0.88549  0.74114  1.0000
  H   H732      1.0  0.00364  0.94446  0.77972  1.0000
  C   C434      1.0  0.19834  0.87269  0.58836  1.0000
  H   H733      1.0  0.01393  0.71180  0.61384  1.0000
  H   H734      1.0  0.23716  0.67812  0.74383  1.0000
  H   H735      1.0  0.42915  0.71871  0.60634  1.0000
  H   H736      1.0  0.47613  0.71956  0.54980  1.0000
  C   C435      1.0  0.14669  0.68157  0.75645  1.0000
  H   H737      1.0  0.01064  0.83514  0.83476  1.0000
  C   C436      1.0  0.48063  0.98227  0.84198  1.0000
  H   H738      1.0  0.16862  0.67740  0.74648  1.0000
  C   C437      1.0  0.25617  0.67231  0.76077  1.0000
  N   N31       1.0  0.49139  0.85616  0.75968  1.0000
  S   S128      1.0  0.38948  0.68009  0.74529  1.0000
  Fe  Fe64      1.0  0.42596  0.68079  0.70668  1.0000
  H   H739      1.0  0.49310  0.93632  0.93153  1.0000
  H   H740      1.0  0.48416  0.86999  0.84648  1.0000
  H   H741      1.0  0.00706  0.84105  0.62384  1.0000
  H   H742      1.0  0.03075  0.77055  0.53805  1.0000
  H   H743      1.0  0.01008  0.68893  0.75171  1.0000
  H   H744      1.0  0.16977  0.94596  0.53994  1.0000
  H   H745      1.0  0.49366  0.97742  0.78920  1.0000
  C   C438      1.0  0.99738  0.81946  0.81902  1.0000
  C   C439      1.0  0.47339  0.67683  0.62165  1.0000
  C   C440      1.0  0.00771  0.81642  0.62459  1.0000
  H   H746      1.0  0.42740  0.67157  0.81780  1.0000
  H   H747      1.0  0.01165  0.81587  0.79635  1.0000
  H   H748      1.0  0.01682  0.78692  0.85319  1.0000
  C   C441      1.0  0.00067  0.68201  0.77640  1.0000
  N   N32       1.0  0.00080  0.99728  0.84541  1.0000
  H   H749      1.0  0.82660  0.28968  0.24235  1.0000
  Fe  Fe65      1.0  0.57599  0.09539  0.16911  1.0000
  S   S129      1.0  0.60182  0.13320  0.19180  1.0000
  S   S130      1.0  0.59928  0.06829  0.12813  1.0000
  Fe  Fe66      1.0  0.52447  0.10417  0.21963  1.0000
  S   S131      1.0  0.54642  0.14285  0.24553  1.0000
  H   H750      1.0  0.56380  0.01624  0.16257  1.0000
  Fe  Fe67      1.0  0.55798  0.15690  0.19239  1.0000
  S   S132      1.0  0.55701  0.20371  0.17235  1.0000
  Fe  Fe68      1.0  0.58841  0.11579  0.24267  1.0000
  S   S133      1.0  0.61838  0.10850  0.28848  1.0000
  S   S134      1.0  0.53292  0.12028  0.16627  1.0000
  S   S135      1.0  0.56570  0.07585  0.22033  1.0000
  Fe  Fe69      1.0  0.81054  0.12215  0.40864  1.0000
  S   S136      1.0  0.84627  0.09137  0.38947  1.0000
  S   S137      1.0  0.79913  0.13432  0.46355  1.0000
  Fe  Fe70      1.0  0.78405  0.13116  0.33743  1.0000
  S   S138      1.0  0.81786  0.10162  0.31272  1.0000
  S   S139      1.0  0.75068  0.15585  0.30448  1.0000
  Fe  Fe71      1.0  0.81005  0.07131  0.35719  1.0000
  S   S140      1.0  0.80800  0.02204  0.34544  1.0000
  Fe  Fe72      1.0  0.85145  0.12376  0.34622  1.0000
  S   S141      1.0  0.89486  0.14296  0.32633  1.0000
  S   S142      1.0  0.77377  0.09932  0.37944  1.0000
  S   S143      1.0  0.81820  0.15613  0.36777  1.0000
  C   C442      1.0  0.57376  0.28701  0.29676  1.0000
  H   H751      1.0  0.90973  0.27079  0.14185  1.0000
  S   S144      1.0  0.93876  0.26811  0.21016  1.0000
  H   H752      1.0  0.52273  0.14767  0.04155  1.0000
  H   H753      1.0  0.73189  0.28235  0.35655  1.0000
  H   H754      1.0  0.53145  0.21625  0.29736  1.0000
  H   H755      1.0  0.57358  0.20389  0.01606  1.0000
  C   C443      1.0  0.97229  0.24929  0.20238  1.0000
  C   C444      1.0  0.55714  0.06995  0.03612  1.0000
  C   C445      1.0  0.52098  0.25232  0.16789  1.0000
  C   C446      1.0  0.52392  0.22320  0.17993  1.0000
  H   H756      1.0  0.52674  0.32029  0.27504  1.0000
  C   C447      1.0  0.97267  0.21817  0.20122  1.0000
  H   H757      1.0  0.82726  0.25180  0.22909  1.0000
  H   H758      1.0  0.53848  0.26208  0.15285  1.0000
  C   C448      1.0  0.55106  0.22497  0.05686  1.0000
  H   H759      1.0  0.95255  0.20582  0.20595  1.0000
  C   C449      1.0  0.92029  0.12338  0.30011  1.0000
  C   C450      1.0  0.91522  0.09403  0.29020  1.0000
  C   C451      1.0  0.93552  0.07942  0.26870  1.0000
  C   C452      1.0  0.96094  0.09399  0.25663  1.0000
  C   C453      1.0  0.96619  0.12326  0.26682  1.0000
  C   C454      1.0  0.94611  0.13773  0.28868  1.0000
  H   H760      1.0  0.89575  0.08264  0.29936  1.0000
  H   H761      1.0  0.93165  0.05672  0.26135  1.0000
  H   H762      1.0  0.57232  0.23337  0.06740  1.0000
  H   H763      1.0  0.95073  0.16015  0.29681  1.0000
  C   C455      1.0  0.65446  0.12344  0.29312  1.0000
  C   C456      1.0  0.66718  0.14174  0.26844  1.0000
  C   C457      1.0  0.69658  0.15179  0.27239  1.0000
  C   C458      1.0  0.71363  0.14329  0.30070  1.0000
  C   C459      1.0  0.70076  0.12534  0.32555  1.0000
  C   C460      1.0  0.67129  0.11561  0.32184  1.0000
  H   H764      1.0  0.65447  0.14796  0.24623  1.0000
  H   H765      1.0  0.70630  0.16587  0.25316  1.0000
  H   H766      1.0  0.71347  0.11899  0.34771  1.0000
  H   H767      1.0  0.66158  0.10165  0.34118  1.0000
  C   C461      1.0  0.59151  0.06824  0.08385  1.0000
  C   C462      1.0  0.56270  0.07186  0.07134  1.0000
  H   H768      1.0  0.57921  0.13468  0.11198  1.0000
  C   C463      1.0  0.61463  0.06281  0.06075  1.0000
  H   H769      1.0  0.54459  0.07538  0.08884  1.0000
  H   H770      1.0  0.63695  0.05963  0.07018  1.0000
  C   C464      1.0  0.75228  0.01436  0.37308  1.0000
  C   C465      1.0  0.60910  0.27951  0.23064  1.0000
  C   C466      1.0  0.55544  0.22043  0.30154  1.0000
  H   H771      1.0  0.75347  0.03730  0.38088  1.0000
  H   H772      1.0  0.61926  0.26614  0.29557  1.0000
  H   H773      1.0  0.75873  0.22762  0.32390  1.0000
  C   C467      1.0  0.57514  0.27964  0.23404  1.0000
  H   H774      1.0  0.85795  0.27933  0.29186  1.0000
  N   N33       1.0  0.56258  0.26871  0.26720  1.0000
  H   H775      1.0  0.67013  0.26155  0.35687  1.0000
  H   H776      1.0  0.52081  0.03379  0.14202  1.0000
  C   C468      1.0  0.85363  0.15233  0.48951  1.0000
  H   H777      1.0  0.60043  0.26470  0.33613  1.0000
  H   H778      1.0  0.64374  0.06285  0.23624  1.0000
  C   C469      1.0  0.97104  0.01456  0.15747  1.0000
  H   H779      1.0  0.68269  0.00242  0.23778  1.0000
  C   C470      1.0  0.82332  0.14844  0.49529  1.0000
  C   C471      1.0  0.93822  0.28558  0.04010  1.0000
  C   C472      1.0  0.66731  0.03632  0.29074  1.0000
  H   H780      1.0  0.61219  0.13421  0.08564  1.0000
  H   H781      1.0  0.89104  0.23889  0.36733  1.0000
  C   C473      1.0  0.86987  0.02102  0.27412  1.0000
  H   H782      1.0  0.83254  0.06686  0.50488  1.0000
  H   H783      1.0  0.60336  0.15971  0.02126  1.0000
  C   C474      1.0  0.51768  0.16664  0.09045  1.0000
  H   H784      1.0  0.95145  0.00194  0.14847  1.0000
  H   H785      1.0  0.65034  0.02353  0.27631  1.0000
  H   H786      1.0  0.65046  0.26547  0.39571  1.0000
  H   H787      1.0  0.70807  0.00807  0.39252  1.0000
  H   H788      1.0  0.55855  0.23314  0.32536  1.0000
  H   H789      1.0  0.98632  0.30879  0.07618  1.0000
  H   H790      1.0  0.75638  0.18962  0.41449  1.0000
  C   C475      1.0  0.70233  0.00949  0.25285  1.0000
  C   C476      1.0  0.95484  0.25862  0.05513  1.0000
  H   H791      1.0  0.66283  0.22944  0.38342  1.0000
  C   C477      1.0  0.75163  0.05073  0.27731  1.0000
  C   C478      1.0  0.60915  0.06129  0.02548  1.0000
  H   H792      1.0  0.57514  0.19004  0.10079  1.0000
  N   N34       1.0  0.86247  0.23186  0.28583  1.0000
  C   C479      1.0  0.84708  0.20584  0.26933  1.0000
  C   C480      1.0  0.89276  0.23493  0.27007  1.0000
  C   C481      1.0  0.86439  0.22611  0.32347  1.0000
  C   C482      1.0  0.81393  0.20189  0.27789  1.0000
  C   C483      1.0  0.91536  0.21066  0.27944  1.0000
  H   H793      1.0  0.84892  0.20686  0.24116  1.0000
  H   H794      1.0  0.85817  0.18466  0.27658  1.0000
  H   H795      1.0  0.90298  0.25682  0.27591  1.0000
  H   H796      1.0  0.89111  0.23461  0.24186  1.0000
  H   H797      1.0  0.87391  0.20386  0.32915  1.0000
  H   H798      1.0  0.80552  0.18185  0.26454  1.0000
  H   H799      1.0  0.81019  0.19802  0.30531  1.0000
  H   H800      1.0  0.80021  0.22079  0.26907  1.0000
  H   H801      1.0  0.86097  0.27376  0.22945  1.0000
  H   H802      1.0  0.93655  0.21525  0.26615  1.0000
  H   H803      1.0  0.92048  0.21029  0.30698  1.0000
  H   H804      1.0  0.61884  0.25715  0.23406  1.0000
  H   H805      1.0  0.56156  0.22380  0.24755  1.0000
  H   H806      1.0  0.56609  0.26641  0.21252  1.0000
  S   S145      1.0  0.98552  0.07471  0.22913  1.0000
  H   H807      1.0  0.92722  0.23666  0.13130  1.0000
  C   C484      1.0  0.84567  0.26037  0.28040  1.0000
  C   C485      1.0  0.88099  0.24970  0.34471  1.0000
  N   N35       1.0  0.56472  0.16877  0.05239  1.0000
  S   S146      1.0  0.66042  0.32084  0.44707  1.0000
  C   C486      1.0  0.99575  0.28632  0.08105  1.0000
  H   H808      1.0  0.64589  0.02046  0.33666  1.0000
  C   C487      1.0  0.95102  0.27701  0.11448  1.0000
  H   H809      1.0  0.51872  0.26472  0.28945  1.0000
  H   H810      1.0  0.54326  0.12925  0.07250  1.0000
  H   H811      1.0  0.60508  0.18798  0.07225  1.0000
  H   H812      1.0  0.58659  0.12746  0.03857  1.0000
  H   H813      1.0  0.76818  0.05598  0.29734  1.0000
  C   C488      1.0  0.55609  0.19721  0.03452  1.0000
  H   H814      1.0  0.61496  0.28672  0.20453  1.0000
  H   H815      1.0  0.61090  0.15636  0.12286  1.0000
  H   H816      1.0  0.95357  0.30387  0.03344  1.0000
  H   H817      1.0  0.80986  0.01104  0.25075  1.0000
  H   H818      1.0  0.53017  0.17772  0.11097  1.0000
  H   H819      1.0  0.73990  0.29625  0.43322  1.0000
  C   C489      1.0  0.86585  0.04199  0.24337  1.0000
  H   H820      1.0  0.55747  0.28631  0.31798  1.0000
  N   N36       1.0  0.72554  0.24458  0.39038  1.0000
  C   C490      1.0  0.69774  0.25943  0.40344  1.0000
  C   C491      1.0  0.74968  0.25039  0.41614  1.0000
  C   C492      1.0  0.71942  0.21166  0.38761  1.0000
  C   C493      1.0  0.73257  0.25765  0.35607  1.0000
  C   C494      1.0  0.66894  0.25326  0.38331  1.0000
  C   C495      1.0  0.75812  0.28327  0.42149  1.0000
  C   C496      1.0  0.74630  0.19049  0.38874  1.0000
  C   C497      1.0  0.76188  0.24813  0.33918  1.0000
  H   H821      1.0  0.69339  0.25301  0.43034  1.0000
  H   H822      1.0  0.70025  0.28395  0.40381  1.0000
  H   H823      1.0  0.77054  0.23870  0.40978  1.0000
  H   H824      1.0  0.74317  0.24122  0.44134  1.0000
  H   H825      1.0  0.84633  0.03667  0.22758  1.0000
  H   H826      1.0  0.70482  0.20419  0.40878  1.0000
  H   H827      1.0  0.71499  0.25184  0.33739  1.0000
  H   H828      1.0  0.97764  0.00679  0.18309  1.0000
  H   H829      1.0  0.86272  0.06501  0.25280  1.0000
  C   C498      1.0  0.51703  0.30323  0.25805  1.0000
  H   H830      1.0  0.54170  0.24303  0.04090  1.0000
  H   H831      1.0  0.93867  0.24017  0.05809  1.0000
  C   C499      1.0  0.58546  0.17537  0.08155  1.0000
  H   H832      1.0  0.72401  0.03217  0.31559  1.0000
  H   H833      1.0  0.70705  0.20655  0.36376  1.0000
  H   H834      1.0  0.78041  0.24501  0.35718  1.0000
  H   H835      1.0  0.86283  0.14714  0.46486  1.0000
  N   N37       1.0  0.69596  0.03827  0.27100  1.0000
  C   C500      1.0  0.69242  0.06226  0.24446  1.0000
  C   C501      1.0  0.72099  0.04761  0.29411  1.0000
  H   H836      1.0  0.96408  0.03810  0.16033  1.0000
  H   H837      1.0  0.52005  0.25683  0.24542  1.0000
  C   C502      1.0  0.66457  0.06017  0.22161  1.0000
  H   H838      1.0  0.75229  0.06935  0.25893  1.0000
  C   C503      1.0  0.60386  0.27789  0.31267  1.0000
  H   H839      1.0  0.71985  0.01225  0.23323  1.0000
  H   H840      1.0  0.69191  0.08456  0.25662  1.0000
  H   H841      1.0  0.57541  0.31081  0.28939  1.0000
  Fe  Fe73      1.0  0.93796  0.31710  0.19787  1.0000
  H   H842      1.0  0.71571  0.06919  0.30639  1.0000
  C   C504      1.0  0.64671  0.30651  0.51335  1.0000
  H   H843      1.0  0.56606  0.19836  0.30495  1.0000
  N   N38       1.0  0.97133  0.26425  0.08783  1.0000
  H   H844      1.0  0.98818  0.02258  0.10761  1.0000
  H   H845      1.0  0.98578  0.13470  0.25801  1.0000
  H   H846      1.0  0.73867  0.16761  0.38286  1.0000
  C   C505      1.0  0.66878  0.02307  0.32679  1.0000
  H   H847      1.0  0.68035  0.03831  0.34460  1.0000
  H   H848      1.0  0.92077  0.29421  0.05727  1.0000
  S   S147      1.0  0.68567  0.33026  0.35418  1.0000
  H   H849      1.0  0.90768  0.25801  0.09922  1.0000
  H   H850      1.0  0.59344  0.23151  0.27146  1.0000
  H   H851      1.0  0.66384  0.03929  0.20677  1.0000
  H   H852      1.0  0.53536  0.22127  0.07793  1.0000
  C   C506      1.0  0.52924  0.27179  0.26525  1.0000
  H   H853      1.0  0.56846  0.30289  0.22908  1.0000
  H   H854      1.0  0.84185  0.22481  0.33471  1.0000
  H   H855      1.0  0.89968  0.26011  0.33109  1.0000
  H   H856      1.0  0.90776  0.18847  0.27103  1.0000
  H   H857      1.0  0.66499  0.07870  0.20299  1.0000
  H   H858      1.0  0.76939  0.26620  0.32203  1.0000
  H   H859      1.0  0.61950  0.29581  0.24813  1.0000
  C   C507      1.0  0.56934  0.23602  0.27057  1.0000
  H   H860      1.0  0.82399  0.26001  0.29385  1.0000
  H   H861      1.0  0.96275  0.27909  0.13913  1.0000
  H   H862      1.0  0.86558  0.26745  0.35321  1.0000
  H   H863      1.0  0.71174  0.06271  0.22695  1.0000
  H   H864      1.0  0.94427  0.30002  0.10786  1.0000
  C   C508      1.0  0.83997  0.26896  0.24303  1.0000
  H   H865      1.0  0.82822  0.32190  0.31411  1.0000
  H   H866      1.0  0.85233  0.02683  0.29282  1.0000
  H   H867      1.0  0.76532  0.29406  0.39759  1.0000
  H   H868      1.0  0.77714  0.28448  0.43940  1.0000
  C   C509      1.0  0.92246  0.25926  0.12168  1.0000
  H   H869      1.0  0.96560  0.21864  0.10412  1.0000
  H   H870      1.0  0.53558  0.19391  0.01914  1.0000
  C   C510      1.0  0.59732  0.14828  0.10121  1.0000
  H   H871      1.0  0.97036  0.25104  0.03499  1.0000
  H   H872      1.0  0.61563  0.29828  0.32114  1.0000
  H   H873      1.0  0.65763  0.05879  0.29433  1.0000
  H   H874      1.0  0.62982  0.29254  0.50219  1.0000
  C   C511      1.0  0.58149  0.14956  0.02745  1.0000
  H   H875      1.0  0.52017  0.30970  0.23112  1.0000
  H   H876      1.0  0.75887  0.02979  0.26515  1.0000
  C   C512      1.0  0.98357  0.23521  0.10073  1.0000
  H   H877      1.0  0.76338  0.19605  0.36980  1.0000
  H   H878      1.0  0.51322  0.04699  0.18365  1.0000
  C   C513      1.0  0.53761  0.15191  0.06356  1.0000
  H   H879      1.0  0.92273  0.00841  0.23944  1.0000
  C   C514      1.0  0.77617  0.00131  0.35615  1.0000
  H   H880      1.0  0.89092  0.02798  0.28662  1.0000
  H   H881      1.0  0.50312  0.18808  0.20830  1.0000
  H   H882      1.0  0.88580  0.04231  0.22699  1.0000
  N   N39       1.0  0.49990  0.00147  0.17528  1.0000
  H   H883      1.0  0.53471  0.07235  0.02673  1.0000
  C   C515      1.0  0.50110  0.21059  0.19907  1.0000
  H   H884      1.0  0.53485  0.00434  0.21314  1.0000
  H   H885      1.0  0.89562  0.16568  0.51104  1.0000
  C   C516      1.0  0.50418  0.03287  0.16282  1.0000
  H   H886      1.0  0.50467  0.14920  0.10362  1.0000
  C   C517      1.0  0.99675  0.01299  0.13177  1.0000
  H   H887      1.0  0.99338  0.23795  0.12644  1.0000
  C   C518      1.0  0.66485  0.32378  0.49204  1.0000
  H   H888      1.0  0.50195  0.18254  0.07859  1.0000
  H   H889      1.0  0.67936  0.00101  0.32756  1.0000
  H   H890      1.0  0.99689  0.21170  0.05399  1.0000
  H   H891      1.0  0.87154  0.99835  0.33790  1.0000
  H   H892      1.0  0.92695  0.27877  0.01624  1.0000
  Fe  Fe74      1.0  0.64731  0.30873  0.65038  1.0000
  Fe  Fe75      1.0  0.63894  0.25939  0.70399  1.0000
  S   S148      1.0  0.60392  0.28475  0.73213  1.0000
  S   S149      1.0  0.65905  0.21493  0.71934  1.0000
  Fe  Fe76      1.0  0.58653  0.29572  0.68017  1.0000
  S   S150      1.0  0.53704  0.29728  0.67159  1.0000
  S   S151      1.0  0.61939  0.26730  0.65195  1.0000
  Fe  Fe77      1.0  0.60822  0.02155  0.85552  1.0000
  S   S152      1.0  0.64214  0.05298  0.83400  1.0000
  C   C519      1.0  0.81177  0.15537  0.52754  1.0000
  Fe  Fe78      1.0  0.60291  0.05659  0.92334  1.0000
  S   S153      1.0  0.63676  0.09010  0.90677  1.0000
  S   S154      1.0  0.57184  0.06233  0.96891  1.0000
  Fe  Fe79      1.0  0.61458  0.08997  0.85565  1.0000
  S   S155      1.0  0.59826  0.13281  0.83117  1.0000
  Fe  Fe80      1.0  0.66177  0.05057  0.88654  1.0000
  S   S156      1.0  0.71147  0.04984  0.89291  1.0000
  S   S157      1.0  0.57895  0.05884  0.87321  1.0000
  S   S158      1.0  0.62967  0.01664  0.90698  1.0000
  Fe  Fe81      1.0  0.92085  0.19022  0.69990  1.0000
  S   S159      1.0  0.89763  0.22307  0.66638  1.0000
  S   S160      1.0  0.96826  0.19525  0.71851  1.0000
  Fe  Fe82      1.0  0.86677  0.14947  0.70415  1.0000
  S   S161      1.0  0.83936  0.17988  0.67081  1.0000
  S   S162      1.0  0.84495  0.10608  0.72083  1.0000
  Fe  Fe83      1.0  0.87998  0.18331  0.63814  1.0000
  S   S163      1.0  0.88541  0.18137  0.58051  1.0000
  Fe  Fe84      1.0  0.85934  0.21707  0.70187  1.0000
  S   S164      1.0  0.83283  0.25761  0.71826  1.0000
  S   S165      1.0  0.90618  0.15066  0.66945  1.0000
  S   S166      1.0  0.88346  0.18646  0.73757  1.0000
  C   C520      1.0  0.86215  0.07982  0.74817  1.0000
  C   C521      1.0  0.84757  0.05289  0.75497  1.0000
  C   C522      1.0  0.86011  0.03176  0.77716  1.0000
  C   C523      1.0  0.88751  0.03726  0.79267  1.0000
  C   C524      1.0  0.90215  0.06413  0.78573  1.0000
  C   C525      1.0  0.88955  0.08532  0.76362  1.0000
  H   H893      1.0  0.82647  0.04832  0.74302  1.0000
  H   H894      1.0  0.92332  0.06863  0.79758  1.0000
  H   H895      1.0  0.90099  0.10596  0.75866  1.0000
  C   C526      1.0  0.84949  0.28234  0.74771  1.0000
  C   C527      1.0  0.87554  0.27466  0.76489  1.0000
  C   C528      1.0  0.88846  0.29458  0.78813  1.0000
  C   C529      1.0  0.75565  0.05389  0.79611  1.0000
  C   C530      1.0  0.87587  0.32261  0.79406  1.0000
  C   C531      1.0  0.83646  0.31016  0.75412  1.0000
  H   H896      1.0  0.88566  0.25326  0.76044  1.0000
  H   H897      1.0  0.54181  0.00948  0.92426  1.0000
  C   C532      1.0  0.92211  0.32777  0.71012  1.0000
  C   C533      1.0  0.90150  0.09535  0.59581  1.0000
  C   C534      1.0  0.84955  0.04950  0.60266  1.0000
  C   C535      1.0  0.86072  0.16938  0.54813  1.0000
  C   C536      1.0  0.83034  0.16581  0.55385  1.0000
  C   C537      1.0  0.86927  0.10154  0.60676  1.0000
  C   C538      1.0  0.76061  0.01600  0.88138  1.0000
  H   H898      1.0  0.82120  0.17112  0.57848  1.0000
  H   H899      1.0  0.76222  0.13038  0.73939  1.0000
  H   H900      1.0  0.71698  0.13998  0.82444  1.0000
  H   H901      1.0  0.77305  0.03555  0.88858  1.0000
  H   H902      1.0  0.73143  0.23984  0.60021  1.0000
  N   N40       1.0  0.84617  0.08136  0.59139  1.0000
  H   H903      1.0  0.78831  0.15258  0.53217  1.0000
  H   H904      1.0  0.76669  0.04571  0.81957  1.0000
  H   H905      1.0  0.56401  0.12695  0.76510  1.0000
  C   C539      1.0  0.67216  0.32479  0.56392  1.0000
  C   C540      1.0  0.53308  0.23676  0.68055  1.0000
  H   H906      1.0  0.79818  0.07798  0.58944  1.0000
  H   H907      1.0  0.53146  0.06201  0.81079  1.0000
  C   C541      1.0  0.97991  0.23973  0.67230  1.0000
  H   H908      1.0  0.50219  0.15988  0.57611  1.0000
  H   H909      1.0  0.55700  0.23677  0.68272  1.0000
  H   H910      1.0  0.56010  0.16344  0.97902  1.0000
  H   H911      1.0  0.95752  0.23682  0.66341  1.0000
  C   C542      1.0  0.64223  0.19229  0.75070  1.0000
  C   C543      1.0  0.65605  0.16566  0.76065  1.0000
  C   C544      1.0  0.64314  0.14718  0.78548  1.0000
  C   C545      1.0  0.61624  0.15527  0.80052  1.0000
  C   C546      1.0  0.60250  0.18187  0.79054  1.0000
  C   C547      1.0  0.61535  0.20027  0.76576  1.0000
  H   H912      1.0  0.67678  0.15932  0.74905  1.0000
  H   H913      1.0  0.65387  0.12671  0.79288  1.0000
  H   H914      1.0  0.58183  0.18838  0.80215  1.0000
  H   H915      1.0  0.60445  0.22062  0.75832  1.0000
  H   H916      1.0  0.50406  0.01369  0.93886  1.0000
  S   S167      1.0  0.66933  0.29878  0.70059  1.0000
  C   C548      1.0  0.81564  0.09303  0.59955  1.0000
  H   H917      1.0  0.85135  0.10612  0.54448  1.0000
  H   H918      1.0  0.93342  0.29201  0.74222  1.0000
  H   H919      1.0  0.54556  0.09781  0.82002  1.0000
  H   H920      1.0  0.73096  0.20093  0.72136  1.0000
  H   H921      1.0  0.86685  0.03828  0.58708  1.0000
  H   H922      1.0  0.80457  0.08110  0.53202  1.0000
  H   H923      1.0  0.79927  0.09755  0.84625  1.0000
  C   C549      1.0  0.98751  0.02258  0.82553  1.0000
  H   H924      1.0  0.79411  0.27075  0.60845  1.0000
  H   H925      1.0  0.97399  0.17094  0.79159  1.0000
  C   C550      1.0  0.51624  0.14937  0.80251  1.0000
  H   H926      1.0  0.75039  0.08629  0.85123  1.0000
  C   C551      1.0  0.65010  0.30721  0.54904  1.0000
  C   C552      1.0  0.56577  0.14305  0.99334  1.0000
  C   C553      1.0  0.51815  0.13075  0.74232  1.0000
  H   H927      1.0  0.91691  0.10788  0.61252  1.0000
  H   H928      1.0  0.75424  0.19081  0.68652  1.0000
  H   H929      1.0  0.81447  0.23692  0.60734  1.0000
  H   H930      1.0  0.97685  0.20341  0.81809  1.0000
  H   H931      1.0  0.87104  0.07220  0.54518  1.0000
  C   C554      1.0  0.50414  0.09710  0.78982  1.0000
  H   H932      1.0  0.73942  0.08173  0.74383  1.0000
  H   H933      1.0  0.73025  0.01288  0.79542  1.0000
  H   H934      1.0  0.90556  0.10341  0.56958  1.0000
  H   H935      1.0  0.90843  0.28825  0.80151  1.0000
  H   H936      1.0  0.63592  0.29381  0.56495  1.0000
  C   C555      1.0  0.51727  0.21000  0.68321  1.0000
  N   N41       1.0  0.74738  0.24650  0.65149  1.0000
  C   C556      1.0  0.77838  0.23590  0.64371  1.0000
  C   C557      1.0  0.74023  0.23784  0.68761  1.0000
  C   C558      1.0  0.74480  0.27970  0.64815  1.0000
  C   C559      1.0  0.72633  0.23241  0.62648  1.0000
  H   H937      1.0  0.94595  0.32888  0.78440  1.0000
  C   C560      1.0  0.73486  0.20449  0.69380  1.0000
  C   C561      1.0  0.76634  0.29793  0.67038  1.0000
  C   C562      1.0  0.69309  0.23948  0.63151  1.0000
  H   H938      1.0  0.79413  0.24253  0.66408  1.0000
  H   H939      1.0  0.77928  0.21125  0.64337  1.0000
  H   H940      1.0  0.72058  0.25007  0.69739  1.0000
  H   H941      1.0  0.75857  0.24442  0.70508  1.0000
  H   H942      1.0  0.74753  0.28683  0.62126  1.0000
  H   H943      1.0  0.72204  0.28719  0.65491  1.0000
  H   H944      1.0  0.54576  0.12910  0.99672  1.0000
  H   H945      1.0  0.72924  0.20790  0.62528  1.0000
  H   H946      1.0  0.78990  0.29303  0.66466  1.0000
  H   H947      1.0  0.81203  0.11479  0.58683  1.0000
  H   H948      1.0  0.52201  0.18762  0.76781  1.0000
  C   C563      1.0  0.97747  0.27214  0.77721  1.0000
  H   H949      1.0  0.90421  0.31469  0.69771  1.0000
  H   H950      1.0  0.55835  0.15801  0.73706  1.0000
  H   H951      1.0  0.68639  0.25897  0.61602  1.0000
  H   H952      1.0  0.68702  0.24391  0.65817  1.0000
  H   H953      1.0  0.67952  0.22006  0.62375  1.0000
  H   H954      1.0  0.54928  0.08165  0.77769  1.0000
  H   H955      1.0  0.97943  0.04026  0.84299  1.0000
  H   H956      1.0  0.58108  0.13000  0.97700  1.0000
  C   C564      1.0  0.72582  0.03711  0.79394  1.0000
  H   H957      1.0  0.71645  0.08883  0.83026  1.0000
  C   C565      1.0  0.78514  0.09893  0.79243  1.0000
  H   H958      1.0  0.52747  0.28231  0.74262  1.0000
  H   H959      1.0  0.50541  0.14604  0.82764  1.0000
  H   H960      1.0  0.75698  0.14331  0.82728  1.0000
  H   H961      1.0  0.72340  0.13271  0.73163  1.0000
  H   H962      1.0  0.53992  0.14483  0.80738  1.0000
  H   H963      1.0  0.79481  0.09122  0.76795  1.0000
  H   H964      1.0  0.71093  0.04241  0.81543  1.0000
  H   H965      1.0  0.77899  0.23818  0.58750  1.0000
  C   C566      1.0  0.53460  0.08455  0.79996  1.0000
  C   C567      1.0  0.50948  0.01146  0.88244  1.0000
  C   C568      1.0  0.72956  0.01683  0.88141  1.0000
  H   H966      1.0  0.81158  0.06596  0.82117  1.0000
  C   C569      1.0  0.79176  0.24630  0.60970  1.0000
  H   H967      1.0  0.85232  0.06149  0.65837  1.0000
  C   C570      1.0  0.73968  0.09699  0.82887  1.0000
  H   H968      1.0  0.76224  0.29441  0.69785  1.0000
  H   H969      1.0  0.51260  0.11115  0.72629  1.0000
  H   H970      1.0  0.90731  0.07152  0.59774  1.0000
  H   H971      1.0  0.51927  0.99899  0.81327  1.0000
  H   H972      1.0  0.73667  0.13417  0.86374  1.0000
  H   H973      1.0  0.71468  0.19652  0.68051  1.0000
  H   H974      1.0  0.71120  0.09461  0.77172  1.0000
  C   C571      1.0  0.80698  0.09014  0.82092  1.0000
  S   S168      1.0  0.90423  0.01129  0.82079  1.0000
  C   C572      1.0  0.74018  0.12831  0.75170  1.0000
  N   N42       1.0  0.75389  0.08740  0.79602  1.0000
  C   C573      1.0  0.80806  0.09753  0.63727  1.0000
  C   C574      1.0  0.73528  0.09674  0.76585  1.0000
  H   H975      1.0  0.78593  0.12345  0.79083  1.0000
  H   H976      1.0  0.52794  0.19550  0.81187  1.0000
  H   H977      1.0  0.82860  0.10118  0.81613  1.0000
  H   H978      1.0  0.80628  0.07611  0.65089  1.0000
  C   C575      1.0  0.73750  0.13056  0.83583  1.0000
  H   H979      1.0  0.76957  0.04583  0.77461  1.0000
  H   H980      1.0  0.52917  0.18946  0.68716  1.0000
  H   H981      1.0  0.73758  0.14585  0.77106  1.0000
  H   H982      1.0  0.82368  0.11269  0.65030  1.0000
  C   C576      1.0  0.51985  0.01956  0.91860  1.0000
  H   H983      1.0  0.50934  0.15025  0.72824  1.0000
  C   C577      1.0  0.51793  0.26333  0.67456  1.0000
  H   H984      1.0  0.71406  0.04114  0.76963  1.0000
  C   C578      1.0  0.58030  0.06462  0.01297  1.0000
  H   H985      1.0  0.95202  0.29105  0.70276  1.0000
  H   H986      1.0  0.96219  0.25683  0.76363  1.0000
  H   H987      1.0  0.56165  0.12168  0.72058  1.0000
  H   H988      1.0  0.81623  0.31624  0.74107  1.0000
  H   H989      1.0  0.76276  0.32188  0.66521  1.0000
  H   H990      1.0  0.82870  0.03692  0.59795  1.0000
  H   H991      1.0  0.97798  0.02118  0.90398  1.0000
  C   C579      1.0  0.51400  0.18269  0.79380  1.0000
  C   C580      1.0  0.84984  0.08271  0.55322  1.0000
  H   H992      1.0  0.86429  0.12501  0.60029  1.0000
  C   C581      1.0  0.99110  0.22148  0.69800  1.0000
  H   H993      1.0  0.78589  0.10816  0.63906  1.0000
  C   C582      1.0  0.94557  0.30612  0.72395  1.0000
  H   H994      1.0  0.84862  0.01119  0.78220  1.0000
  H   H995      1.0  0.86904  0.10118  0.63486  1.0000
  C   C583      1.0  0.51495  0.28744  0.76626  1.0000
  N   N43       1.0  0.50320  0.12851  0.77651  1.0000
  H   H996      1.0  0.52213  0.04405  0.92052  1.0000
  C   C584      1.0  0.55228  0.13453  0.74210  1.0000
  H   H997      1.0  0.53013  0.01006  0.86709  1.0000
  H   H998      1.0  0.99178  0.15104  0.84186  1.0000
  C   C585      1.0  0.85888  0.04413  0.64007  1.0000
  H   H999      1.0  0.98840  0.27665  0.63900  1.0000
  C   C586      1.0  0.99202  0.29439  0.75254  1.0000
  N   N44       1.0  0.50716  0.32005  0.76777  1.0000
  H   H1000     1.0  0.99502  0.25794  0.78854  1.0000
  C   C587      1.0  0.82531  0.06779  0.53184  1.0000
  N   N45       1.0  0.97275  0.31962  0.74015  1.0000
  H   H1001     1.0  0.99399  0.32136  0.69097  1.0000
  H   H1002     1.0  0.62717  0.05708  0.00803  1.0000
  H   H1003     1.0  0.99632  0.05630  0.78745  1.0000
  H   H1004     1.0  0.96569  0.28331  0.79832  1.0000
  H   H1005     1.0  0.88319  0.04045  0.64190  1.0000
  C   C588      1.0  0.98975  0.18563  0.80533  1.0000
  H   H1006     1.0  0.52997  0.28108  0.78747  1.0000
  H   H1007     1.0  0.84860  0.02319  0.64910  1.0000
  H   H1008     1.0  0.82078  0.04476  0.54018  1.0000
  H   H1009     1.0  0.56836  0.31126  0.78996  1.0000
  C   C589      1.0  0.96262  0.00427  0.89378  1.0000
  H   H1010     1.0  0.50929  0.31721  0.82306  1.0000
  Fe  Fe85      1.0  0.63271  0.32499  0.72492  1.0000
  S   S169      1.0  0.67875  0.32496  0.60867  1.0000
  H   H1011     1.0  0.96737  0.01533  0.81146  1.0000
  H   H1012     1.0  0.94293  0.01587  0.88315  1.0000
  H   H1013     1.0  0.78894  0.99878  0.95339  1.0000
  H   H1014     1.0  0.54470  0.33041  0.73573  1.0000
  C   C590      1.0  0.84965  0.33029  0.77709  1.0000
  C   C591      1.0  0.87217  0.16285  0.51577  1.0000
  H   H1015     1.0  0.49784  0.03106  0.87152  1.0000
  S   S170      1.0  0.90037  0.33444  0.16602  1.0000
  S   S171      1.0  0.64797  0.38717  0.38104  1.0000
  H   H1016     1.0  0.63410  0.65137  0.26649  1.0000
  Fe  Fe86      1.0  0.72574  0.35971  0.35077  1.0000
  S   S172      1.0  0.70090  0.39565  0.32324  1.0000
  H   H1017     1.0  0.77292  0.59145  0.46176  1.0000
  Fe  Fe87      1.0  0.69067  0.41266  0.37559  1.0000
  S   S173      1.0  0.69031  0.46188  0.38648  1.0000
  Fe  Fe88      1.0  0.65999  0.36769  0.33045  1.0000
  S   S174      1.0  0.62952  0.35676  0.28570  1.0000
  S   S175      1.0  0.71865  0.37888  0.40310  1.0000
  Fe  Fe89      1.0  0.93489  0.36155  0.13904  1.0000
  S   S176      1.0  0.93960  0.35954  0.08106  1.0000
  Fe  Fe90      1.0  0.96622  0.37752  0.20691  1.0000
  H   H1018     1.0  0.86985  0.43558  0.03772  1.0000
  C   C592      1.0  0.68203  0.50274  0.29903  1.0000
  Fe  Fe91      1.0  0.89868  0.37139  0.20430  1.0000
  S   S177      1.0  0.85513  0.39154  0.22222  1.0000
  C   C593      1.0  0.58875  0.53608  0.03643  1.0000
  S   S178      1.0  0.93095  0.40009  0.17519  1.0000
  C   C594      1.0  0.91959  0.37942  0.04927  1.0000
  H   H1019     1.0  0.88040  0.57264  0.45862  1.0000
  C   C595      1.0  0.68666  0.34166  0.50695  1.0000
  C   C596      1.0  0.89965  0.40215  0.05730  1.0000
  H   H1020     1.0  0.53989  0.36822  0.21625  1.0000
  H   H1021     1.0  0.89576  0.40782  0.08361  1.0000
  C   C597      1.0  0.72335  0.48092  0.37737  1.0000
  C   C598      1.0  0.72432  0.51190  0.38072  1.0000
  C   C599      1.0  0.77445  0.48138  0.35843  1.0000
  C   C600      1.0  0.74842  0.46570  0.36599  1.0000
  H   H1022     1.0  0.79382  0.46943  0.35009  1.0000
  H   H1023     1.0  0.74781  0.44181  0.36324  1.0000
  C   C601      1.0  0.53742  0.39552  0.26099  1.0000
  C   C602      1.0  0.55272  0.40497  0.29023  1.0000
  C   C603      1.0  0.58098  0.39346  0.29827  1.0000
  C   C604      1.0  0.59451  0.37293  0.27659  1.0000
  C   C605      1.0  0.57966  0.36439  0.24674  1.0000
  C   C606      1.0  0.55110  0.37521  0.23921  1.0000
  H   H1024     1.0  0.54241  0.42084  0.30713  1.0000
  H   H1025     1.0  0.59217  0.40029  0.32131  1.0000
  H   H1026     1.0  0.79705  0.48797  0.48636  1.0000
  C   C607      1.0  0.56372  0.44875  0.18967  1.0000
  H   H1027     1.0  0.84224  0.52051  0.50510  1.0000
  C   C608      1.0  0.78501  0.37818  0.28523  1.0000
  C   C609      1.0  0.80401  0.38923  0.25988  1.0000
  C   C610      1.0  0.83176  0.37606  0.25379  1.0000
  N   N46       1.0  0.99659  0.53683  0.13362  1.0000
  H   H1028     1.0  0.76366  0.38845  0.28946  1.0000
  H   H1029     1.0  0.79705  0.40802  0.24475  1.0000
  C   C611      1.0  0.79353  0.35370  0.30477  1.0000
  C   C612      1.0  0.83230  0.57576  0.46787  1.0000
  Fe  Fe92      1.0  0.56459  0.58719  0.14333  1.0000
  S   S179      1.0  0.59616  0.62244  0.16150  1.0000
  S   S180      1.0  0.57608  0.55367  0.10164  1.0000
  Fe  Fe93      1.0  0.52213  0.59780  0.20409  1.0000
  S   S181      1.0  0.55081  0.63359  0.22690  1.0000
  H   H1030     1.0  0.63997  0.42257  0.28478  1.0000
  H   H1031     1.0  0.68811  0.48745  0.32001  1.0000
  Fe  Fe94      1.0  0.58994  0.60438  0.21418  1.0000
  S   S182      1.0  0.62844  0.58860  0.24754  1.0000
  S   S183      1.0  0.52360  0.61498  0.15040  1.0000
  S   S184      1.0  0.56079  0.56726  0.19553  1.0000
  Fe  Fe95      1.0  0.82300  0.63635  0.39382  1.0000
  S   S185      1.0  0.85041  0.60475  0.36260  1.0000
  C   C613      1.0  0.64898  0.44386  0.27515  1.0000
  Fe  Fe96      1.0  0.77322  0.63743  0.34038  1.0000
  S   S186      1.0  0.79716  0.60647  0.30514  1.0000
  C   C614      1.0  0.83537  0.65752  0.48438  1.0000
  Fe  Fe97      1.0  0.80743  0.58112  0.35287  1.0000
  S   S187      1.0  0.80884  0.53108  0.35356  1.0000
  Fe  Fe98      1.0  0.83834  0.63257  0.31757  1.0000
  S   S188      1.0  0.86979  0.64955  0.27667  1.0000
  S   S189      1.0  0.78078  0.61035  0.38774  1.0000
  H   H1032     1.0  0.83394  0.43067  0.35583  1.0000
  H   H1033     1.0  0.79114  0.55456  0.42243  1.0000
  H   H1034     1.0  0.70435  0.51627  0.25184  1.0000
  H   H1035     1.0  0.61364  0.46841  0.29849  1.0000
  C   C615      1.0  0.64415  0.50771  0.25335  1.0000
  C   C616      1.0  0.90369  0.63174  0.26621  1.0000
  C   C617      1.0  0.91487  0.60813  0.28541  1.0000
  C   C618      1.0  0.94237  0.59520  0.27698  1.0000
  C   C619      1.0  0.95921  0.60601  0.24964  1.0000
  C   C620      1.0  0.94787  0.62941  0.23020  1.0000
  C   C621      1.0  0.92017  0.64205  0.23834  1.0000
  H   H1036     1.0  0.90243  0.59994  0.30689  1.0000
  H   H1037     1.0  0.95084  0.57697  0.29200  1.0000
  H   H1038     1.0  0.96028  0.63755  0.20866  1.0000
  H   H1039     1.0  0.89595  0.50129  0.26353  1.0000
  C   C622      1.0  0.65683  0.60953  0.26775  1.0000
  C   C623      1.0  0.65392  0.63988  0.27450  1.0000
  S   S190      1.0  0.50203  0.41068  0.25158  1.0000
  C   C624      1.0  0.70185  0.64008  0.30402  1.0000
  C   C625      1.0  0.70497  0.60986  0.29673  1.0000
  C   C626      1.0  0.68252  0.59470  0.27888  1.0000
  H   H1040     1.0  0.72448  0.59804  0.30528  1.0000
  H   H1041     1.0  0.68510  0.57132  0.27366  1.0000
  C   C627      1.0  0.57425  0.55732  0.05666  1.0000
  C   C628      1.0  0.55727  0.57928  0.04065  1.0000
  H   H1042     1.0  0.68720  0.52535  0.30894  1.0000
  C   C629      1.0  0.82137  0.34061  0.29885  1.0000
  H   H1043     1.0  0.54583  0.59566  0.05585  1.0000
  H   H1044     1.0  0.60182  0.51892  0.04850  1.0000
  C   C630      1.0  0.75018  0.52763  0.37248  1.0000
  C   C631      1.0  0.77540  0.51234  0.36165  1.0000
  H   H1045     1.0  0.70503  0.52378  0.38967  1.0000
  H   H1046     1.0  0.75060  0.55151  0.37484  1.0000
  H   H1047     1.0  0.50749  0.40908  0.13957  1.0000
  C   C632      1.0  0.96401  0.58346  0.14207  1.0000
  H   H1048     1.0  0.95275  0.51785  0.13746  1.0000
  C   C633      1.0  0.63831  0.46906  0.29844  1.0000
  N   N47       1.0  0.64941  0.49979  0.29011  1.0000
  H   H1049     1.0  0.76837  0.56487  0.49559  1.0000
  H   H1050     1.0  0.81928  0.58894  0.48655  1.0000
  C   C634      1.0  0.82010  0.53026  0.49932  1.0000
  H   H1051     1.0  0.74581  0.66052  0.24260  1.0000
  C   C635      1.0  0.97184  0.51790  0.11952  1.0000
  S   S191      1.0  0.77008  0.33864  0.33654  1.0000
  Fe  Fe99      1.0  0.67678  0.35182  0.40485  1.0000
  N   N48       1.0  0.51765  0.47968  0.17208  1.0000
  H   H1052     1.0  0.50332  0.54350  0.03959  1.0000
  H   H1053     1.0  0.86180  0.34148  0.26922  1.0000
  H   H1054     1.0  0.83031  0.58788  0.44326  1.0000
  S   S192      1.0  0.84641  0.65338  0.44138  1.0000
  H   H1055     1.0  0.90141  0.44392  0.22814  1.0000
  H   H1056     1.0  0.82302  0.43193  0.31236  1.0000
  H   H1057     1.0  0.78877  0.65029  0.47616  1.0000
  N   N49       1.0  0.82018  0.54462  0.46462  1.0000
  C   C636      1.0  0.80582  0.65511  0.49470  1.0000
  C   C637      1.0  0.86492  0.57830  0.47951  1.0000
  H   H1058     1.0  0.52610  0.50998  0.09086  1.0000
  H   H1059     1.0  0.79633  0.45133  0.03988  1.0000
  C   C638      1.0  0.83140  0.49589  0.43169  1.0000
  H   H1060     1.0  0.50234  0.52716  0.12116  1.0000
  C   C639      1.0  0.88496  0.41786  0.03117  1.0000
  H   H1061     1.0  0.92986  0.46296  0.25258  1.0000
  H   H1062     1.0  0.84163  0.44265  0.25968  1.0000
  H   H1063     1.0  0.82937  0.50836  0.25455  1.0000
  H   H1064     1.0  0.55211  0.49257  0.20741  1.0000
  H   H1065     1.0  0.54970  0.47952  0.13054  1.0000
  S   S193      1.0  0.93350  0.35190  0.23846  1.0000
  C   C640      1.0  0.63237  0.52171  0.31157  1.0000
  C   C641      1.0  0.63611  0.51828  0.35038  1.0000
  H   H1066     1.0  0.63869  0.54490  0.30483  1.0000
  H   H1067     1.0  0.60812  0.52008  0.30679  1.0000
  H   H1068     1.0  0.62623  0.49730  0.35976  1.0000
  H   H1069     1.0  0.65957  0.51945  0.35852  1.0000
  H   H1070     1.0  0.62426  0.53673  0.36325  1.0000
  H   H1071     1.0  0.59998  0.48680  0.24755  1.0000
  H   H1072     1.0  0.84542  0.48813  0.41028  1.0000
  H   H1073     1.0  0.86972  0.56457  0.50220  1.0000
  Fe  Fe100     1.0  0.55481  0.64882  0.17256  1.0000
  H   H1074     1.0  0.89237  0.54100  0.30362  1.0000
  H   H1075     1.0  0.50880  0.52352  0.19279  1.0000
  S   S194      1.0  0.72913  0.65954  0.32782  1.0000
  H   H1076     1.0  0.77858  0.52494  0.44743  1.0000
  H   H1077     1.0  0.85576  0.52695  0.29981  1.0000
  H   H1078     1.0  0.92956  0.42362  0.24976  1.0000
  H   H1079     1.0  0.59914  0.52692  0.25187  1.0000
  C   C642      1.0  0.49997  0.45261  0.16192  1.0000
  H   H1080     1.0  0.99023  0.48409  0.17308  1.0000
  H   H1081     1.0  0.99246  0.57498  0.09959  1.0000
  H   H1082     1.0  0.57919  0.44601  0.21143  1.0000
  H   H1083     1.0  0.57727  0.45531  0.16750  1.0000
  H   H1084     1.0  0.96086  0.60596  0.13109  1.0000
  H   H1085     1.0  0.55347  0.42665  0.18570  1.0000
  H   H1086     1.0  0.95374  0.50655  0.06980  1.0000
  C   C643      1.0  0.53313  0.49424  0.14253  1.0000
  H   H1087     1.0  0.86091  0.47027  0.23818  1.0000
  H   H1088     1.0  0.80471  0.47692  0.25469  1.0000
  H   H1089     1.0  0.81769  0.49077  0.29352  1.0000
  C   C644      1.0  0.51314  0.43253  0.13379  1.0000
  H   H1090     1.0  0.87818  0.51815  0.33663  1.0000
  H   H1091     1.0  0.85562  0.41128  0.32541  1.0000
  H   H1092     1.0  0.67335  0.44160  0.27559  1.0000
  C   C645      1.0  0.70490  0.49777  0.27045  1.0000
  H   H1093     1.0  0.70091  0.35495  0.49099  1.0000
  H   H1094     1.0  0.65621  0.49249  0.23606  1.0000
  H   H1095     1.0  0.97912  0.49433  0.11757  1.0000
  C   C646      1.0  0.61156  0.50775  0.24136  1.0000
  H   H1096     1.0  0.97609  0.53905  0.18351  1.0000
  H   H1097     1.0  0.84202  0.54043  0.41600  1.0000
  H   H1098     1.0  0.64076  0.44633  0.24876  1.0000
  H   H1099     1.0  0.70197  0.47647  0.25697  1.0000
  H   H1100     1.0  0.61102  0.51040  0.21330  1.0000
  H   H1101     1.0  0.64498  0.46253  0.32467  1.0000
  H   H1102     1.0  0.96612  0.58654  0.16993  1.0000
  H   H1103     1.0  0.53745  0.43330  0.13102  1.0000
  H   H1104     1.0  0.91148  0.65990  0.22290  1.0000
  H   H1105     1.0  0.86308  0.52643  0.45061  1.0000
  H   H1106     1.0  0.97336  0.54060  0.06842  1.0000
  H   H1107     1.0  0.65325  0.53017  0.24792  1.0000
  C   C647      1.0  0.67629  0.65505  0.29268  1.0000
  H   H1108     1.0  0.72750  0.49757  0.28181  1.0000
  H   H1109     1.0  0.86968  0.60171  0.48645  1.0000
  C   C648      1.0  0.84042  0.35169  0.27348  1.0000
  C   C649      1.0  0.85724  0.66378  0.50886  1.0000
  N   N50       1.0  0.87425  0.46555  0.29076  1.0000
  C   C650      1.0  0.89565  0.44042  0.28381  1.0000
  C   C651      1.0  0.86135  0.46027  0.32556  1.0000
  C   C652      1.0  0.89166  0.49422  0.29018  1.0000
  C   C653      1.0  0.85091  0.46524  0.26330  1.0000
  C   C654      1.0  0.91496  0.44343  0.25164  1.0000
  C   C655      1.0  0.84258  0.43182  0.32947  1.0000
  C   C656      1.0  0.87828  0.52127  0.30867  1.0000
  C   C657      1.0  0.82456  0.48681  0.26704  1.0000
  H   H1110     1.0  0.91121  0.43738  0.30558  1.0000
  H   H1111     1.0  0.88377  0.41894  0.28101  1.0000
  H   H1112     1.0  0.84700  0.47881  0.33391  1.0000
  H   H1113     1.0  0.87940  0.45942  0.34491  1.0000
  H   H1114     1.0  0.91392  0.49095  0.30201  1.0000
  C   C658      1.0  0.78962  0.54686  0.44921  1.0000
  C   C659      1.0  0.84013  0.52803  0.44042  1.0000
  C   C660      1.0  0.76794  0.56789  0.46767  1.0000
  H   H1115     1.0  0.93721  0.53845  0.08783  1.0000
  H   H1116     1.0  0.83598  0.48077  0.45327  1.0000
  H   H1117     1.0  0.94388  0.57033  0.13640  1.0000
  H   H1118     1.0  0.59044  0.34938  0.22928  1.0000
  H   H1119     1.0  0.80818  0.49360  0.42299  1.0000
  H   H1120     1.0  0.74501  0.56352  0.45857  1.0000
  S   S195      1.0  0.97289  0.34136  0.16851  1.0000
  S   S196      1.0  0.99368  0.58894  0.23998  1.0000
  C   C661      1.0  0.99233  0.56954  0.12698  1.0000
  H   H1121     1.0  0.52936  0.46310  0.22210  1.0000
  C   C662      1.0  0.54024  0.47214  0.19905  1.0000
  C   C663      1.0  0.95881  0.52696  0.08458  1.0000
  C   C664      1.0  0.51263  0.50567  0.11393  1.0000
  H   H1122     1.0  0.54646  0.51355  0.15149  1.0000
  H   H1123     1.0  0.50236  0.43708  0.10894  1.0000
  C   C665      1.0  0.79684  0.50573  0.50569  1.0000
  H   H1124     1.0  0.77409  0.51494  0.50735  1.0000
  C   C666      1.0  0.49905  0.52857  0.01765  1.0000
  H   H1125     1.0  0.51675  0.51155  0.01797  1.0000
  H   H1126     1.0  0.51094  0.46165  0.03368  1.0000
  H   H1127     1.0  0.52610  0.60015  0.81123  1.0000
  C   C667      1.0  0.95199  0.61151  0.72028  1.0000
  H   H1128     1.0  0.69290  0.45789  0.78118  1.0000
  S   S197      1.0  0.64354  0.35493  0.76991  1.0000
  C   C668      1.0  0.96892  0.47246  0.87811  1.0000
  Fe  Fe101     1.0  0.86829  0.42608  0.90725  1.0000
  S   S198      1.0  0.84019  0.39133  0.88181  1.0000
  S   S199      1.0  0.87119  0.43214  0.96497  1.0000
  Fe  Fe102     1.0  0.87958  0.45860  0.83913  1.0000
  S   S200      1.0  0.85303  0.42572  0.80864  1.0000
  S   S201      1.0  0.90405  0.49829  0.81670  1.0000
  Fe  Fe103     1.0  0.82053  0.42882  0.85166  1.0000
  S   S202      1.0  0.77120  0.42908  0.84169  1.0000
  Fe  Fe104     1.0  0.87482  0.39078  0.84086  1.0000
  H   H1129     1.0  0.67868  0.44511  0.74182  1.0000
  S   S203      1.0  0.84557  0.46393  0.88007  1.0000
  S   S204      1.0  0.90458  0.42337  0.86825  1.0000
  H   H1130     1.0  0.50485  0.37462  0.80149  1.0000
  C   C669      1.0  0.78382  0.49496  0.95282  1.0000
  H   H1131     1.0  0.91337  0.38233  0.96240  1.0000
  C   C670      1.0  0.55408  0.57926  0.00493  1.0000
  H   H1132     1.0  0.84164  0.50575  0.79861  1.0000
  C   C671      1.0  0.70658  0.49004  0.85605  1.0000
  C   C672      1.0  0.72172  0.46372  0.84797  1.0000
  C   C673      1.0  0.75279  0.46301  0.84795  1.0000
  C   C674      1.0  0.76865  0.48894  0.85494  1.0000
  H   H1133     1.0  0.68263  0.49028  0.85663  1.0000
  H   H1134     1.0  0.70929  0.44370  0.84277  1.0000
  H   H1135     1.0  0.79254  0.48882  0.85416  1.0000
  C   C675      1.0  0.62889  0.39115  0.77502  1.0000
  C   C676      1.0  0.61197  0.40470  0.74961  1.0000
  C   C677      1.0  0.60126  0.43376  0.75427  1.0000
  C   C678      1.0  0.60734  0.44957  0.78428  1.0000
  C   C679      1.0  0.62448  0.43613  0.80958  1.0000
  C   C680      1.0  0.63502  0.40697  0.80503  1.0000
  H   H1136     1.0  0.60725  0.39287  0.72632  1.0000
  H   H1137     1.0  0.58821  0.44408  0.73444  1.0000
  H   H1138     1.0  0.62928  0.44804  0.83282  1.0000
  H   H1139     1.0  0.64815  0.39667  0.82481  1.0000
  H   H1140     1.0  0.71657  0.45894  0.74495  1.0000
  H   H1141     1.0  0.69483  0.41602  0.69989  1.0000
  H   H1142     1.0  0.72580  0.41715  0.78840  1.0000
  C   C681      1.0  0.69045  0.34190  0.54261  1.0000
  H   H1143     1.0  0.59685  0.51953  0.98568  1.0000
  C   C682      1.0  0.96551  0.63229  0.74740  1.0000
  Fe  Fe105     1.0  0.60621  0.51937  0.82905  1.0000
  S   S205      1.0  0.64033  0.55318  0.81392  1.0000
  S   S206      1.0  0.59147  0.48519  0.78978  1.0000
  Fe  Fe106     1.0  0.59326  0.55066  0.89775  1.0000
  S   S207      1.0  0.62709  0.58611  0.88748  1.0000
  S   S208      1.0  0.55938  0.55485  0.94082  1.0000
  Fe  Fe107     1.0  0.60923  0.58776  0.83424  1.0000
  S   S209      1.0  0.59297  0.63095  0.81071  1.0000
  Fe  Fe108     1.0  0.65531  0.54854  0.86810  1.0000
  S   S210      1.0  0.70440  0.54775  0.87878  1.0000
  S   S211      1.0  0.57358  0.55437  0.84529  1.0000
  S   S212      1.0  0.62301  0.51250  0.88241  1.0000
  Fe  Fe109     1.0  0.85242  0.64105  0.71041  1.0000
  H   H1144     1.0  0.77145  0.58935  0.76664  1.0000
  S   S213      1.0  0.83372  0.60135  0.73941  1.0000
  H   H1145     1.0  0.74509  0.33761  0.79342  1.0000
  H   H1146     1.0  0.76332  0.40387  0.96524  1.0000
  S   S214      1.0  0.87406  0.63971  0.65895  1.0000
  C   C683      1.0  0.85405  0.57280  0.76015  1.0000
  C   C684      1.0  0.83876  0.54773  0.77212  1.0000
  C   C685      1.0  0.85375  0.52489  0.78957  1.0000
  C   C686      1.0  0.88435  0.52675  0.79504  1.0000
  C   C687      1.0  0.89972  0.55178  0.78296  1.0000
  C   C688      1.0  0.88464  0.57474  0.76568  1.0000
  H   H1147     1.0  0.81518  0.54583  0.76768  1.0000
  H   H1148     1.0  0.92336  0.55344  0.78712  1.0000
  H   H1149     1.0  0.89653  0.59404  0.75693  1.0000
  H   H1150     1.0  0.52238  0.50967  0.86706  1.0000
  H   H1151     1.0  0.51026  0.63543  0.54174  1.0000
  C   C689      1.0  0.70976  0.41438  0.76726  1.0000
  H   H1152     1.0  0.75580  0.37553  0.79742  1.0000
  H   H1153     1.0  0.99299  0.64314  0.80707  1.0000
  C   C690      1.0  0.77263  0.64252  0.79325  1.0000
  C   C691      1.0  0.72253  0.51554  0.86475  1.0000
  C   C692      1.0  0.75355  0.51505  0.86372  1.0000
  H   H1154     1.0  0.76595  0.53476  0.87023  1.0000
  H   H1155     1.0  0.80808  0.43854  0.94794  1.0000
  C   C693      1.0  0.56845  0.55785  0.98473  1.0000
  H   H1156     1.0  0.53557  0.44971  0.75828  1.0000
  C   C694      1.0  0.52347  0.64912  0.86733  1.0000
  H   H1157     1.0  0.72521  0.44677  0.95007  1.0000
  H   H1158     1.0  0.81642  0.54708  0.51967  1.0000
  C   C695      1.0  0.52676  0.43305  0.77630  1.0000
  H   H1159     1.0  0.79445  0.63295  0.78609  1.0000
  C   C696      1.0  0.51997  0.61034  0.78659  1.0000
  H   H1160     1.0  0.70765  0.35551  0.55374  1.0000
  C   C697      1.0  0.88974  0.41090  0.99673  1.0000
  H   H1161     1.0  0.83096  0.48123  0.95272  1.0000
  C   C698      1.0  0.69951  0.39386  0.71110  1.0000
  H   H1162     1.0  0.83969  0.35179  0.78150  1.0000
  C   C699      1.0  0.95672  0.37168  0.76270  1.0000
  H   H1163     1.0  0.93976  0.35501  0.00825  1.0000
  H   H1164     1.0  0.94937  0.58852  0.72984  1.0000
  H   H1165     1.0  0.98903  0.55093  0.83589  1.0000
  H   H1166     1.0  0.67800  0.38597  0.72154  1.0000
  H   H1167     1.0  0.76762  0.43541  0.76736  1.0000
  H   H1168     1.0  0.50129  0.59830  0.77457  1.0000
  H   H1169     1.0  0.74411  0.43030  0.70966  1.0000
  H   H1170     1.0  0.74003  0.54932  0.76734  1.0000
  H   H1171     1.0  0.76029  0.39473  0.70498  1.0000
  H   H1172     1.0  0.77192  0.51319  0.96607  1.0000
  C   C700      1.0  0.64150  0.65127  0.77386  1.0000
  C   C701      1.0  0.74906  0.59621  0.77570  1.0000
  H   H1173     1.0  0.73887  0.60645  0.75280  1.0000
  C   C702      1.0  0.76300  0.66174  0.76265  1.0000
  C   C703      1.0  0.76708  0.45879  0.99657  1.0000
  H   H1174     1.0  0.50131  0.36347  0.71058  1.0000
  H   H1175     1.0  0.98839  0.46983  0.81414  1.0000
  H   H1176     1.0  0.73848  0.46931  0.91667  1.0000
  H   H1177     1.0  0.78392  0.39870  0.76232  1.0000
  H   H1178     1.0  0.78715  0.44836  0.91217  1.0000
  H   H1179     1.0  0.71827  0.49463  0.98593  1.0000
  H   H1180     1.0  0.71258  0.35054  0.68850  1.0000
  H   H1181     1.0  0.79108  0.41925  0.01479  1.0000
  C   C704      1.0  0.69962  0.61717  0.83429  1.0000
  H   H1182     1.0  0.51239  0.54645  0.78878  1.0000
  H   H1183     1.0  0.97627  0.38625  0.76650  1.0000
  H   H1184     1.0  0.76230  0.47943  0.01114  1.0000
  H   H1185     1.0  0.69472  0.59429  0.82608  1.0000
  H   H1186     1.0  0.77539  0.65783  0.53695  1.0000
  C   C705      1.0  0.53523  0.33717  0.76072  1.0000
  H   H1187     1.0  0.96599  0.44844  0.88380  1.0000
  H   H1188     1.0  0.70897  0.35023  0.74834  1.0000
  H   H1189     1.0  0.81119  0.60180  0.82364  1.0000
  H   H1190     1.0  0.80154  0.49509  0.53058  1.0000
  H   H1191     1.0  0.53997  0.59560  0.99292  1.0000
  H   H1192     1.0  0.75094  0.41016  0.92194  1.0000
  H   H1193     1.0  0.70722  0.57117  0.77528  1.0000
  H   H1194     1.0  0.54222  0.45329  0.82215  1.0000
  H   H1195     1.0  0.96483  0.61157  0.69631  1.0000
  S   S215      1.0  0.89468  0.34761  0.82140  1.0000
  H   H1196     1.0  0.93546  0.48334  0.91564  1.0000
  H   H1197     1.0  0.55288  0.34264  0.81280  1.0000
  H   H1198     1.0  0.53592  0.50329  0.81206  1.0000
  C   C706      1.0  0.51494  0.49930  0.79799  1.0000
  N   N51       1.0  0.76897  0.46547  0.95904  1.0000
  H   H1199     1.0  0.74753  0.58937  0.84813  1.0000
  H   H1200     1.0  0.53937  0.60745  0.76955  1.0000
  H   H1201     1.0  0.81823  0.49758  0.99242  1.0000
  H   H1202     1.0  0.57905  0.34807  0.77962  1.0000
  H   H1203     1.0  0.50694  0.42223  0.76519  1.0000
  N   N52       1.0  0.72256  0.39586  0.73892  1.0000
  H   H1204     1.0  0.95942  0.51375  0.90662  1.0000
  H   H1205     1.0  0.79350  0.42811  0.73451  1.0000
  H   H1206     1.0  0.76645  0.62272  0.85604  1.0000
  H   H1207     1.0  0.69524  0.48965  0.94927  1.0000
  H   H1208     1.0  0.54401  0.41562  0.77918  1.0000
  H   H1209     1.0  0.97856  0.42141  0.82983  1.0000
  H   H1210     1.0  0.95268  0.47712  0.85750  1.0000
  C   C707      1.0  0.79434  0.44364  0.01316  1.0000
  C   C708      1.0  0.73081  0.56792  0.78256  1.0000
  H   H1211     1.0  0.79003  0.56815  0.81650  1.0000
  H   H1212     1.0  0.51275  0.42844  0.82835  1.0000
  H   H1213     1.0  0.70756  0.61712  0.86100  1.0000
  H   H1214     1.0  0.97755  0.35500  0.70272  1.0000
  C   C709      1.0  0.71846  0.49320  0.95784  1.0000
  C   C710      1.0  0.72891  0.36465  0.75140  1.0000
  H   H1215     1.0  0.68785  0.37229  0.66352  1.0000
  C   C711      1.0  0.95886  0.48937  0.91013  1.0000
  H   H1216     1.0  0.72539  0.51474  0.94671  1.0000
  H   H1217     1.0  0.79942  0.57962  0.85842  1.0000
  H   H1218     1.0  0.70952  0.63702  0.78615  1.0000
  C   C712      1.0  0.77481  0.41826  0.74895  1.0000
  H   H1219     1.0  0.52185  0.49556  0.77123  1.0000
  C   C713      1.0  0.70736  0.37358  0.68075  1.0000
  C   C714      1.0  0.73789  0.46742  0.94477  1.0000
  C   C715      1.0  0.72150  0.63321  0.81052  1.0000
  H   H1220     1.0  0.71819  0.36446  0.80594  1.0000
  H   H1221     1.0  0.92939  0.61959  0.71378  1.0000
  H   H1222     1.0  0.99582  0.58023  0.74680  1.0000
  H   H1223     1.0  0.76173  0.64852  0.73892  1.0000
  H   H1224     1.0  0.72588  0.38271  0.66555  1.0000
  C   C716      1.0  0.73762  0.36081  0.78914  1.0000
  H   H1225     1.0  0.78309  0.50050  0.92527  1.0000
  H   H1226     1.0  0.50461  0.63936  0.62872  1.0000
  H   H1227     1.0  0.95995  0.52632  0.84750  1.0000
  H   H1228     1.0  0.50123  0.54230  0.99443  1.0000
  C   C717      1.0  0.52032  0.44667  0.81146  1.0000
  H   H1229     1.0  0.69057  0.40269  0.77869  1.0000
  H   H1230     1.0  0.65179  0.63008  0.77902  1.0000
  N   N53       1.0  0.49902  0.47253  0.81183  1.0000
  H   H1231     1.0  0.73194  0.56008  0.80906  1.0000
  C   C718      1.0  0.51349  0.48734  0.87302  1.0000
  N   N54       1.0  0.75118  0.61857  0.80410  1.0000
  H   H1232     1.0  0.98358  0.33979  0.78844  1.0000
  C   C719      1.0  0.76327  0.60516  0.83643  1.0000
  C   C720      1.0  0.55995  0.33425  0.78762  1.0000
  S   S216      1.0  0.61283  0.33800  0.67486  1.0000
  C   C721      1.0  0.96471  0.33888  0.77016  1.0000
  C   C722      1.0  0.78497  0.44167  0.93926  1.0000
  H   H1233     1.0  0.94025  0.37926  0.78178  1.0000
  H   H1234     1.0  0.50400  0.48877  0.89893  1.0000
  H   H1235     1.0  0.74652  0.35392  0.73587  1.0000
  H   H1236     1.0  0.97210  0.48309  0.93276  1.0000
  H   H1237     1.0  0.94664  0.37591  0.73761  1.0000
  C   C723      1.0  0.90941  0.38794  0.98871  1.0000
  C   C724      1.0  0.69907  0.44580  0.75763  1.0000
  C   C725      1.0  0.79268  0.58791  0.83299  1.0000
  H   H1238     1.0  0.67820  0.62936  0.83439  1.0000
  C   C726      1.0  0.81626  0.49800  0.96436  1.0000
  C   C727      1.0  0.74996  0.40981  0.72395  1.0000
  H   H1239     1.0  0.98319  0.51834  0.81116  1.0000
  H   H1240     1.0  0.95183  0.63003  0.77082  1.0000
  H   H1241     1.0  0.53475  0.65434  0.79686  1.0000
  C   C728      1.0  0.58615  0.53650  0.00073  1.0000
  H   H1242     1.0  0.53194  0.47112  0.87418  1.0000
  H   H1243     1.0  0.78633  0.39407  0.92999  1.0000
  H   H1244     1.0  0.82475  0.51995  0.95603  1.0000
  H   H1245     1.0  0.96136  0.65517  0.73792  1.0000
  C   C729      1.0  0.77025  0.41080  0.93949  1.0000
  H   H1246     1.0  0.98619  0.59155  0.78867  1.0000
  H   H1247     1.0  0.53113  0.36128  0.75807  1.0000
  C   C730      1.0  0.98286  0.52713  0.83745  1.0000
  C   C731      1.0  0.99006  0.33601  0.71332  1.0000
  H   H1248     1.0  0.81587  0.44830  0.00107  1.0000
  H   H1249     1.0  0.91132  0.34027  0.73100  1.0000
  H   H1250     1.0  0.93108  0.34299  0.69063  1.0000
  C   C732      1.0  0.51344  0.64374  0.79012  1.0000
  H   H1251     1.0  0.50852  0.65227  0.76427  1.0000
  C   C733      1.0  0.61300  0.65707  0.78616  1.0000
  C   C734      1.0  0.92433  0.37244  0.01483  1.0000
  H   H1252     1.0  0.72458  0.65561  0.82206  1.0000
  H   H1253     1.0  0.54264  0.65048  0.85009  1.0000
  H   H1254     1.0  0.77723  0.65804  0.81470  1.0000
  H   H1255     1.0  0.52980  0.63168  0.88596  1.0000
  H   H1256     1.0  0.74809  0.44361  0.00153  1.0000
  C   C735      1.0  0.79831  0.65939  0.52916  1.0000
  H   H1257     1.0  0.50131  0.47674  0.97862  1.0000
  C   C736      1.0  0.49752  0.52875  0.79832  1.0000
  Fe  Fe110     1.0  0.68698  0.83952  0.40403  1.0000
  S   S217      1.0  0.65318  0.87309  0.38772  1.0000
  S   S218      1.0  0.67965  0.80905  0.44983  1.0000
  Fe  Fe111     1.0  0.72127  0.84579  0.33610  1.0000
  S   S219      1.0  0.68913  0.87944  0.31491  1.0000
  S   S220      1.0  0.75803  0.82433  0.30474  1.0000
  Fe  Fe112     1.0  0.69198  0.89894  0.36747  1.0000
  S   S221      1.0  0.69113  0.94856  0.37570  1.0000
  Fe  Fe113     1.0  0.65293  0.85093  0.33669  1.0000
  S   S222      1.0  0.60896  0.83488  0.31441  1.0000
  S   S223      1.0  0.72633  0.86703  0.38769  1.0000
  S   S224      1.0  0.68477  0.81560  0.35387  1.0000
  S   S225      1.0  0.55285  0.69715  0.15775  1.0000
  Fe  Fe114     1.0  0.92455  0.89494  0.13725  1.0000
  S   S226      1.0  0.89377  0.86091  0.15983  1.0000
  S   S227      1.0  0.91283  0.92640  0.09337  1.0000
  Fe  Fe115     1.0  0.97082  0.88651  0.19516  1.0000
  S   S228      1.0  0.94348  0.85203  0.22186  1.0000
  S   S229      1.0  0.81356  0.66603  0.34914  1.0000
  Fe  Fe116     1.0  0.93559  0.83457  0.16909  1.0000
  S   S230      1.0  0.93717  0.78561  0.15779  1.0000
  Fe  Fe117     1.0  0.90395  0.88110  0.21076  1.0000
  S   S231      1.0  0.87060  0.89610  0.25092  1.0000
  S   S232      1.0  0.96566  0.86698  0.14281  1.0000
  S   S233      1.0  0.93203  0.91719  0.18781  1.0000
  C   C737      1.0  0.91099  0.91730  0.04939  1.0000
  H   H1258     1.0  0.58584  0.88060  0.40336  1.0000
  H   H1259     1.0  0.82474  0.69433  0.27375  1.0000
  C   C738      1.0  0.91757  0.88886  0.03733  1.0000
  H   H1260     1.0  0.63583  0.96357  0.30081  1.0000
  H   H1261     1.0  0.92400  0.87165  0.05504  1.0000
  C   C739      1.0  0.97121  0.76838  0.16729  1.0000
  H   H1262     1.0  0.69518  0.70306  0.42491  1.0000
  C   C740      1.0  0.51781  0.74635  0.16317  1.0000
  C   C741      1.0  0.52037  0.71590  0.16971  1.0000
  H   H1263     1.0  0.57928  0.98696  0.41292  1.0000
  C   C742      1.0  0.97516  0.73832  0.15950  1.0000
  H   H1264     1.0  0.74699  0.79568  0.39674  1.0000
  H   H1265     1.0  0.53509  0.75764  0.14923  1.0000
  C   C743      1.0  0.76220  0.74553  0.31606  1.0000
  H   H1266     1.0  0.95780  0.72631  0.14641  1.0000
  H   H1267     1.0  0.56480  0.70781  0.26751  1.0000
  C   C744      1.0  0.94447  0.72980  0.31148  1.0000
  C   C745      1.0  0.72462  0.96795  0.36960  1.0000
  H   H1268     1.0  0.73982  0.76135  0.20799  1.0000
  C   C746      1.0  0.52772  0.94521  0.30410  1.0000
  C   C747      1.0  0.74879  0.95464  0.35343  1.0000
  H   H1269     1.0  0.79294  0.96084  0.33401  1.0000
  H   H1270     1.0  0.74755  0.93163  0.34568  1.0000
  C   C748      1.0  0.54076  0.88093  0.24494  1.0000
  C   C749      1.0  0.56996  0.89179  0.24680  1.0000
  C   C750      1.0  0.59120  0.87816  0.26811  1.0000
  C   C751      1.0  0.58329  0.85365  0.28790  1.0000
  C   C752      1.0  0.55415  0.84283  0.28596  1.0000
  C   C753      1.0  0.53305  0.85626  0.26453  1.0000
  H   H1271     1.0  0.57620  0.91072  0.23154  1.0000
  H   H1272     1.0  0.61371  0.88640  0.26899  1.0000
  H   H1273     1.0  0.54777  0.82395  0.30123  1.0000
  H   H1274     1.0  0.83941  0.95101  0.26572  1.0000
  C   C754      1.0  0.78880  0.84490  0.28943  1.0000
  C   C755      1.0  0.79544  0.87321  0.30181  1.0000
  C   C756      1.0  0.82065  0.88844  0.28995  1.0000
  C   C757      1.0  0.83927  0.87579  0.26520  1.0000
  C   C758      1.0  0.83252  0.84754  0.25265  1.0000
  C   C759      1.0  0.80749  0.83216  0.26485  1.0000
  H   H1275     1.0  0.78141  0.88320  0.32092  1.0000
  H   H1276     1.0  0.82581  0.91003  0.30031  1.0000
  H   H1277     1.0  0.84660  0.83759  0.23357  1.0000
  H   H1278     1.0  0.80248  0.81043  0.25494  1.0000
  H   H1279     1.0  0.84746  0.74588  0.27649  1.0000
  H   H1280     1.0  0.99100  0.80709  0.19000  1.0000
  H   H1281     1.0  0.51072  0.84767  0.26348  1.0000
  C   C760      1.0  0.74744  0.75664  0.23429  1.0000
  N   N55       1.0  0.58138  0.75030  0.24874  1.0000
  C   C761      1.0  0.56760  0.77733  0.23234  1.0000
  C   C762      1.0  0.55687  0.72812  0.25460  1.0000
  C   C763      1.0  0.60338  0.73769  0.22376  1.0000
  C   C764      1.0  0.59646  0.75984  0.28125  1.0000
  C   C765      1.0  0.58931  0.80157  0.22022  1.0000
  C   C766      1.0  0.53014  0.73952  0.27520  1.0000
  H   H1282     1.0  0.80684  0.73101  0.31246  1.0000
  H   H1283     1.0  0.55400  0.77082  0.20998  1.0000
  H   H1284     1.0  0.55203  0.78858  0.25001  1.0000
  H   H1285     1.0  0.54816  0.71994  0.22992  1.0000
  H   H1286     1.0  0.59267  0.73484  0.19838  1.0000
  H   H1287     1.0  0.62219  0.75325  0.21983  1.0000
  H   H1288     1.0  0.61823  0.77044  0.27577  1.0000
  H   H1289     1.0  0.58298  0.77729  0.29403  1.0000
  H   H1290     1.0  0.92196  0.98641  0.20146  1.0000
  H   H1291     1.0  0.69065  0.97013  0.28320  1.0000
  H   H1292     1.0  0.95867  0.72706  0.33448  1.0000
  H   H1293     1.0  0.84123  0.74960  0.23111  1.0000
  H   H1294     1.0  0.70619  0.75667  0.41164  1.0000
  C   C767      1.0  0.81834  0.71115  0.25433  1.0000
  H   H1295     1.0  0.90821  0.75104  0.22414  1.0000
  N   N56       1.0  0.74283  0.74398  0.44413  1.0000
  H   H1296     1.0  0.73788  0.74581  0.38899  1.0000
  H   H1297     1.0  0.72476  0.96709  0.25980  1.0000
  C   C768      1.0  0.75522  0.77512  0.44664  1.0000
  C   C769      1.0  0.52918  0.99127  0.18993  1.0000
  H   H1298     1.0  0.92288  0.68641  0.32087  1.0000
  H   H1299     1.0  0.60125  0.68990  0.23698  1.0000
  H   H1300     1.0  0.60521  0.80822  0.24031  1.0000
  C   C770      1.0  0.76727  0.72126  0.44702  1.0000
  H   H1301     1.0  0.87115  0.99181  0.21194  1.0000
  C   C771      1.0  0.90276  0.93937  0.02585  1.0000
  C   C772      1.0  0.78975  0.71977  0.41770  1.0000
  H   H1302     1.0  0.73058  0.74146  0.24475  1.0000
  H   H1303     1.0  0.79951  0.69714  0.41695  1.0000
  C   C773      1.0  0.55612  0.99301  0.16586  1.0000
  C   C774      1.0  0.72656  0.99776  0.37965  1.0000
  H   H1304     1.0  0.55162  0.88532  0.38164  1.0000
  H   H1305     1.0  0.90439  0.71754  0.33880  1.0000
  C   C775      1.0  0.54464  0.92514  0.32940  1.0000
  H   H1306     1.0  0.62269  0.74075  0.32223  1.0000
  C   C776      1.0  0.67661  0.81840  0.49368  1.0000
  C   C777      1.0  0.83888  0.97552  0.26917  1.0000
  H   H1307     1.0  0.79939  0.76416  0.28956  1.0000
  C   C778      1.0  0.68812  0.84481  0.50688  1.0000
  C   C779      1.0  0.98880  0.74473  0.27850  1.0000
  C   C780      1.0  0.72189  0.73929  0.47358  1.0000
  C   C781      1.0  0.57125  0.89750  0.39133  1.0000
  H   H1308     1.0  0.82911  0.97947  0.29460  1.0000
  H   H1309     1.0  0.70009  0.70937  0.38068  1.0000
  C   C782      1.0  0.87696  0.97517  0.33078  1.0000
  N   N57       1.0  0.96243  0.72408  0.27989  1.0000
  H   H1310     1.0  0.81833  0.69923  0.22958  1.0000
  H   H1311     1.0  0.56472  0.91328  0.41157  1.0000
  H   H1312     1.0  0.78207  0.77618  0.39934  1.0000
  C   C783      1.0  0.88826  0.97259  0.29389  1.0000
  H   H1313     1.0  0.77395  0.77597  0.46508  1.0000
  H   H1314     1.0  0.72929  0.69205  0.40377  1.0000
  C   C784      1.0  0.94408  0.72645  0.24794  1.0000
  H   H1315     1.0  0.58393  0.97244  0.30849  1.0000
  C   C785      1.0  0.58854  0.91285  0.36254  1.0000
  H   H1316     1.0  0.86485  0.72124  0.24720  1.0000
  H   H1317     1.0  0.73829  0.79067  0.45692  1.0000
  C   C786      1.0  0.71182  0.70931  0.40554  1.0000
  C   C787      1.0  0.91621  0.98662  0.22885  1.0000
  C   C788      1.0  0.76598  0.78987  0.41351  1.0000
  C   C789      1.0  0.77446  0.97130  0.34668  1.0000
  H   H1318     1.0  0.57645  0.82172  0.21318  1.0000
  H   H1319     1.0  0.77973  0.72287  0.39233  1.0000
  C   C790      1.0  0.92657  0.75540  0.24231  1.0000
  C   C791      1.0  0.62535  0.95178  0.32241  1.0000
  H   H1320     1.0  0.75397  0.68993  0.21381  1.0000
  C   C792      1.0  0.84407  0.73369  0.25232  1.0000
  H   H1321     1.0  0.95576  0.67632  0.28081  1.0000
  C   C793      1.0  0.59160  0.94992  0.31619  1.0000
  H   H1322     1.0  0.81496  0.94443  0.04705  1.0000
  N   N58       1.0  0.57267  0.93788  0.34469  1.0000
  H   H1323     1.0  0.52789  0.96766  0.19824  1.0000
  C   C794      1.0  0.58879  0.97738  0.38932  1.0000
  H   H1324     1.0  0.93650  0.75303  0.31282  1.0000
  H   H1325     1.0  0.98163  0.77891  0.31759  1.0000
  H   H1326     1.0  0.75554  0.72439  0.32836  1.0000
  N   N59       1.0  0.86982  0.98803  0.26709  1.0000
  H   H1327     1.0  0.89047  0.94848  0.28802  1.0000
  H   H1328     1.0  0.95840  0.72419  0.22521  1.0000
  H   H1329     1.0  0.94083  0.77285  0.23111  1.0000
  H   H1330     1.0  0.87958  0.95621  0.22738  1.0000
  H   H1331     1.0  0.80799  0.73597  0.42154  1.0000
  C   C795      1.0  0.97410  0.69271  0.28227  1.0000
  H   H1332     1.0  0.98501  0.68885  0.30732  1.0000
  H   H1333     1.0  0.60145  0.79454  0.19710  1.0000
  C   C796      1.0  0.77886  0.74326  0.23301  1.0000
  C   C797      1.0  0.72489  0.74044  0.41196  1.0000
  H   H1334     1.0  0.85744  0.96071  0.33521  1.0000
  H   H1335     1.0  0.98744  0.68499  0.22878  1.0000
  H   H1336     1.0  0.78307  0.66521  0.22908  1.0000
  C   C798      1.0  0.76746  0.69778  0.26712  1.0000
  C   C799      1.0  0.91689  0.70993  0.31614  1.0000
  H   H1337     1.0  0.74505  0.70479  0.27531  1.0000
  C   C800      1.0  0.61773  0.70772  0.23275  1.0000
  H   H1338     1.0  0.98641  0.76826  0.49779  1.0000
  H   H1339     1.0  0.79394  0.76263  0.23091  1.0000
  H   H1340     1.0  0.78173  0.73187  0.20812  1.0000
  H   H1341     1.0  0.58409  0.73673  0.32823  1.0000
  H   H1342     1.0  0.70135  0.75272  0.47021  1.0000
  C   C801      1.0  0.60169  0.73571  0.30857  1.0000
  H   H1343     1.0  0.76677  0.76170  0.33671  1.0000
  C   C802      1.0  0.88279  0.98025  0.23293  1.0000
  H   H1344     1.0  0.60373  0.71277  0.29905  1.0000
  H   H1345     1.0  0.75838  0.69851  0.45128  1.0000
  H   H1346     1.0  0.60984  0.92012  0.37379  1.0000
  H   H1347     1.0  0.60613  0.96196  0.39839  1.0000
  N   N60       1.0  0.78809  0.72375  0.26225  1.0000
  H   H1348     1.0  0.92842  0.70753  0.24520  1.0000
  H   H1349     1.0  0.63125  0.96404  0.34573  1.0000
  H   H1350     1.0  0.91562  0.76398  0.26535  1.0000
  H   H1351     1.0  0.82300  0.98616  0.21726  1.0000
  S   S234      1.0  0.51420  0.89927  0.21906  1.0000
  H   H1352     1.0  0.54948  0.90403  0.31582  1.0000
  C   C803      1.0  0.73417  0.74679  0.50926  1.0000
  H   H1353     1.0  0.69832  0.86074  0.49002  1.0000
  H   H1354     1.0  0.78080  0.72529  0.47022  1.0000
  C   C804      1.0  0.99664  0.68338  0.25481  1.0000
  H   H1355     1.0  0.53708  0.75126  0.29864  1.0000
  C   C805      1.0  0.81587  0.98791  0.24407  1.0000
  H   H1356     1.0  0.74736  0.77777  0.24887  1.0000
  H   H1357     1.0  0.63319  0.70982  0.25452  1.0000
  C   C806      1.0  0.98570  0.96284  0.11067  1.0000
  H   H1358     1.0  0.96884  0.95696  0.13017  1.0000
  C   C807      1.0  0.79060  0.74152  0.29476  1.0000
  H   H1359     1.0  0.58933  0.93586  0.29312  1.0000
  C   C808      1.0  0.71067  0.98242  0.27488  1.0000
  C   C809      1.0  0.56383  0.96232  0.36879  1.0000
  H   H1360     1.0  0.89778  0.96149  0.03487  1.0000
  H   H1361     1.0  0.74340  0.75455  0.30130  1.0000
  H   H1362     1.0  0.71435  0.71583  0.47484  1.0000
  H   H1363     1.0  0.77580  0.68345  0.28810  1.0000
  H   H1364     1.0  0.91125  0.98153  0.29434  1.0000
  H   H1365     1.0  0.63136  0.70031  0.21084  1.0000
  C   C810      1.0  0.76268  0.67754  0.23600  1.0000
  C   C811      1.0  0.82261  0.93276  0.02381  1.0000
  H   H1366     1.0  0.97727  0.92008  0.08684  1.0000
  H   H1367     1.0  0.52026  0.96626  0.31584  1.0000
  C   C812      1.0  0.98393  0.77722  0.28958  1.0000
  H   H1368     1.0  0.96469  0.78790  0.27729  1.0000
  H   H1369     1.0  0.63555  0.92935  0.32335  1.0000
  C   C813      1.0  0.49812  0.70141  0.18793  1.0000
  H   H1370     1.0  0.97271  0.97453  0.09069  1.0000
  H   H1371     1.0  0.90154  0.71125  0.29419  1.0000
  H   H1372     1.0  0.52840  0.91920  0.34951  1.0000
  H   H1373     1.0  0.59483  0.89535  0.34388  1.0000
  H   H1374     1.0  0.54079  0.94990  0.28089  1.0000
  H   H1375     1.0  0.54638  0.95495  0.38687  1.0000
  H   H1376     1.0  0.77715  0.81114  0.41984  1.0000
  H   H1377     1.0  0.51612  0.72037  0.28272  1.0000
  H   H1378     1.0  0.72437  0.98792  0.29723  1.0000
  H   H1379     1.0  0.83621  0.91375  0.03288  1.0000
  H   H1380     1.0  0.50337  0.79115  0.07399  1.0000
  H   H1381     1.0  0.79521  0.97467  0.24646  1.0000
  H   H1382     1.0  0.50750  0.93328  0.29542  1.0000
  H   H1383     1.0  0.65479  0.77732  0.50632  1.0000
  H   H1384     1.0  0.73969  0.77066  0.51195  1.0000
  H   H1385     1.0  0.55278  0.98064  0.35470  1.0000
  C   C814      1.0  0.99382  0.78383  0.18401  1.0000
  H   H1386     1.0  0.49999  0.67791  0.19317  1.0000
  H   H1387     1.0  0.51585  0.75426  0.25954  1.0000
  H   H1388     1.0  0.89457  0.96736  0.34840  1.0000
  H   H1389     1.0  0.92968  0.96901  0.24121  1.0000
  H   H1390     1.0  0.67362  0.67838  0.29830  1.0000
  H   H1391     1.0  0.57494  0.98059  0.17726  1.0000
  H   H1392     1.0  0.55148  0.98298  0.14069  1.0000
  H   H1393     1.0  0.59918  0.99556  0.37450  1.0000
  C   C815      1.0  0.99667  0.93317  0.09563  1.0000
  H   H1394     1.0  0.50209  0.98813  0.12237  1.0000
  H   H1395     1.0  0.49978  0.95803  0.15097  1.0000
  H   H1396     1.0  0.88016  0.66571  0.50113  1.0000
  Fe  Fe118     1.0  0.64679  0.81936  0.65275  1.0000
  S   S235      1.0  0.61283  0.84842  0.67854  1.0000
  S   S236      1.0  0.67501  0.83749  0.60909  1.0000
  Fe  Fe119     1.0  0.64117  0.77084  0.70781  1.0000
  S   S237      1.0  0.60723  0.79626  0.73772  1.0000
  S   S238      1.0  0.66240  0.72675  0.72229  1.0000
  Fe  Fe120     1.0  0.58765  0.80580  0.68631  1.0000
  S   S239      1.0  0.53820  0.80464  0.67787  1.0000
  Fe  Fe121     1.0  0.63501  0.83690  0.72788  1.0000
  S   S240      1.0  0.65061  0.86884  0.76940  1.0000
  S   S241      1.0  0.61968  0.77758  0.65666  1.0000
  S   S242      1.0  0.67081  0.81057  0.70190  1.0000
  H   H1397     1.0  0.92598  0.84696  0.82926  1.0000
  S   S243      1.0  0.86896  0.71355  0.65785  1.0000
  H   H1398     1.0  0.79701  0.98357  0.99418  1.0000
  Fe  Fe122     1.0  0.84801  0.70962  0.70943  1.0000
  S   S244      1.0  0.82729  0.74637  0.74115  1.0000
  H   H1399     1.0  0.97091  0.80513  0.76353  1.0000
  Fe  Fe123     1.0  0.88505  0.91764  0.88850  1.0000
  S   S245      1.0  0.85204  0.88981  0.85958  1.0000
  S   S246      1.0  0.90591  0.89517  0.93478  1.0000
  Fe  Fe124     1.0  0.88286  0.96711  0.83448  1.0000
  S   S247      1.0  0.84993  0.94294  0.80188  1.0000
  C   C816      1.0  0.96199  0.73206  0.58585  1.0000
  Fe  Fe125     1.0  0.82770  0.93267  0.85140  1.0000
  S   S248      1.0  0.77796  0.93094  0.85472  1.0000
  Fe  Fe126     1.0  0.87686  0.90200  0.81259  1.0000
  S   S249      1.0  0.89041  0.87018  0.77061  1.0000
  S   S250      1.0  0.85855  0.95979  0.88389  1.0000
  S   S251      1.0  0.91200  0.92686  0.84157  1.0000
  C   C817      1.0  0.90762  0.90462  0.97872  1.0000
  H   H1400     1.0  0.69649  0.87067  0.55210  1.0000
  H   H1401     1.0  0.89488  0.95037  0.97301  1.0000
  H   H1402     1.0  0.75199  0.67966  0.65177  1.0000
  H   H1403     1.0  0.74177  0.67354  0.76700  1.0000
  C   C818      1.0  0.84529  0.78056  0.74919  1.0000
  C   C819      1.0  0.86933  0.79002  0.72966  1.0000
  C   C820      1.0  0.88249  0.81779  0.73607  1.0000
  C   C821      1.0  0.87229  0.83600  0.76261  1.0000
  C   C822      1.0  0.84831  0.82649  0.78222  1.0000
  C   C823      1.0  0.83466  0.79904  0.77524  1.0000
  H   H1404     1.0  0.87757  0.77610  0.70937  1.0000
  H   H1405     1.0  0.90080  0.82508  0.72048  1.0000
  H   H1406     1.0  0.84027  0.84025  0.80274  1.0000
  H   H1407     1.0  0.81603  0.79188  0.79042  1.0000
  H   H1408     1.0  0.97291  0.94865  0.80762  1.0000
  C   C824      1.0  0.72861  0.96540  0.86317  1.0000
  C   C825      1.0  0.75968  0.96453  0.86343  1.0000
  C   C826      1.0  0.84982  0.66755  0.54333  1.0000
  C   C827      1.0  0.53965  0.71405  0.61852  1.0000
  H   H1409     1.0  0.71611  0.94574  0.85653  1.0000
  C   C828      1.0  0.71386  0.93075  0.76283  1.0000
  C   C829      1.0  0.96760  0.71339  0.68419  1.0000
  H   H1410     1.0  0.50890  0.66945  0.65914  1.0000
  C   C830      1.0  0.53693  0.74798  0.70397  1.0000
  H   H1411     1.0  0.51985  0.68928  0.55313  1.0000
  C   C831      1.0  0.96596  0.76488  0.70242  1.0000
  C   C832      1.0  0.95124  0.73851  0.69342  1.0000
  H   H1412     1.0  0.71865  0.77991  0.66217  1.0000
  H   H1413     1.0  0.56080  0.74954  0.70611  1.0000
  H   H1414     1.0  0.95318  0.78447  0.70853  1.0000
  H   H1415     1.0  0.92727  0.73779  0.69308  1.0000
  C   C833      1.0  0.64290  0.70018  0.74675  1.0000
  H   H1416     1.0  0.99402  0.88810  0.75308  1.0000
  C   C834      1.0  0.73735  0.77340  0.64543  1.0000
  C   C835      1.0  0.77567  0.99004  0.87196  1.0000
  H   H1417     1.0  0.97939  0.84516  0.87909  1.0000
  C   C836      1.0  0.61432  0.70580  0.75877  1.0000
  H   H1418     1.0  0.73664  0.92943  0.97532  1.0000
  H   H1419     1.0  0.53090  0.92799  0.92262  1.0000
  C   C837      1.0  0.95874  0.85464  0.86832  1.0000
  H   H1420     1.0  0.60363  0.72670  0.75305  1.0000
  C   C838      1.0  0.63197  0.90120  0.78407  1.0000
  C   C839      1.0  0.60509  0.91076  0.77001  1.0000
  C   C840      1.0  0.59120  0.93667  0.78242  1.0000
  C   C841      1.0  0.60421  0.95354  0.80858  1.0000
  C   C842      1.0  0.63116  0.94407  0.82247  1.0000
  C   C843      1.0  0.64473  0.91788  0.81054  1.0000
  H   H1421     1.0  0.59514  0.89824  0.74952  1.0000
  H   H1422     1.0  0.57047  0.94394  0.77140  1.0000
  H   H1423     1.0  0.64128  0.95662  0.84286  1.0000
  H   H1424     1.0  0.66513  0.91042  0.82216  1.0000
  C   C844      1.0  0.67390  0.83001  0.56464  1.0000
  C   C845      1.0  0.66204  0.80374  0.55139  1.0000
  S   S252      1.0  0.80970  0.67179  0.59652  1.0000
  C   C846      1.0  0.72639  0.72122  0.65633  1.0000
  C   C847      1.0  0.68707  0.85037  0.54215  1.0000
  H   H1425     1.0  0.65200  0.78777  0.56831  1.0000
  H   H1426     1.0  0.95261  0.87525  0.78977  1.0000
  H   H1427     1.0  0.79739  0.95316  0.92388  1.0000
  H   H1428     1.0  0.75269  0.75737  0.74497  1.0000
  H   H1429     1.0  0.54010  0.89727  0.73911  1.0000
  C   C848      1.0  0.78688  0.97844  0.96917  1.0000
  H   H1430     1.0  0.78007  0.67911  0.75841  1.0000
  H   H1431     1.0  0.52983  0.69896  0.83191  1.0000
  N   N61       1.0  0.75047  0.74432  0.65690  1.0000
  C   C849      1.0  0.73554  0.69013  0.66896  1.0000
  H   H1432     1.0  0.53519  0.70314  0.72296  1.0000
  C   C850      1.0  0.52061  0.77183  0.69100  1.0000
  N   N62       1.0  0.79931  0.92181  0.96551  1.0000
  H   H1433     1.0  0.98430  0.96286  0.87939  1.0000
  H   H1434     1.0  0.82961  0.90483  0.92764  1.0000
  S   S253      1.0  0.88132  0.67756  0.73097  1.0000
  H   H1435     1.0  0.82762  0.86943  0.99505  1.0000
  H   H1436     1.0  0.73495  0.75797  0.59150  1.0000
  H   H1437     1.0  0.99098  0.80278  0.51923  1.0000
  H   H1438     1.0  0.79962  0.98965  0.87193  1.0000
  H   H1439     1.0  0.94192  0.85426  0.88891  1.0000
  H   H1440     1.0  0.53244  0.84092  0.73747  1.0000
  H   H1441     1.0  0.76884  0.88482  0.96082  1.0000
  H   H1442     1.0  0.97992  0.85314  0.73967  1.0000
  H   H1443     1.0  0.83674  0.94849  0.00954  1.0000
  N   N63       1.0  0.96802  0.83266  0.80856  1.0000
  H   H1444     1.0  0.77582  0.93498  0.01117  1.0000
  H   H1445     1.0  0.77816  0.90182  0.92154  1.0000
  H   H1446     1.0  0.91307  0.79575  0.80324  1.0000
  H   H1447     1.0  0.95820  0.77898  0.59312  1.0000
  H   H1448     1.0  0.57748  0.68905  0.78764  1.0000
  C   C851      1.0  0.50472  0.97920  0.81436  1.0000
  H   H1449     1.0  0.68956  0.99214  0.87170  1.0000
  H   H1450     1.0  0.75330  0.79207  0.64840  1.0000
  C   C852      1.0  0.74042  0.75276  0.72103  1.0000
  H   H1451     1.0  0.96247  0.77704  0.53261  1.0000
  H   H1452     1.0  0.51843  0.95896  0.81753  1.0000
  H   H1453     1.0  0.97676  0.68775  0.77714  1.0000
  C   C853      1.0  0.76304  0.74832  0.69216  1.0000
  C   C854      1.0  0.77528  0.73440  0.63390  1.0000
  C   C855      1.0  0.79872  0.75809  0.62538  1.0000
  H   H1454     1.0  0.77710  0.72906  0.69949  1.0000
  H   H1455     1.0  0.77820  0.76777  0.69306  1.0000
  H   H1456     1.0  0.76676  0.72512  0.60958  1.0000
  H   H1457     1.0  0.78762  0.71559  0.64552  1.0000
  H   H1458     1.0  0.78929  0.77626  0.60974  1.0000
  H   H1459     1.0  0.80928  0.76728  0.64856  1.0000
  H   H1460     1.0  0.81656  0.74754  0.61013  1.0000
  C   C856      1.0  0.65641  0.67280  0.75430  1.0000
  H   H1461     1.0  0.55302  0.71184  0.59503  1.0000
  C   C857      1.0  0.97387  0.86326  0.79438  1.0000
  H   H1462     1.0  0.53318  0.95954  0.87415  1.0000
  H   H1463     1.0  0.70025  0.76968  0.60936  1.0000
  H   H1464     1.0  0.52681  0.66525  0.58776  1.0000
  H   H1465     1.0  0.93992  0.81478  0.84875  1.0000
  H   H1466     1.0  0.71769  0.71815  0.63009  1.0000
  H   H1467     1.0  0.81036  0.85821  0.95520  1.0000
  C   C858      1.0  0.50863  0.67541  0.57269  1.0000
  H   H1468     1.0  0.71664  0.74214  0.52832  1.0000
  C   C859      1.0  0.79541  0.92167  0.00348  1.0000
  H   H1469     1.0  0.84949  0.86221  0.95850  1.0000
  C   C860      1.0  0.82028  0.66559  0.55367  1.0000
  H   H1470     1.0  0.54740  0.80612  0.78363  1.0000
  C   C861      1.0  0.52372  0.81215  0.77998  1.0000
  H   H1471     1.0  0.72715  0.73248  0.72561  1.0000
  C   C862      1.0  0.59949  0.68436  0.77836  1.0000
  C   C863      1.0  0.94699  0.83635  0.83804  1.0000
  C   C864      1.0  0.97676  0.98371  0.86685  1.0000
  H   H1472     1.0  0.52174  0.96373  0.93885  1.0000
  C   C865      1.0  0.51909  0.90614  0.74972  1.0000
  H   H1473     1.0  0.50701  0.73946  0.59305  1.0000
  H   H1474     1.0  0.92806  0.77472  0.76907  1.0000
  H   H1475     1.0  0.72606  0.90897  0.93841  1.0000
  C   C866      1.0  0.90104  0.93311  0.99074  1.0000
  H   H1476     1.0  0.51640  0.87398  0.82204  1.0000
  H   H1477     1.0  0.72541  0.77177  0.71655  1.0000
  C   C867      1.0  0.51042  0.95632  0.88454  1.0000
  H   H1478     1.0  0.53734  0.85752  0.77734  1.0000
  H   H1479     1.0  0.74433  0.94343  0.93272  1.0000
  C   C868      1.0  0.93419  0.78787  0.79191  1.0000
  C   C869      1.0  0.99664  0.78919  0.83715  1.0000
  C   C870      1.0  0.50666  0.71977  0.61018  1.0000
  H   H1480     1.0  0.50109  0.93676  0.87084  1.0000
  C   C871      1.0  0.82804  0.87180  0.96705  1.0000
  H   H1481     1.0  0.76295  0.97446  0.97274  1.0000
  H   H1482     1.0  0.93929  0.82823  0.76463  1.0000
  C   C872      1.0  0.52238  0.72175  0.71359  1.0000
  H   H1483     1.0  0.52255  0.70376  0.78702  1.0000
  C   C873      1.0  0.51279  0.70482  0.81286  1.0000
  H   H1484     1.0  0.70688  0.72866  0.67129  1.0000
  H   H1485     1.0  0.73498  0.83067  0.70459  1.0000
  C   C874      1.0  0.51405  0.94596  0.92166  1.0000
  N   N64       1.0  0.74828  0.88482  0.76768  1.0000
  C   C875      1.0  0.74566  0.91810  0.76393  1.0000
  C   C876      1.0  0.78064  0.87766  0.77306  1.0000
  C   C877      1.0  0.73130  0.87608  0.79910  1.0000
  C   C878      1.0  0.73538  0.87017  0.73636  1.0000
  C   C879      1.0  0.80338  0.95275  0.95129  1.0000
  C   C880      1.0  0.80193  0.89024  0.74599  1.0000
  C   C881      1.0  0.73063  0.84283  0.80783  1.0000
  C   C882      1.0  0.74822  0.83962  0.72608  1.0000
  H   H1486     1.0  0.75754  0.92966  0.78496  1.0000
  H   H1487     1.0  0.75646  0.92571  0.74010  1.0000
  H   H1488     1.0  0.78460  0.85341  0.77446  1.0000
  H   H1489     1.0  0.78837  0.88633  0.79811  1.0000
  H   H1490     1.0  0.74002  0.88813  0.82171  1.0000
  H   H1491     1.0  0.70765  0.88259  0.79703  1.0000
  H   H1492     1.0  0.71095  0.86735  0.73905  1.0000
  H   H1493     1.0  0.73803  0.88455  0.71356  1.0000
  H   H1494     1.0  0.97650  0.76047  0.62688  1.0000
  H   H1495     1.0  0.69881  0.91755  0.74641  1.0000
  H   H1496     1.0  0.71438  0.95372  0.75268  1.0000
  H   H1497     1.0  0.79345  0.88719  0.71980  1.0000
  H   H1498     1.0  0.80611  0.91419  0.75044  1.0000
  H   H1499     1.0  0.82371  0.87886  0.74789  1.0000
  H   H1500     1.0  0.75296  0.83275  0.80951  1.0000
  H   H1501     1.0  0.71632  0.83051  0.78970  1.0000
  H   H1502     1.0  0.72016  0.84012  0.83316  1.0000
  H   H1503     1.0  0.77135  0.84134  0.71689  1.0000
  H   H1504     1.0  0.86691  0.67239  0.56184  1.0000
  H   H1505     1.0  0.74739  0.82305  0.74671  1.0000
  C   C883      1.0  0.95380  0.81420  0.78090  1.0000
  H   H1506     1.0  0.97797  0.78668  0.85501  1.0000
  C   C884      1.0  0.72451  0.77402  0.60897  1.0000
  H   H1507     1.0  0.72825  0.79626  0.59760  1.0000
  H   H1508     1.0  0.98961  0.81607  0.57464  1.0000
  H   H1509     1.0  0.98647  0.87709  0.81282  1.0000
  C   C885      1.0  0.77326  0.90668  0.94874  1.0000
  S   S254      1.0  0.81751  0.67310  0.69267  1.0000
  C   C886      1.0  0.99155  0.86455  0.76082  1.0000
  C   C887      1.0  0.52202  0.84294  0.76300  1.0000
  H   H1510     1.0  0.84702  0.91531  0.96574  1.0000
  C   C888      1.0  0.97526  0.76173  0.59865  1.0000
  C   C889      1.0  0.82671  0.90454  0.95572  1.0000
  H   H1511     1.0  0.54862  0.73355  0.63246  1.0000
  C   C890      1.0  0.74360  0.92350  0.94922  1.0000
  H   H1512     1.0  0.51534  0.92807  0.73757  1.0000
  H   H1513     1.0  0.95553  0.99081  0.91597  1.0000
  H   H1514     1.0  0.98270  0.97793  0.77812  1.0000
  Fe  Fe127     1.0  0.84100  0.67426  0.64237  1.0000
  H   H1515     1.0  0.67837  0.66818  0.74471  1.0000
  H   H1516     1.0  0.95796  0.97637  0.85058  1.0000
  H   H1517     1.0  0.95104  0.72066  0.60749  1.0000
  H   H1518     1.0  0.79039  0.89880  0.01237  1.0000
  H   H1519     1.0  0.98811  0.80897  0.63920  1.0000
  H   H1520     1.0  0.96202  0.87830  0.86169  1.0000
  H   H1521     1.0  0.52185  0.91010  0.77720  1.0000
  H   H1522     1.0  0.92123  0.86055  0.99331  1.0000
  H   H1523     1.0  0.51401  0.79460  0.76361  1.0000
  C   C891      1.0  0.98549  0.77902  0.52316  1.0000
  H   H1524     1.0  0.74438  0.69052  0.69519  1.0000
  C   C892      1.0  0.71355  0.99159  0.87190  1.0000
  C   C893      1.0  0.99149  0.96078  0.79562  1.0000
  H   H1525     1.0  0.94546  0.77260  0.80965  1.0000
  C   C894      1.0  0.91598  0.88263  0.00224  1.0000
  H   H1526     1.0  0.94404  0.73619  0.56708  1.0000
  H   H1527     1.0  0.99637  0.77075  0.81840  1.0000
  H   H1528     1.0  0.70450  0.93231  0.78879  1.0000
  H   H1529     1.0  0.97795  0.71602  0.57524  1.0000
  S   S255      1.0  0.95001  0.68046  0.67110  1.0000
  H   H1530     1.0  0.82714  0.95953  0.95173  1.0000
  H   H1531     1.0  0.50655  0.72837  0.81720  1.0000
  H   H1532     1.0  0.51313  0.81196  0.80534  1.0000
  Fe  Fe128     1.0  0.90037  0.67891  0.67823  1.0000
  H   H1533     1.0  0.54330  0.69447  0.63483  1.0000
  S   S256      1.0  0.58548  0.98552  0.82405  1.0000
  H   H1534     1.0  0.71565  0.67562  0.66917  1.0000
  H   H1535     1.0  0.52095  0.67054  0.88095  1.0000
  C   C895      1.0  0.66373  0.79785  0.51619  1.0000
  C   C896      1.0  0.99705  0.76605  0.70284  1.0000
  H   H1536     1.0  0.75360  0.73296  0.51613  1.0000
