data_image0
_chemical_formula_structural       FeCSFeSFeCSCHFeSFeS2FeS2FeSFeS3FeS2H4SC6H4C6H4CH3CSCHSC6HSH2CHC2H2CHC2H3C2SH2CH4CH2NH5SNHC2H2NC8H4CH7CH9CHCH3C2NC6HCH4CH5CH9NCH3C2H3FeHC2HNHCHCHSCH3CH4CH2CH7CH2C2H2CH3CFeHC2H4SHCFeSFeS2FeS2FeHFeS3FeS2HCSCNFeSFeHSFeHCSH3CH2C4H4CH4C7H4C6H4CH2C3SH2CH2CH7CHCH11CHCNC8H7C3H3NCHCNH2CHCH3C2H3C2HCH2CH2CHCH8CH3CH4SNCH3CHSHCHCHCH3CHNCH2C3H3CHCH4SCH2CNH2CH10SH3CHCFeS2FeSHFeSFeS3CH2S2FeSCFeSFeSNHCSH3FeSHC3H2C7H4CHSH2C4HC2HC2HC2HCHC6H5SH3FeH4CH6CH4C2HCH2C2H6CHSCHCHCHNC6HCH11SH4CHCHCH4C3FeH7C2HCHCH7NH2C2H2C2NSH2CH6CHCH2CHCHCFeH3CH4NH2C3S3H4CH2FeSHFeS2FeSFeS3HFeSFeHSFeCSCHS2CH4FeSCH3C4HC3H6CH4CH5C6H4C6H4C2H3NC6HSH3CFeH5CH3S2NS3HCH2CH10CH3CHCHCH2C2HC4HSCSCSH2C2HCH3CH3NH6CH3CHC2HCH2C2HCH2CHNH3CHCH4FeSCFeSHFeSFeS3H2CSHFeHSFeSFeS2HFeSH3CH2C6H4C2HCSC3H3CHC6H7CH7CH2CNHCHCH4CH3CH2CSH2SCHC2NC3H8NCHC2HCH3CHCHNCH5CH2SHCH4CHC2HSHCH2C2H2C2H2NH2CH3CH4CSCH4C3HCH3SHCH2CHCHCH5SHCHSFeS2FeSHFeHFeS3HCSCHC6H4C6SH8C2H3CHNHC2H2CHCH2C2HSH2CHNCHCHCH3CH2CH6C2H2CH2FeHSH9CH3C3H10FeHSFeS2Fe2CS2HSFeHSFeSFeSCSCFeS2C7H4C2H2CH3C4HC6H4NHCHCHCHC3H3C2H3CHCH2NCSHCHSHC2HNH2CHCH6NH2CHC2H3C3H2CHCHCHCHSHCHCH11CH2CH5CHCH6CH3CH4C3NH5CHCH2CH5CSH2C2SHNCH5CH7CH3CH2CH5CH4CSHFeSHFeS2FeHFeS3H4C3SC2HC6H5CH4C3HC2HCH3CH4NCHCHCH6C3H5CHNH3CH2CH2C3HFeH2CH2CH4SH8CFeSCFeS2FeSFeCS2H2SH4C6H9C3H4CHC3HCH4FeHCHSHCNHCH2C2HCHCH3CH4C2SH3CHCH3CH4CSCNH9C2H7CHCFeSFeSCFeSFeS3FeS2FeSFeS3FeSCHCHSHCH2C6H7NCHC2H2C6H8CH2C2HNCH3CH2FeHSC2SH3CH2CHCH2C4SC2HSH2CH4CH3CH4NC8H17NHCH2C2H6CH6CSH2CH4CHCFeSHCH3CH3CSHCHC2H3SFeS2FeS2FeSFeS2H4C3H3C2HNHC6H12C2H2FeC2H6CH2C3H3CH4CHC2HC2HNH2CHCHC2HCH6CH4SH2CHCFeS2FeHSFeHCS2CFeS3HSHFeSFeS2FeS3CHSHC6H6C4H4C7H6CH5CH2CHC2H7NCH3C2HCH2NH2NC8H20CHCH2NH5FeHSCHC4H2C3H3SHCH2CHCNC2H2C3HC2HCH2CHCNH2CHCH3CHCHCHFeH4CH2CH2CH2FeCHSH5SH3C3H10SHFeCSFeSFeHSCFeS2FeSFeSFeS3FeS2FeH2SC2HCH3CHC2HC2H3C6H6C2H3C6H4C3H3CNC8H9C2H3CH5NHC4H4CH3CH2C2H2CFeHCSNC4H3CHCH4FeSH3CHCSCH4CH2CH4CHCSCHCH4C3SHCH2SHCH2CH2FeH3CHNH4NH3SHCH4NC2H3FeS2FeSCFeSFeS3CHFeS2FeSFeSH2FeSFeS2FeHCSHCHC3H3C6HCH2C2H3SH4CH2C2H2C2H3C6H5NHCHCH3CH7C2NH2CH4SHCH4CH2C3H3CH2C3H5CH2NHC3H5CH9CH2CH5NCHC2HC3H2C2NH3C2HC3SH3CHFeCH2SHCH4CHC2HCHCFeHCH5CH2C2SHC2H6FeS2FeSFeHS2FeS2FeS2FeSFeS3H2SFeSFeS2FeS3HCHC3SCHC7H4C6H4C6H5CHC3H2C3H2C2HC2H3C2H5CH6CHCH3C2HC5HCH5CH11FeHCNHCHCH5C2H2C4H9NHC3SHCH4C2HCN2CH3SH2CH2CH3CH2CH3CH2C2HNH4CFeH4CH2CHSHCHFeHSFeSFeS3FeS2Fe2S3FeS2FeS2FeSFeS3CHSH2C6H4C6H6C6HSH5CHCHNHC3H4C2HSHNC7H18CH4CHFeH2CH3CHCH2CH2C2H2CHC2HCH3NC2HCHCHCH5CH9C2H6C2H2C3H2CH3CH5CHCHC3H2CH3C3HNH4C2HCH3CHFeHCHCH2CNCH3C2H4CH3CH3C
_chemical_formula_sum              "Fe144 C1008 S288 H1728 N72"
_cell_length_a       48.0876
_cell_length_b       48.1154
_cell_length_c       52.514
_cell_angle_alpha    92.0664
_cell_angle_beta     88.8987
_cell_angle_gamma    117.981

_space_group_name_H-M_alt    "P 1"
_space_group_IT_number       1

loop_
  _space_group_symop_operation_xyz
  'x, y, z'

loop_
  _atom_site_type_symbol
  _atom_site_label
  _atom_site_symmetry_multiplicity
  _atom_site_fract_x
  _atom_site_fract_y
  _atom_site_fract_z
  _atom_site_occupancy
  Fe  Fe1       1.0  0.18030  0.38668  0.19665  1.0000
  C   C1        1.0  0.43857  0.24873  0.23451  1.0000
  S   S1        1.0  0.21706  0.37943  0.17315  1.0000
  Fe  Fe2       1.0  0.11001  0.35851  0.21179  1.0000
  S   S2        1.0  0.06066  0.31975  0.20333  1.0000
  Fe  Fe3       1.0  0.15069  0.42904  0.21105  1.0000
  C   C2        1.0  0.00293  0.40110  0.01802  1.0000
  S   S3        1.0  0.13919  0.39103  0.18098  1.0000
  C   C3        1.0  0.38410  0.26305  0.23315  1.0000
  H   H1        1.0  0.26363  0.30710  0.01212  1.0000
  Fe  Fe4       1.0  0.40088  0.14270  0.22092  1.0000
  S   S4        1.0  0.39891  0.15750  0.18031  1.0000
  Fe  Fe5       1.0  0.23904  0.18543  0.04568  1.0000
  S   S5        1.0  0.27479  0.19499  0.01465  1.0000
  S   S6        1.0  0.19200  0.18524  0.03953  1.0000
  Fe  Fe6       1.0  0.28181  0.17802  0.08591  1.0000
  S   S7        1.0  0.32041  0.18866  0.05730  1.0000
  S   S8        1.0  0.28427  0.16523  0.12713  1.0000
  Fe  Fe7       1.0  0.30942  0.22662  0.04446  1.0000
  S   S9        1.0  0.34202  0.27699  0.03349  1.0000
  Fe  Fe8       1.0  0.28149  0.15562  0.03073  1.0000
  S   S10       1.0  0.34610  0.48420  0.12628  1.0000
  S   S11       1.0  0.27335  0.21833  0.07498  1.0000
  S   S12       1.0  0.24321  0.14374  0.05990  1.0000
  Fe  Fe9       1.0  0.42012  0.43779  0.10717  1.0000
  S   S13       1.0  0.38861  0.44485  0.08016  1.0000
  S   S14       1.0  0.41139  0.38827  0.11521  1.0000
  H   H2        1.0  0.41837  0.39524  0.02370  1.0000
  H   H3        1.0  0.30296  0.99784  0.18664  1.0000
  H   H4        1.0  0.99459  0.46930  0.06460  1.0000
  H   H5        1.0  0.29257  0.34608  0.11212  1.0000
  S   S15       1.0  0.41841  0.47057  0.13828  1.0000
  C   C4        1.0  0.35853  0.30711  0.05726  1.0000
  C   C5        1.0  0.36457  0.30094  0.08180  1.0000
  C   C6        1.0  0.38038  0.32596  0.09956  1.0000
  C   C7        1.0  0.38960  0.35718  0.09313  1.0000
  C   C8        1.0  0.38233  0.36313  0.06894  1.0000
  C   C9        1.0  0.36714  0.33824  0.05101  1.0000
  H   H6        1.0  0.35805  0.27702  0.08680  1.0000
  H   H7        1.0  0.38584  0.32114  0.11826  1.0000
  H   H8        1.0  0.38911  0.38699  0.06383  1.0000
  H   H9        1.0  0.36226  0.34319  0.03217  1.0000
  C   C10       1.0  0.36643  0.15851  0.16555  1.0000
  C   C11       1.0  0.33674  0.14645  0.17712  1.0000
  C   C12       1.0  0.31199  0.14894  0.16519  1.0000
  C   C13       1.0  0.31639  0.16297  0.14138  1.0000
  C   C14       1.0  0.34592  0.17453  0.12960  1.0000
  C   C15       1.0  0.37078  0.17239  0.14168  1.0000
  H   H10       1.0  0.33288  0.13541  0.19535  1.0000
  H   H11       1.0  0.28921  0.13979  0.17443  1.0000
  H   H12       1.0  0.34969  0.18534  0.11127  1.0000
  H   H13       1.0  0.39360  0.18168  0.13249  1.0000
  C   C16       1.0  0.36784  0.20700  0.22777  1.0000
  H   H14       1.0  0.32956  0.04296  0.21754  1.0000
  H   H15       1.0  0.99703  0.27020  0.20232  1.0000
  H   H16       1.0  0.03775  0.45862  0.20968  1.0000
  C   C17       1.0  0.46876  0.40683  0.05848  1.0000
  S   S16       1.0  0.15318  0.47604  0.20150  1.0000
  C   C18       1.0  0.15406  0.20504  0.01567  1.0000
  H   H17       1.0  0.38120  0.99744  0.19278  1.0000
  S   S17       1.0  0.28932  0.11657  0.01102  1.0000
  C   C19       1.0  0.25402  0.40887  0.16188  1.0000
  C   C20       1.0  0.26505  0.44086  0.16787  1.0000
  C   C21       1.0  0.29362  0.46357  0.15731  1.0000
  C   C22       1.0  0.31196  0.45457  0.14120  1.0000
  C   C23       1.0  0.30170  0.42246  0.13631  1.0000
  C   C24       1.0  0.27280  0.39978  0.14643  1.0000
  H   H18       1.0  0.25139  0.44809  0.18041  1.0000
  S   S18       1.0  0.40550  0.09995  0.23113  1.0000
  H   H19       1.0  0.31570  0.41524  0.12416  1.0000
  H   H20       1.0  0.26476  0.37507  0.14201  1.0000
  C   C25       1.0  0.02933  0.30998  0.22527  1.0000
  H   H21       1.0  0.33349  0.13219  0.05812  1.0000
  C   C26       1.0  0.05821  0.42996  0.05542  1.0000
  C   C27       1.0  0.07565  0.43918  0.08122  1.0000
  H   H22       1.0  0.23076  0.22904  0.00047  1.0000
  H   H23       1.0  0.37139  0.18864  0.21687  1.0000
  C   C28       1.0  0.22662  0.34734  0.23444  1.0000
  H   H24       1.0  0.09803  0.43144  0.17207  1.0000
  C   C29       1.0  0.44038  0.35529  0.01873  1.0000
  C   C30       1.0  0.31760  0.01914  0.22421  1.0000
  H   H25       1.0  0.46219  0.25201  0.22858  1.0000
  H   H26       1.0  0.27875  0.27981  0.00683  1.0000
  H   H27       1.0  0.28535  0.02968  0.06005  1.0000
  C   C31       1.0  0.18425  0.20720  0.01668  1.0000
  C   C32       1.0  0.10159  0.45502  0.16908  1.0000
  S   S19       1.0  0.14947  0.34942  0.22420  1.0000
  H   H28       1.0  0.01524  0.38663  0.01926  1.0000
  H   H29       1.0  0.05899  0.43184  0.09749  1.0000
  C   C33       1.0  0.38853  0.25905  0.16934  1.0000
  H   H30       1.0  0.12411  0.22149  0.99835  1.0000
  H   H31       1.0  0.21826  0.23857  0.07617  1.0000
  H   H32       1.0  0.41835  0.22390  0.19893  1.0000
  H   H33       1.0  0.38948  0.30476  0.21335  1.0000
  C   C34       1.0  0.33195  0.19416  0.23118  1.0000
  H   H34       1.0  0.09203  0.46474  0.08326  1.0000
  H   H35       1.0  0.45018  0.41429  0.05879  1.0000
  N   N1        1.0  0.03791  0.44529  0.05022  1.0000
  H   H36       1.0  0.26878  0.28000  0.09784  1.0000
  H   H37       1.0  0.00011  0.40836  0.07133  1.0000
  H   H38       1.0  0.23996  0.02520  0.08944  1.0000
  H   H39       1.0  0.24378  0.34466  0.22156  1.0000
  H   H40       1.0  0.22563  0.09849  0.99254  1.0000
  S   S20       1.0  0.46523  0.47527  0.09090  1.0000
  N   N2        1.0  0.02085  0.41522  0.22999  1.0000
  H   H41       1.0  0.22190  0.44704  0.13359  1.0000
  C   C35       1.0  0.08117  0.45982  0.15299  1.0000
  C   C36       1.0  0.30100  0.40560  0.21781  1.0000
  H   H42       1.0  0.27869  0.36494  0.08984  1.0000
  H   H43       1.0  0.99365  0.43315  0.17515  1.0000
  N   N3        1.0  0.26224  0.30427  0.06646  1.0000
  C   C37       1.0  0.29419  0.33206  0.07174  1.0000
  C   C38       1.0  0.26723  0.28361  0.04656  1.0000
  C   C39       1.0  0.25101  0.28669  0.09090  1.0000
  C   C40       1.0  0.24014  0.31628  0.05789  1.0000
  C   C41       1.0  0.29571  0.35589  0.09286  1.0000
  C   C42       1.0  0.27890  0.29823  0.02029  1.0000
  C   C43       1.0  0.21903  0.25659  0.09023  1.0000
  C   C44       1.0  0.21016  0.29263  0.04323  1.0000
  H   H44       1.0  0.31135  0.32383  0.07713  1.0000
  H   H45       1.0  0.30396  0.34612  0.05442  1.0000
  H   H46       1.0  0.24582  0.26097  0.04309  1.0000
  H   H47       1.0  0.28474  0.27663  0.05342  1.0000
  C   C45       1.0  0.30253  0.99356  0.20675  1.0000
  H   H48       1.0  0.24840  0.30187  0.10622  1.0000
  H   H49       1.0  0.23226  0.32582  0.07455  1.0000
  H   H50       1.0  0.25284  0.33658  0.04520  1.0000
  H   H51       1.0  0.24009  0.10270  0.09890  1.0000
  H   H52       1.0  0.31964  0.37650  0.09270  1.0000
  H   H53       1.0  0.37250  0.25698  0.15356  1.0000
  H   H54       1.0  0.41911  0.04746  0.23337  1.0000
  C   C46       1.0  0.40349  0.29769  0.22564  1.0000
  H   H55       1.0  0.30363  0.31713  0.02100  1.0000
  H   H56       1.0  0.08360  0.46924  0.22625  1.0000
  H   H57       1.0  0.21481  0.24555  0.10910  1.0000
  H   H58       1.0  0.19928  0.26188  0.08715  1.0000
  H   H59       1.0  0.18926  0.29383  0.05142  1.0000
  H   H60       1.0  0.20484  0.26773  0.04359  1.0000
  H   H61       1.0  0.21147  0.29924  0.02301  1.0000
  H   H62       1.0  0.99407  0.39811  0.99817  1.0000
  H   H63       1.0  0.04379  0.40389  0.05524  1.0000
  C   C47       1.0  0.25995  0.08198  0.99559  1.0000
  H   H64       1.0  0.04496  0.44283  0.00943  1.0000
  C   C48       1.0  0.19987  0.44538  0.14170  1.0000
  H   H65       1.0  0.40538  0.30795  0.00794  1.0000
  H   H66       1.0  0.01313  0.44984  0.01786  1.0000
  H   H67       1.0  0.42753  0.35346  0.03688  1.0000
  C   C49       1.0  0.14736  0.22322  0.99869  1.0000
  C   C50       1.0  0.99131  0.42960  0.19605  1.0000
  N   N4        1.0  0.27785  0.07240  0.09644  1.0000
  C   C51       1.0  0.25958  0.07619  0.11885  1.0000
  C   C52       1.0  0.30006  0.06143  0.10662  1.0000
  C   C53       1.0  0.25445  0.04708  0.07882  1.0000
  C   C54       1.0  0.29466  0.10339  0.08305  1.0000
  C   C55       1.0  0.23248  0.08333  0.11238  1.0000
  C   C56       1.0  0.32158  0.08199  0.12861  1.0000
  H   H68       1.0  0.28875  0.05861  0.99539  1.0000
  C   C57       1.0  0.32606  0.11077  0.06944  1.0000
  H   H69       1.0  0.24937  0.05471  0.13053  1.0000
  H   H70       1.0  0.27536  0.09585  0.13185  1.0000
  H   H71       1.0  0.31561  0.05972  0.09144  1.0000
  H   H72       1.0  0.28661  0.03706  0.11374  1.0000
  C   C58       1.0  0.40024  0.02328  0.22899  1.0000
  H   H73       1.0  0.23760  0.05442  0.07102  1.0000
  H   H74       1.0  0.27900  0.10537  0.06867  1.0000
  H   H75       1.0  0.30034  0.12363  0.09653  1.0000
  H   H76       1.0  0.27828  0.05730  0.04183  1.0000
  H   H77       1.0  0.21173  0.06214  0.10467  1.0000
  C   C59       1.0  0.12647  0.48072  0.18131  1.0000
  H   H78       1.0  0.30858  0.07696  0.14701  1.0000
  H   H79       1.0  0.34147  0.07661  0.13088  1.0000
  H   H80       1.0  0.33161  0.10745  0.12516  1.0000
  H   H81       1.0  0.40600  0.25233  0.16094  1.0000
  H   H82       1.0  0.46426  0.03929  0.22485  1.0000
  H   H83       1.0  0.44291  0.00284  0.08145  1.0000
  H   H84       1.0  0.34525  0.11619  0.08320  1.0000
  H   H85       1.0  0.22466  0.09107  0.13007  1.0000
  H   H86       1.0  0.32434  0.09189  0.05597  1.0000
  N   N5        1.0  0.38536  0.23845  0.21528  1.0000
  C   C60       1.0  0.45924  0.99258  0.08167  1.0000
  H   H87       1.0  0.40045  0.28399  0.17589  1.0000
  H   H88       1.0  0.42602  0.30294  0.21611  1.0000
  H   H89       1.0  0.06244  0.41137  0.21758  1.0000
  C   C61       1.0  0.41860  0.24394  0.21050  1.0000
  C   C62       1.0  0.36904  0.23637  0.19039  1.0000
  H   H90       1.0  0.24853  0.01791  0.04482  1.0000
  H   H91       1.0  0.02082  0.44423  0.08886  1.0000
  H   H92       1.0  0.06177  0.43973  0.14393  1.0000
  Fe  Fe10      1.0  0.38847  0.47918  0.11048  1.0000
  H   H93       1.0  0.31952  0.19020  0.21277  1.0000
  C   C63       1.0  0.26806  0.03778  0.05526  1.0000
  C   C64       1.0  0.01152  0.43437  0.06951  1.0000
  H   H94       1.0  0.43240  0.26483  0.19890  1.0000
  N   N6        1.0  0.45826  0.38907  0.01081  1.0000
  H   H95       1.0  0.36021  0.21250  0.18134  1.0000
  C   C65       1.0  0.02540  0.43635  0.02341  1.0000
  H   H96       1.0  0.42231  0.00849  0.19758  1.0000
  C   C66       1.0  0.05664  0.48065  0.05262  1.0000
  H   H97       1.0  0.09004  0.42678  0.08270  1.0000
  S   S21       1.0  0.19366  0.42664  0.22512  1.0000
  C   C67       1.0  0.41544  0.33188  0.00003  1.0000
  H   H98       1.0  0.13577  0.18934  0.02824  1.0000
  H   H99       1.0  0.34774  0.23955  0.19372  1.0000
  H   H100      1.0  0.08620  0.24873  0.23369  1.0000
  C   C68       1.0  0.20762  0.22753  0.00022  1.0000
  H   H101      1.0  0.24037  0.39577  0.22616  1.0000
  H   H102      1.0  0.07599  0.43473  0.04003  1.0000
  H   H103      1.0  0.45970  0.38354  0.06730  1.0000
  H   H104      1.0  0.02798  0.36438  0.20388  1.0000
  C   C69       1.0  0.02253  0.43289  0.20638  1.0000
  H   H105      1.0  0.03468  0.42697  0.19050  1.0000
  H   H106      1.0  0.24749  0.47747  0.10349  1.0000
  C   C70       1.0  0.00021  0.28362  0.21999  1.0000
  H   H107      1.0  0.45004  0.42960  0.01160  1.0000
  H   H108      1.0  0.00172  0.37317  0.18542  1.0000
  H   H109      1.0  0.08865  0.28673  0.23612  1.0000
  H   H110      1.0  0.45703  0.34583  0.02257  1.0000
  H   H111      1.0  0.48271  0.01092  0.07536  1.0000
  H   H112      1.0  0.28074  0.39249  0.20486  1.0000
  H   H113      1.0  0.32071  0.40197  0.20993  1.0000
  C   C71       1.0  0.00460  0.36359  0.20349  1.0000
  H   H114      1.0  0.39540  0.33702  0.99819  1.0000
  H   H115      1.0  0.41334  0.00042  0.04448  1.0000
  C   C72       1.0  0.48212  0.40706  0.03143  1.0000
  C   C73       1.0  0.43657  0.40359  0.00844  1.0000
  H   H116      1.0  0.41055  0.03745  0.18953  1.0000
  H   H117      1.0  0.20468  0.33905  0.22324  1.0000
  C   C74       1.0  0.99875  0.38038  0.22698  1.0000
  H   H118      1.0  0.20030  0.44330  0.16266  1.0000
  H   H119      1.0  0.37798  0.02501  0.23075  1.0000
  H   H120      1.0  0.30862  0.43116  0.21700  1.0000
  C   C75       1.0  0.05338  0.41892  0.23468  1.0000
  Fe  Fe11      1.0  0.43400  0.48437  0.06536  1.0000
  H   H121      1.0  0.18032  0.42298  0.13419  1.0000
  C   C76       1.0  0.19363  0.47301  0.13512  1.0000
  C   C77       1.0  0.40391  0.01598  0.20064  1.0000
  H   H122      1.0  0.17241  0.46896  0.14669  1.0000
  H   H123      1.0  0.18583  0.46946  0.11489  1.0000
  H   H124      1.0  0.98768  0.22526  0.06949  1.0000
  H   H125      1.0  0.32215  0.17086  0.24017  1.0000
  S   S22       1.0  0.11944  0.39675  0.24118  1.0000
  H   H126      1.0  0.35947  0.25908  0.23529  1.0000
  C   C78       1.0  0.08577  0.28238  0.31795  1.0000
  Fe  Fe12      1.0  0.16087  0.38960  0.25197  1.0000
  S   S23       1.0  0.17315  0.38753  0.29352  1.0000
  Fe  Fe13      1.0  0.18351  0.27005  0.39462  1.0000
  S   S24       1.0  0.19509  0.30782  0.42526  1.0000
  S   S25       1.0  0.17081  0.27261  0.35305  1.0000
  Fe  Fe14      1.0  0.19585  0.22749  0.43106  1.0000
  S   S26       1.0  0.20799  0.26264  0.46334  1.0000
  S   S27       1.0  0.19598  0.18077  0.43702  1.0000
  Fe  Fe15      1.0  0.16596  0.26766  0.45133  1.0000
  H   H127      1.0  0.32522  0.39448  0.47142  1.0000
  Fe  Fe16      1.0  0.23564  0.29853  0.43421  1.0000
  S   S28       1.0  0.28592  0.33301  0.44508  1.0000
  S   S29       1.0  0.15197  0.23032  0.42023  1.0000
  S   S30       1.0  0.22581  0.26298  0.40234  1.0000
  Fe  Fe17      1.0  0.44544  0.39717  0.37292  1.0000
  S   S31       1.0  0.45678  0.37011  0.40109  1.0000
  S   S32       1.0  0.39511  0.38350  0.36224  1.0000
  H   H128      1.0  0.37395  0.25830  0.39196  1.0000
  C   C79       1.0  0.28794  0.39499  0.30382  1.0000
  S   S33       1.0  0.44135  0.17468  0.24646  1.0000
  C   C80       1.0  0.41090  0.03927  0.28582  1.0000
  N   N7        1.0  0.03550  0.28096  0.47559  1.0000
  Fe  Fe18      1.0  0.37085  0.09419  0.26218  1.0000
  S   S34       1.0  0.33465  0.04504  0.27313  1.0000
  Fe  Fe19      1.0  0.40411  0.16544  0.27629  1.0000
  H   H129      1.0  0.43337  0.04095  0.29248  1.0000
  S   S35       1.0  0.39818  0.20538  0.29656  1.0000
  Fe  Fe20      1.0  0.44183  0.13079  0.26013  1.0000
  H   H130      1.0  0.24458  0.22313  0.47287  1.0000
  C   C81       1.0  0.24210  0.19973  0.47439  1.0000
  S   S36       1.0  0.40721  0.12370  0.29169  1.0000
  H   H131      1.0  0.46032  0.36028  0.27769  1.0000
  H   H132      1.0  0.05498  0.34822  0.25203  1.0000
  H   H133      1.0  0.48361  0.03828  0.41035  1.0000
  C   C82       1.0  0.41379  0.40657  0.47755  1.0000
  H   H134      1.0  0.36575  0.00391  0.27233  1.0000
  H   H135      1.0  0.44809  0.47574  0.41931  1.0000
  C   C83       1.0  0.44024  0.29006  0.33512  1.0000
  C   C84       1.0  0.41864  0.26292  0.32139  1.0000
  C   C85       1.0  0.42688  0.23969  0.31280  1.0000
  C   C86       1.0  0.45721  0.24415  0.31772  1.0000
  H   H136      1.0  0.25656  0.35553  0.28086  1.0000
  H   H137      1.0  0.43342  0.30752  0.34186  1.0000
  H   H138      1.0  0.39524  0.25970  0.31772  1.0000
  H   H139      1.0  0.46385  0.22645  0.31130  1.0000
  C   C87       1.0  0.43185  0.00043  0.24899  1.0000
  H   H140      1.0  0.02049  0.42385  0.27086  1.0000
  H   H141      1.0  0.46203  0.05161  0.25721  1.0000
  H   H142      1.0  0.39867  0.04227  0.30305  1.0000
  H   H143      1.0  0.34328  0.22266  0.45873  1.0000
  C   C88       1.0  0.00004  0.22144  0.46360  1.0000
  C   C89       1.0  0.31572  0.34484  0.42159  1.0000
  C   C90       1.0  0.34713  0.35595  0.42907  1.0000
  C   C91       1.0  0.37161  0.36709  0.41094  1.0000
  C   C92       1.0  0.36484  0.36763  0.38525  1.0000
  C   C93       1.0  0.33335  0.35582  0.37770  1.0000
  C   C94       1.0  0.30882  0.34417  0.39577  1.0000
  H   H144      1.0  0.35251  0.35607  0.44898  1.0000
  H   H145      1.0  0.39577  0.37570  0.41679  1.0000
  H   H146      1.0  0.32795  0.35605  0.35783  1.0000
  H   H147      1.0  0.28467  0.33562  0.38981  1.0000
  C   C95       1.0  0.17420  0.35595  0.30945  1.0000
  C   C96       1.0  0.17770  0.35810  0.33610  1.0000
  C   C97       1.0  0.17760  0.33324  0.34967  1.0000
  C   C98       1.0  0.17392  0.30580  0.33674  1.0000
  C   C99       1.0  0.17110  0.30392  0.30999  1.0000
  C   C100      1.0  0.17146  0.32889  0.29639  1.0000
  H   H148      1.0  0.18010  0.37899  0.34641  1.0000
  H   H149      1.0  0.17981  0.33510  0.37021  1.0000
  H   H150      1.0  0.16837  0.28286  0.29977  1.0000
  H   H151      1.0  0.16920  0.32698  0.27588  1.0000
  C   C101      1.0  0.00848  0.31723  0.26609  1.0000
  H   H152      1.0  0.28018  0.38082  0.32127  1.0000
  H   H153      1.0  0.99620  0.22609  0.28616  1.0000
  C   C102      1.0  0.44006  0.06347  0.42775  1.0000
  C   C103      1.0  0.22005  0.17494  0.45927  1.0000
  C   C104      1.0  0.21641  0.14446  0.46226  1.0000
  S   S37       1.0  0.47695  0.39371  0.34221  1.0000
  H   H154      1.0  0.09850  0.34289  0.31956  1.0000
  H   H155      1.0  0.07804  0.24012  0.27850  1.0000
  C   C105      1.0  0.08661  0.26482  0.27299  1.0000
  H   H156      1.0  0.42219  0.05872  0.41281  1.0000
  H   H157      1.0  0.41026  0.31297  0.24321  1.0000
  C   C106      1.0  0.23476  0.13882  0.48002  1.0000
  H   H158      1.0  0.45816  0.10717  0.31558  1.0000
  H   H159      1.0  0.33903  0.29845  0.39683  1.0000
  H   H160      1.0  0.35857  0.26267  0.45064  1.0000
  H   H161      1.0  0.01183  0.33004  0.28410  1.0000
  H   H162      1.0  0.23208  0.43113  0.27007  1.0000
  H   H163      1.0  0.23182  0.11528  0.48201  1.0000
  H   H164      1.0  0.03210  0.28271  0.30359  1.0000
  C   C107      1.0  0.43321  0.03210  0.43979  1.0000
  H   H165      1.0  0.26551  0.46538  0.28179  1.0000
  C   C108      1.0  0.47871  0.27114  0.33167  1.0000
  H   H166      1.0  0.25772  0.19851  0.36973  1.0000
  H   H167      1.0  0.23945  0.37862  0.29306  1.0000
  H   H168      1.0  0.40871  0.40327  0.45701  1.0000
  H   H169      1.0  0.33119  0.29538  0.45539  1.0000
  H   H170      1.0  0.19930  0.12504  0.45077  1.0000
  H   H171      1.0  0.44217  0.26997  0.24596  1.0000
  H   H172      1.0  0.04029  0.26641  0.43658  1.0000
  H   H173      1.0  0.06767  0.32662  0.43740  1.0000
  H   H174      1.0  0.41173  0.44095  0.42237  1.0000
  H   H175      1.0  0.42705  0.04787  0.48644  1.0000
  H   H176      1.0  0.11048  0.30114  0.32089  1.0000
  C   C109      1.0  0.08646  0.34004  0.30111  1.0000
  H   H177      1.0  0.24787  0.21375  0.39770  1.0000
  C   C110      1.0  0.09029  0.31621  0.28275  1.0000
  N   N8        1.0  0.31617  0.25156  0.41179  1.0000
  C   C111      1.0  0.29836  0.23820  0.38716  1.0000
  C   C112      1.0  0.34551  0.28140  0.40538  1.0000
  C   C113      1.0  0.29564  0.25982  0.42919  1.0000
  C   C114      1.0  0.32287  0.22699  0.42329  1.0000
  C   C115      1.0  0.26613  0.20835  0.38920  1.0000
  C   C116      1.0  0.36863  0.27738  0.38668  1.0000
  C   C117      1.0  0.30869  0.27328  0.45591  1.0000
  C   C118      1.0  0.35056  0.23873  0.44240  1.0000
  H   H178      1.0  0.29417  0.25625  0.37758  1.0000
  H   H179      1.0  0.31239  0.23160  0.37348  1.0000
  H   H180      1.0  0.35919  0.29419  0.42250  1.0000
  H   H181      1.0  0.28998  0.27708  0.42005  1.0000
  H   H182      1.0  0.27269  0.23883  0.43264  1.0000
  H   H183      1.0  0.30146  0.20922  0.43316  1.0000
  H   H184      1.0  0.32819  0.21356  0.40793  1.0000
  C   C119      1.0  0.42524  0.47507  0.45538  1.0000
  C   C120      1.0  0.01937  0.23468  0.29570  1.0000
  C   C121      1.0  0.47677  0.10062  0.31346  1.0000
  H   H185      1.0  0.35972  0.27313  0.36683  1.0000
  H   H186      1.0  0.39126  0.29963  0.38667  1.0000
  H   H187      1.0  0.10258  0.13255  0.45413  1.0000
  N   N9        1.0  0.40028  0.00006  0.24749  1.0000
  C   C122      1.0  0.48132  0.35712  0.28141  1.0000
  H   H188      1.0  0.01852  0.21682  0.45440  1.0000
  C   C123      1.0  0.11424  0.15179  0.46869  1.0000
  N   N10       1.0  0.45529  0.03456  0.46072  1.0000
  H   H189      1.0  0.39065  0.26085  0.25298  1.0000
  H   H190      1.0  0.06149  0.33399  0.30445  1.0000
  C   C124      1.0  0.99286  0.28421  0.44808  1.0000
  H   H191      1.0  0.17832  0.20251  0.48944  1.0000
  C   C125      1.0  0.44702  0.00179  0.46857  1.0000
  H   H192      1.0  0.03799  0.16723  0.48266  1.0000
  H   H193      1.0  0.47064  0.08240  0.35128  1.0000
  H   H194      1.0  0.36247  0.44701  0.45344  1.0000
  C   C126      1.0  0.47029  0.29410  0.34063  1.0000
  C   C127      1.0  0.01416  0.24795  0.48429  1.0000
  H   H195      1.0  0.09790  0.36356  0.29245  1.0000
  H   H196      1.0  0.98838  0.30317  0.44088  1.0000
  H   H197      1.0  0.26732  0.18955  0.39996  1.0000
  C   C128      1.0  0.08568  0.25205  0.32667  1.0000
  C   C129      1.0  0.13225  0.14213  0.48747  1.0000
  H   H198      1.0  0.11277  0.27551  0.27389  1.0000
  C   C130      1.0  0.39005  0.00672  0.27334  1.0000
  H   H199      1.0  0.10445  0.24838  0.31688  1.0000
  H   H200      1.0  0.37098  0.23718  0.43355  1.0000
  C   C131      1.0  0.34559  0.41232  0.48254  1.0000
  H   H201      1.0  0.08108  0.31801  0.26402  1.0000
  H   H202      1.0  0.02299  0.45512  0.25228  1.0000
  C   C132      1.0  0.45211  0.05393  0.48277  1.0000
  H   H203      1.0  0.09134  0.25466  0.34733  1.0000
  C   C133      1.0  0.08031  0.21212  0.48221  1.0000
  H   H204      1.0  0.28957  0.36875  0.24475  1.0000
  H   H205      1.0  0.43458  0.99192  0.26776  1.0000
  H   H206      1.0  0.48011  0.33847  0.26777  1.0000
  H   H207      1.0  0.09839  0.32563  0.45652  1.0000
  H   H208      1.0  0.99959  0.36796  0.24424  1.0000
  H   H209      1.0  0.07141  0.28817  0.33196  1.0000
  H   H210      1.0  0.10176  0.45206  0.24468  1.0000
  H   H211      1.0  0.46339  0.07475  0.41823  1.0000
  C   C134      1.0  0.07901  0.31226  0.44279  1.0000
  H   H212      1.0  0.06270  0.23084  0.32404  1.0000
  H   H213      1.0  0.39563  0.38602  0.48769  1.0000
  H   H214      1.0  0.15138  0.14098  0.47586  1.0000
  C   C135      1.0  0.03995  0.26967  0.28985  1.0000
  H   H215      1.0  0.32625  0.20950  0.24412  1.0000
  H   H216      1.0  0.31650  0.40696  0.25594  1.0000
  H   H217      1.0  0.31084  0.25560  0.46752  1.0000
  H   H218      1.0  0.38893  0.98953  0.28743  1.0000
  S   S38       1.0  0.48548  0.12374  0.26443  1.0000
  N   N11       1.0  0.07518  0.28247  0.29102  1.0000
  C   C136      1.0  0.26127  0.38035  0.28392  1.0000
  H   H219      1.0  0.03186  0.32332  0.46737  1.0000
  H   H220      1.0  0.25143  0.42991  0.29884  1.0000
  H   H221      1.0  0.47865  0.34884  0.30113  1.0000
  C   C137      1.0  0.25513  0.43939  0.27944  1.0000
  H   H222      1.0  0.11600  0.32535  0.27971  1.0000
  S   S39       1.0  0.48226  0.44493  0.38695  1.0000
  H   H223      1.0  0.40383  0.99633  0.48931  1.0000
  C   C138      1.0  0.48395  0.08659  0.33372  1.0000
  H   H224      1.0  0.46429  0.00212  0.48242  1.0000
  C   C139      1.0  0.27751  0.43138  0.26301  1.0000
  H   H225      1.0  0.30140  0.44410  0.27163  1.0000
  C   C140      1.0  0.07751  0.26325  0.24474  1.0000
  H   H226      1.0  0.30967  0.39446  0.29705  1.0000
  H   H227      1.0  0.37711  0.20782  0.24712  1.0000
  H   H228      1.0  0.21796  0.38214  0.25435  1.0000
  C   C141      1.0  0.29401  0.39365  0.24533  1.0000
  H   H229      1.0  0.05165  0.25190  0.24201  1.0000
  N   N12       1.0  0.26766  0.39682  0.25892  1.0000
  C   C142      1.0  0.23787  0.38191  0.24336  1.0000
  H   H230      1.0  0.37335  0.41720  0.44909  1.0000
  H   H231      1.0  0.00788  0.46308  0.40793  1.0000
  C   C143      1.0  0.37162  0.43322  0.46388  1.0000
  C   C144      1.0  0.03301  0.32741  0.24802  1.0000
  C   C145      1.0  0.31658  0.01381  0.25033  1.0000
  H   H232      1.0  0.05273  0.40348  0.25028  1.0000
  H   H233      1.0  0.43827  0.08021  0.44193  1.0000
  H   H234      1.0  0.02885  0.21920  0.28791  1.0000
  C   C146      1.0  0.07920  0.45260  0.24173  1.0000
  H   H235      1.0  0.29159  0.27919  0.46611  1.0000
  C   C147      1.0  0.05505  0.28006  0.45303  1.0000
  H   H236      1.0  0.09025  0.30828  0.42533  1.0000
  H   H237      1.0  0.44666  0.44647  0.43959  1.0000
  H   H238      1.0  0.03236  0.27395  0.27117  1.0000
  H   H239      1.0  0.08828  0.20747  0.46391  1.0000
  S   S40       1.0  0.13343  0.27125  0.48231  1.0000
  C   C148      1.0  0.43281  0.45794  0.43314  1.0000
  H   H240      1.0  0.29341  0.41936  0.30973  1.0000
  H   H241      1.0  0.46356  0.07933  0.47818  1.0000
  C   C149      1.0  0.01169  0.42896  0.25304  1.0000
  N   N13       1.0  0.40311  0.45493  0.47573  1.0000
  H   H242      1.0  0.13070  0.17292  0.45815  1.0000
  H   H243      1.0  0.00162  0.27605  0.43136  1.0000
  C   C150      1.0  0.01659  0.29771  0.47017  1.0000
  H   H244      1.0  0.22111  0.33144  0.25064  1.0000
  H   H245      1.0  0.41523  0.05907  0.27346  1.0000
  H   H246      1.0  0.09577  0.15614  0.47793  1.0000
  H   H247      1.0  0.06854  0.26740  0.45799  1.0000
  H   H248      1.0  0.01527  0.23145  0.31651  1.0000
  H   H249      1.0  0.43623  0.40556  0.47996  1.0000
  H   H250      1.0  0.43275  0.01555  0.42421  1.0000
  H   H251      1.0  0.99350  0.42153  0.40688  1.0000
  H   H252      1.0  0.42831  0.22802  0.24673  1.0000
  H   H253      1.0  0.40852  0.02162  0.44699  1.0000
  S   S41       1.0  0.36358  0.13474  0.25016  1.0000
  H   H254      1.0  0.07399  0.46197  0.25977  1.0000
  H   H255      1.0  0.00227  0.29742  0.48717  1.0000
  H   H256      1.0  0.48277  0.02995  0.24983  1.0000
  C   C151      1.0  0.46157  0.03226  0.24500  1.0000
  H   H257      1.0  0.27958  0.44270  0.24446  1.0000
  C   C152      1.0  0.41720  0.43774  0.48983  1.0000
  Fe  Fe21      1.0  0.28326  0.09389  0.58759  1.0000
  S   S42       1.0  0.32000  0.12069  0.55852  1.0000
  S   S43       1.0  0.28890  0.10594  0.63049  1.0000
  Fe  Fe22      1.0  0.24079  0.04442  0.54638  1.0000
  S   S44       1.0  0.27497  0.06910  0.51490  1.0000
  H   H258      1.0  0.14548  0.11130  0.53835  1.0000
  Fe  Fe23      1.0  0.31169  0.07314  0.54308  1.0000
  S   S45       1.0  0.34992  0.05961  0.53219  1.0000
  Fe  Fe24      1.0  0.27914  0.11398  0.53361  1.0000
  S   S46       1.0  0.28242  0.15866  0.51645  1.0000
  S   S47       1.0  0.27718  0.04657  0.57355  1.0000
  S   S48       1.0  0.24260  0.08907  0.56369  1.0000
  C   C153      1.0  0.39089  0.47159  0.65091  1.0000
  H   H259      1.0  0.37739  0.10574  0.58333  1.0000
  H   H260      1.0  0.38230  0.46324  0.51037  1.0000
  S   S49       1.0  0.39832  0.22532  0.68848  1.0000
  S   S50       1.0  0.21777  0.36227  0.72637  1.0000
  Fe  Fe25      1.0  0.29736  0.43937  0.71848  1.0000
  S   S51       1.0  0.27122  0.40751  0.68533  1.0000
  C   C154      1.0  0.09835  0.24082  0.49527  1.0000
  Fe  Fe26      1.0  0.22720  0.40508  0.70370  1.0000
  S   S52       1.0  0.18375  0.40713  0.68833  1.0000
  Fe  Fe27      1.0  0.26459  0.36862  0.71152  1.0000
  S   S53       1.0  0.27887  0.33159  0.69856  1.0000
  N   N14       1.0  0.14575  0.16294  0.51104  1.0000
  H   H261      1.0  0.34126  0.16435  0.61216  1.0000
  C   C155      1.0  0.12135  0.15415  0.53193  1.0000
  S   S54       1.0  0.07712  0.47228  0.62165  1.0000
  H   H262      1.0  0.22466  0.17244  0.66700  1.0000
  H   H263      1.0  0.33663  0.42615  0.49415  1.0000
  H   H264      1.0  0.33595  0.04884  0.65238  1.0000
  Fe  Fe28      1.0  0.03953  0.43891  0.59427  1.0000
  S   S55       1.0  0.07282  0.44104  0.56310  1.0000
  H   H265      1.0  0.07445  0.14312  0.51746  1.0000
  C   C156      1.0  0.35796  0.07067  0.65717  1.0000
  C   C157      1.0  0.04054  0.19542  0.51626  1.0000
  C   C158      1.0  0.05878  0.22400  0.52939  1.0000
  H   H266      1.0  0.33432  0.26947  0.65544  1.0000
  H   H267      1.0  0.05085  0.22865  0.54770  1.0000
  C   C159      1.0  0.43190  0.42592  0.68793  1.0000
  C   C160      1.0  0.17852  0.42863  0.66366  1.0000
  C   C161      1.0  0.15149  0.43289  0.66422  1.0000
  C   C162      1.0  0.14437  0.44684  0.64389  1.0000
  C   C163      1.0  0.16431  0.45682  0.62268  1.0000
  C   C164      1.0  0.19190  0.45354  0.62246  1.0000
  C   C165      1.0  0.19899  0.43949  0.64280  1.0000
  H   H268      1.0  0.13574  0.42490  0.68041  1.0000
  H   H269      1.0  0.12339  0.44974  0.64462  1.0000
  H   H270      1.0  0.24462  0.19429  0.63987  1.0000
  H   H271      1.0  0.21982  0.43631  0.64204  1.0000
  C   C166      1.0  0.33172  0.24976  0.66734  1.0000
  H   H272      1.0  0.14240  0.20281  0.49541  1.0000
  S   S56       1.0  0.15601  0.47399  0.59635  1.0000
  H   H273      1.0  0.43052  0.18868  0.65067  1.0000
  H   H274      1.0  0.34392  0.44774  0.66697  1.0000
  C   C167      1.0  0.26549  0.22919  0.68358  1.0000
  C   C168      1.0  0.31702  0.30722  0.71413  1.0000
  C   C169      1.0  0.29646  0.31920  0.72176  1.0000
  C   C170      1.0  0.00389  0.48806  0.50608  1.0000
  H   H275      1.0  0.32266  0.30662  0.69415  1.0000
  C   C171      1.0  0.05813  0.29909  0.49690  1.0000
  C   C172      1.0  0.25049  0.15367  0.64465  1.0000
  H   H276      1.0  0.35631  0.36834  0.68143  1.0000
  C   C173      1.0  0.35908  0.03793  0.55395  1.0000
  C   C174      1.0  0.37970  0.02585  0.54671  1.0000
  H   H277      1.0  0.07568  0.29042  0.49916  1.0000
  C   C175      1.0  0.35512  0.01702  0.59606  1.0000
  C   C176      1.0  0.34647  0.03295  0.57856  1.0000
  H   H278      1.0  0.29798  0.22368  0.72535  1.0000
  C   C177      1.0  0.37615  0.00549  0.58906  1.0000
  H   H279      1.0  0.33083  0.04224  0.58444  1.0000
  C   C178      1.0  0.31920  0.13965  0.64618  1.0000
  C   C179      1.0  0.32035  0.14107  0.67298  1.0000
  C   C180      1.0  0.34398  0.16733  0.68627  1.0000
  C   C181      1.0  0.36701  0.19243  0.67285  1.0000
  C   C182      1.0  0.36587  0.19101  0.64603  1.0000
  C   C183      1.0  0.34196  0.16494  0.63277  1.0000
  H   H280      1.0  0.30289  0.12163  0.68357  1.0000
  H   H281      1.0  0.34468  0.16788  0.70688  1.0000
  H   H282      1.0  0.38356  0.21027  0.63544  1.0000
  H   H283      1.0  0.38097  0.14272  0.66163  1.0000
  H   H284      1.0  0.12537  0.33896  0.65237  1.0000
  S   S57       1.0  0.03071  0.47725  0.57870  1.0000
  H   H285      1.0  0.38525  0.45523  0.63478  1.0000
  H   H286      1.0  0.24337  0.21793  0.69501  1.0000
  H   H287      1.0  0.25909  0.26921  0.67339  1.0000
  Fe  Fe29      1.0  0.10998  0.47558  0.58974  1.0000
  H   H288      1.0  0.24850  0.13659  0.65912  1.0000
  H   H289      1.0  0.08506  0.16505  0.54729  1.0000
  H   H290      1.0  0.10136  0.26843  0.52933  1.0000
  H   H291      1.0  0.37366  0.40897  0.67114  1.0000
  C   C184      1.0  0.42607  0.11072  0.63615  1.0000
  H   H292      1.0  0.36461  0.07743  0.61717  1.0000
  H   H293      1.0  0.42882  0.10459  0.65589  1.0000
  H   H294      1.0  0.45346  0.16970  0.66044  1.0000
  H   H295      1.0  0.23830  0.23560  0.65303  1.0000
  H   H296      1.0  0.43818  0.44781  0.72518  1.0000
  H   H297      1.0  0.02943  0.27436  0.59197  1.0000
  C   C185      1.0  0.17234  0.15772  0.52064  1.0000
  H   H298      1.0  0.27258  0.16104  0.63359  1.0000
  H   H299      1.0  0.18174  0.24519  0.51956  1.0000
  H   H300      1.0  0.40650  0.43175  0.50918  1.0000
  H   H301      1.0  0.43661  0.44301  0.67263  1.0000
  C   C186      1.0  0.42162  0.08199  0.61915  1.0000
  C   C187      1.0  0.17446  0.22121  0.52658  1.0000
  H   H302      1.0  0.06571  0.40256  0.64157  1.0000
  C   C188      1.0  0.26088  0.19422  0.49175  1.0000
  H   H303      1.0  0.10157  0.18491  0.51932  1.0000
  H   H304      1.0  0.27812  0.21365  0.50314  1.0000
  C   C189      1.0  0.40186  0.13869  0.65990  1.0000
  C   C190      1.0  0.15977  0.19712  0.50430  1.0000
  H   H305      1.0  0.41664  0.40238  0.67943  1.0000
  H   H306      1.0  0.34968  0.10068  0.63231  1.0000
  H   H307      1.0  0.42879  0.16183  0.61381  1.0000
  H   H308      1.0  0.28060  0.25938  0.64986  1.0000
  H   H309      1.0  0.33275  0.38720  0.67696  1.0000
  H   H310      1.0  0.29913  0.22245  0.63789  1.0000
  C   C191      1.0  0.30417  0.21828  0.65763  1.0000
  H   H311      1.0  0.34593  0.28661  0.72629  1.0000
  S   S58       1.0  0.25382  0.43954  0.73558  1.0000
  C   C192      1.0  0.41827  0.43569  0.71153  1.0000
  H   H312      1.0  0.43147  0.18020  0.68316  1.0000
  C   C193      1.0  0.43125  0.17108  0.66336  1.0000
  H   H313      1.0  0.31326  0.20093  0.65541  1.0000
  C   C194      1.0  0.05169  0.18945  0.49278  1.0000
  H   H314      1.0  0.23084  0.14055  0.63106  1.0000
  N   N15       1.0  0.07559  0.35359  0.61293  1.0000
  C   C195      1.0  0.08436  0.38224  0.59722  1.0000
  C   C196      1.0  0.05215  0.35258  0.63286  1.0000
  C   C197      1.0  0.06062  0.32486  0.59516  1.0000
  C   C198      1.0  0.10539  0.35666  0.62459  1.0000
  C   C199      1.0  0.10725  0.38664  0.57481  1.0000
  C   C200      1.0  0.06319  0.38142  0.65130  1.0000
  H   H315      1.0  0.39130  0.36839  0.70753  1.0000
  C   C201      1.0  0.10160  0.33308  0.64507  1.0000
  H   H316      1.0  0.06281  0.38185  0.58932  1.0000
  H   H317      1.0  0.09601  0.40433  0.60902  1.0000
  H   H318      1.0  0.04432  0.33175  0.64494  1.0000
  H   H319      1.0  0.03043  0.34982  0.62353  1.0000
  H   H320      1.0  0.04806  0.32908  0.57928  1.0000
  H   H321      1.0  0.07889  0.31989  0.58583  1.0000
  H   H322      1.0  0.12109  0.35443  0.60973  1.0000
  H   H323      1.0  0.11928  0.38055  0.63336  1.0000
  H   H324      1.0  0.11052  0.40730  0.56389  1.0000
  H   H325      1.0  0.13101  0.39209  0.58166  1.0000
  H   H326      1.0  0.09827  0.36612  0.56129  1.0000
  S   S59       1.0  0.00454  0.39035  0.60756  1.0000
  H   H327      1.0  0.04488  0.37643  0.66620  1.0000
  H   H328      1.0  0.08528  0.38650  0.66115  1.0000
  H   H329      1.0  0.33041  0.25602  0.68752  1.0000
  H   H330      1.0  0.34590  0.01409  0.61530  1.0000
  C   C202      1.0  0.36743  0.46715  0.66925  1.0000
  H   H331      1.0  0.08791  0.33462  0.66177  1.0000
  C   C203      1.0  0.37444  0.48767  0.69049  1.0000
  H   H332      1.0  0.09133  0.30870  0.63717  1.0000
  C   C204      1.0  0.08750  0.24643  0.51898  1.0000
  H   H333      1.0  0.32562  0.21383  0.70803  1.0000
  H   H334      1.0  0.44503  0.08546  0.61240  1.0000
  H   H335      1.0  0.46500  0.06895  0.52232  1.0000
  H   H336      1.0  0.13229  0.16429  0.55080  1.0000
  C   C205      1.0  0.26074  0.24922  0.66351  1.0000
  C   C206      1.0  0.16472  0.12316  0.52440  1.0000
  C   C207      1.0  0.38805  0.00943  0.56416  1.0000
  Fe  Fe30      1.0  0.40249  0.23943  0.73099  1.0000
  H   H337      1.0  0.01340  0.29492  0.61082  1.0000
  H   H338      1.0  0.10981  0.12833  0.53479  1.0000
  H   H339      1.0  0.35258  0.08177  0.67414  1.0000
  H   H340      1.0  0.02909  0.27435  0.53043  1.0000
  H   H341      1.0  0.41193  0.06029  0.63042  1.0000
  H   H342      1.0  0.42005  0.12106  0.58132  1.0000
  H   H343      1.0  0.19281  0.16775  0.50745  1.0000
  C   C208      1.0  0.09420  0.16215  0.52832  1.0000
  C   C209      1.0  0.36772  0.09250  0.63426  1.0000
  H   H344      1.0  0.19600  0.22135  0.53390  1.0000
  C   C210      1.0  0.24745  0.18204  0.65640  1.0000
  H   H345      1.0  0.41243  0.45429  0.70544  1.0000
  C   C211      1.0  0.03552  0.29376  0.60644  1.0000
  H   H346      1.0  0.99185  0.33714  0.52332  1.0000
  H   H347      1.0  0.28217  0.16745  0.68799  1.0000
  H   H348      1.0  0.28304  0.24587  0.69723  1.0000
  H   H349      1.0  0.44366  0.40190  0.73357  1.0000
  H   H350      1.0  0.40719  0.07769  0.60197  1.0000
  H   H351      1.0  0.35683  0.42462  0.71150  1.0000
  H   H352      1.0  0.18600  0.12284  0.53200  1.0000
  N   N16       1.0  0.40029  0.12025  0.63556  1.0000
  H   H353      1.0  0.29923  0.18812  0.73074  1.0000
  H   H354      1.0  0.40096  0.12518  0.67694  1.0000
  C   C212      1.0  0.46640  0.05183  0.50827  1.0000
  C   C213      1.0  0.30135  0.20464  0.71566  1.0000
  H   H355      1.0  0.38947  0.02948  0.52767  1.0000
  H   H356      1.0  0.15738  0.21735  0.54225  1.0000
  C   C214      1.0  0.40068  0.12657  0.58646  1.0000
  C   C215      1.0  0.27649  0.18621  0.69506  1.0000
  N   N17       1.0  0.27426  0.20466  0.67326  1.0000
  S   S60       1.0  0.00535  0.16584  0.52975  1.0000
  H   H357      1.0  0.45510  0.42757  0.69249  1.0000
  H   H358      1.0  0.35415  0.24854  0.66503  1.0000
  C   C216      1.0  0.35612  0.39121  0.68377  1.0000
  H   H359      1.0  0.44916  0.13086  0.63110  1.0000
  H   H360      1.0  0.04342  0.28709  0.62370  1.0000
  H   H361      1.0  0.25331  0.17394  0.70496  1.0000
  H   H362      1.0  0.37608  0.06366  0.66201  1.0000
  H   H363      1.0  0.38812  0.15132  0.61532  1.0000
  H   H364      1.0  0.35339  0.39939  0.49517  1.0000
  C   C217      1.0  0.40478  0.14133  0.61356  1.0000
  H   H365      1.0  0.20765  0.46140  0.60625  1.0000
  C   C218      1.0  0.25736  0.16377  0.49471  1.0000
  H   H366      1.0  0.18131  0.17026  0.53928  1.0000
  H   H367      1.0  0.01053  0.38409  0.55245  1.0000
  C   C219      1.0  0.35999  0.40320  0.71171  1.0000
  H   H368      1.0  0.33955  0.38548  0.72246  1.0000
  C   C220      1.0  0.39793  0.47668  0.49448  1.0000
  H   H369      1.0  0.06267  0.31116  0.53733  1.0000
  C   C221      1.0  0.39223  0.37968  0.72642  1.0000
  Fe  Fe31      1.0  0.06647  0.48143  0.54904  1.0000
  H   H370      1.0  0.45305  0.02820  0.51653  1.0000
  H   H371      1.0  0.99422  0.24723  0.49594  1.0000
  H   H372      1.0  0.00143  0.48151  0.52580  1.0000
  C   C222      1.0  0.33016  0.29586  0.73222  1.0000
  H   H373      1.0  0.40207  0.14415  0.57265  1.0000
  H   H374      1.0  0.44271  0.45343  0.49311  1.0000
  H   H375      1.0  0.15907  0.10930  0.50614  1.0000
  H   H376      1.0  0.02900  0.31093  0.52361  1.0000
  N   N18       1.0  0.39030  0.40998  0.72471  1.0000
  H   H377      1.0  0.40436  0.00066  0.55862  1.0000
  H   H378      1.0  0.28950  0.99255  0.53021  1.0000
  C   C223      1.0  0.04339  0.29850  0.52340  1.0000
  C   C224      1.0  0.99807  0.36079  0.56006  1.0000
  C   C225      1.0  0.99164  0.35728  0.58618  1.0000
  S   S61       1.0  0.34580  0.48286  0.71436  1.0000
  S   S62       1.0  0.19532  0.99825  0.54067  1.0000
  S   S63       1.0  0.38846  0.98839  0.61255  1.0000
  H   H379      1.0  0.37113  0.36189  0.73658  1.0000
  H   H380      1.0  0.02708  0.24016  0.49705  1.0000
  H   H381      1.0  0.42296  0.36010  0.73674  1.0000
  H   H382      1.0  0.23595  0.98849  0.50282  1.0000
  C   C226      1.0  0.42139  0.38224  0.74029  1.0000
  H   H383      1.0  0.07215  0.32443  0.49243  1.0000
  H   H384      1.0  0.11616  0.11741  0.49272  1.0000
  Fe  Fe32      1.0  0.04866  0.22921  0.93345  1.0000
  S   S64       1.0  0.07449  0.26356  0.96550  1.0000
  H   H385      1.0  0.41929  0.38464  0.76125  1.0000
  Fe  Fe33      1.0  0.09887  0.27061  0.89330  1.0000
  S   S65       1.0  0.12627  0.30723  0.92305  1.0000
  S   S66       1.0  0.11394  0.27649  0.85132  1.0000
  Fe  Fe34      1.0  0.11888  0.26637  0.94737  1.0000
  S   S67       1.0  0.16483  0.26984  0.96267  1.0000
  Fe  Fe35      1.0  0.07920  0.30012  0.93755  1.0000
  S   S68       1.0  0.06654  0.33902  0.94779  1.0000
  S   S69       1.0  0.09274  0.22971  0.91681  1.0000
  S   S70       1.0  0.05198  0.26568  0.90634  1.0000
  H   H386      1.0  0.38803  0.45896  0.77524  1.0000
  Fe  Fe36      1.0  0.37348  0.26464  0.77114  1.0000
  S   S71       1.0  0.33661  0.28004  0.78114  1.0000
  Fe  Fe37      1.0  0.40208  0.22198  0.78668  1.0000
  H   H387      1.0  0.15530  0.38084  0.80105  1.0000
  S   S72       1.0  0.39564  0.18448  0.81528  1.0000
  Fe  Fe38      1.0  0.44461  0.28992  0.77122  1.0000
  C   C227      1.0  0.44718  0.30666  0.86077  1.0000
  S   S73       1.0  0.40772  0.26881  0.80144  1.0000
  C   C228      1.0  0.14902  0.22102  0.87061  1.0000
  H   H388      1.0  0.11546  0.34687  0.83839  1.0000
  S   S74       1.0  0.23186  0.39112  0.79973  1.0000
  S   S75       1.0  0.99507  0.37488  0.86507  1.0000
  C   C229      1.0  0.23094  0.07929  0.98833  1.0000
  H   H389      1.0  0.42493  0.25576  0.85628  1.0000
  H   H390      1.0  0.19404  0.24246  0.91976  1.0000
  H   H391      1.0  0.46375  0.41096  0.81534  1.0000
  H   H392      1.0  0.45276  0.31402  0.84079  1.0000
  Fe  Fe39      1.0  0.44692  0.03456  0.88187  1.0000
  S   S76       1.0  0.45429  0.07379  0.90987  1.0000
  C   C230      1.0  0.21547  0.02683  0.96916  1.0000
  H   H393      1.0  0.26517  0.01986  0.89200  1.0000
  H   H394      1.0  0.06648  0.35048  0.80358  1.0000
  H   H395      1.0  0.10402  0.40652  0.80561  1.0000
  C   C231      1.0  0.17098  0.24419  0.98276  1.0000
  C   C232      1.0  0.47643  0.17913  0.82980  1.0000
  C   C233      1.0  0.42329  0.17301  0.82673  1.0000
  C   C234      1.0  0.45452  0.18646  0.81816  1.0000
  H   H396      1.0  0.98950  0.31334  0.96094  1.0000
  C   C235      1.0  0.46720  0.15753  0.84958  1.0000
  C   C236      1.0  0.43570  0.14316  0.85744  1.0000
  C   C237      1.0  0.41396  0.15100  0.84618  1.0000
  H   H397      1.0  0.46190  0.20284  0.80282  1.0000
  H   H398      1.0  0.15139  0.41571  0.79401  1.0000
  H   H399      1.0  0.42844  0.12690  0.87285  1.0000
  H   H400      1.0  0.38988  0.14039  0.85291  1.0000
  H   H401      1.0  0.36906  0.40198  0.76245  1.0000
  H   H402      1.0  0.05287  0.32145  0.89409  1.0000
  C   C238      1.0  0.30250  0.30872  0.76569  1.0000
  H   H403      1.0  0.15259  0.39480  0.88741  1.0000
  H   H404      1.0  0.29659  0.30912  0.78563  1.0000
  H   H405      1.0  0.99694  0.22306  0.98143  1.0000
  H   H406      1.0  0.11788  0.35695  0.88253  1.0000
  C   C239      1.0  0.47120  0.24116  0.86877  1.0000
  H   H407      1.0  0.05341  0.37730  0.83453  1.0000
  H   H408      1.0  0.45339  0.36145  0.79150  1.0000
  H   H409      1.0  0.24924  0.00981  0.97307  1.0000
  H   H410      1.0  0.23059  0.24304  0.92081  1.0000
  H   H411      1.0  0.13310  0.23141  0.87484  1.0000
  C   C240      1.0  0.14688  0.30870  0.83743  1.0000
  C   C241      1.0  0.16735  0.33546  0.85176  1.0000
  C   C242      1.0  0.19359  0.36004  0.84000  1.0000
  C   C243      1.0  0.19931  0.35866  0.81371  1.0000
  C   C244      1.0  0.17867  0.33206  0.79936  1.0000
  C   C245      1.0  0.15273  0.30724  0.81119  1.0000
  H   H412      1.0  0.16315  0.33718  0.87191  1.0000
  H   H413      1.0  0.20938  0.38051  0.85129  1.0000
  H   H414      1.0  0.18267  0.33063  0.77912  1.0000
  H   H415      1.0  0.13706  0.28675  0.79986  1.0000
  C   C246      1.0  0.04572  0.34808  0.92493  1.0000
  C   C247      1.0  0.03251  0.36783  0.93187  1.0000
  C   C248      1.0  0.01604  0.37552  0.91389  1.0000
  C   C249      1.0  0.01308  0.36378  0.88876  1.0000
  C   C250      1.0  0.02585  0.34368  0.88196  1.0000
  C   C251      1.0  0.04223  0.33599  0.89991  1.0000
  H   H416      1.0  0.03517  0.37738  0.95117  1.0000
  H   H417      1.0  0.37060  0.14364  0.91880  1.0000
  H   H418      1.0  0.17075  0.26615  0.90445  1.0000
  H   H419      1.0  0.36534  0.05806  0.95456  1.0000
  C   C252      1.0  0.47638  0.39049  0.98668  1.0000
  C   C253      1.0  0.36478  0.06432  0.88750  1.0000
  H   H420      1.0  0.40110  0.47054  0.74346  1.0000
  H   H421      1.0  0.24045  0.03425  0.90689  1.0000
  H   H422      1.0  0.32915  0.12737  0.91454  1.0000
  N   N19       1.0  0.20304  0.27205  0.87276  1.0000
  C   C254      1.0  0.22242  0.29830  0.85493  1.0000
  C   C255      1.0  0.18687  0.28440  0.89139  1.0000
  C   C256      1.0  0.17891  0.24488  0.85688  1.0000
  C   C257      1.0  0.22501  0.26277  0.88578  1.0000
  C   C258      1.0  0.23768  0.28955  0.83196  1.0000
  C   C259      1.0  0.20880  0.31294  0.90834  1.0000
  H   H423      1.0  0.00193  0.46400  0.94789  1.0000
  S   S77       1.0  0.00091  0.18506  0.93779  1.0000
  H   H424      1.0  0.20778  0.30821  0.84692  1.0000
  H   H425      1.0  0.24210  0.31825  0.86519  1.0000
  H   H426      1.0  0.13583  0.20024  0.85771  1.0000
  C   C260      1.0  0.24412  0.02914  0.97710  1.0000
  Fe  Fe40      1.0  0.24585  0.39678  0.75741  1.0000
  H   H427      1.0  0.18972  0.23126  0.84726  1.0000
  H   H428      1.0  0.23477  0.25174  0.87175  1.0000
  H   H429      1.0  0.24640  0.28377  0.89317  1.0000
  H   H430      1.0  0.21992  0.27161  0.81894  1.0000
  H   H431      1.0  0.25109  0.31089  0.82055  1.0000
  C   C261      1.0  0.26640  0.05678  0.98984  1.0000
  H   H432      1.0  0.27394  0.32967  0.75378  1.0000
  H   H433      1.0  0.22213  0.33441  0.89720  1.0000
  H   H434      1.0  0.21960  0.26232  0.97142  1.0000
  S   S78       1.0  0.44069  0.24303  0.75759  1.0000
  S   S79       1.0  0.48407  0.02456  0.89847  1.0000
  N   N20       1.0  0.32109  0.06214  0.91908  1.0000
  S   S80       1.0  0.18775  0.99366  0.95111  1.0000
  S   S81       1.0  0.29219  0.40055  0.74390  1.0000
  S   S82       1.0  0.36349  0.21541  0.75929  1.0000
  H   H435      1.0  0.31636  0.02784  0.88928  1.0000
  C   C262      1.0  0.32951  0.05375  0.89306  1.0000
  H   H436      1.0  0.48164  0.99813  0.95156  1.0000
  H   H437      1.0  0.41607  0.37756  0.97123  1.0000
  C   C263      1.0  0.20900  0.05201  0.97495  1.0000
  H   H438      1.0  0.34074  0.01739  0.95969  1.0000
  H   H439      1.0  0.18717  0.41903  0.80591  1.0000
  H   H440      1.0  0.11830  0.43625  0.82981  1.0000
  H   H441      1.0  0.00385  0.28481  0.96361  1.0000
  H   H442      1.0  0.30704  0.04183  0.95621  1.0000
  H   H443      1.0  0.25462  0.01359  0.92546  1.0000
  H   H444      1.0  0.00629  0.39110  0.91929  1.0000
  H   H445      1.0  0.42524  0.33035  0.98111  1.0000
  H   H446      1.0  0.18690  0.05045  0.96896  1.0000
  H   H447      1.0  0.99521  0.26998  0.92262  1.0000
  C   C264      1.0  0.38422  0.45074  0.75495  1.0000
  H   H448      1.0  0.05981  0.41208  0.81861  1.0000
  H   H449      1.0  0.20071  0.21455  0.89997  1.0000
  H   H450      1.0  0.41056  0.42660  0.76233  1.0000
  C   C265      1.0  0.47490  0.37423  0.80232  1.0000
  H   H451      1.0  0.35720  0.02866  0.92897  1.0000
  C   C266      1.0  0.47396  0.24041  0.89795  1.0000
  H   H452      1.0  0.42355  0.30462  0.86489  1.0000
  C   C267      1.0  0.99918  0.47289  0.96647  1.0000
  H   H453      1.0  0.36696  0.04522  0.87659  1.0000
  H   H454      1.0  0.25474  0.28163  0.83793  1.0000
  C   C268      1.0  0.47541  0.26903  0.82962  1.0000
  C   C269      1.0  0.10341  0.41039  0.82652  1.0000
  H   H455      1.0  0.38019  0.06993  0.90426  1.0000
  C   C270      1.0  0.26124  0.03047  0.90989  1.0000
  C   C271      1.0  0.32248  0.29608  0.75803  1.0000
  C   C272      1.0  0.31733  0.03786  0.93814  1.0000
  C   C273      1.0  0.44628  0.27472  0.86589  1.0000
  H   H456      1.0  0.43126  0.41988  0.97113  1.0000
  S   S83       1.0  0.41070  0.28869  0.74166  1.0000
  C   C274      1.0  0.34921  0.12208  0.91236  1.0000
  S   S84       1.0  0.48031  0.06613  0.85206  1.0000
  C   C275      1.0  0.12648  0.38235  0.88710  1.0000
  S   S85       1.0  0.39632  0.99992  0.87117  1.0000
  H   H457      1.0  0.17110  0.29110  0.88106  1.0000
  H   H458      1.0  0.16374  0.43165  0.84189  1.0000
  C   C276      1.0  0.20113  0.24620  0.98363  1.0000
  C   C277      1.0  0.34724  0.03600  0.94544  1.0000
  H   H459      1.0  0.08786  0.38818  0.87430  1.0000
  C   C278      1.0  0.15135  0.40647  0.83526  1.0000
  H   H460      1.0  0.44143  0.27136  0.88659  1.0000
  H   H461      1.0  0.22499  0.30785  0.91969  1.0000
  H   H462      1.0  0.46409  0.32581  0.87351  1.0000
  C   C279      1.0  0.09983  0.35747  0.83454  1.0000
  H   H463      1.0  0.07913  0.32117  0.80476  1.0000
  H   H464      1.0  0.10503  0.35851  0.79225  1.0000
  H   H465      1.0  0.11857  0.38405  0.90687  1.0000
  N   N21       1.0  0.11653  0.39246  0.84076  1.0000
  H   H466      1.0  0.16208  0.39449  0.84599  1.0000
  H   H467      1.0  0.02330  0.33420  0.86266  1.0000
  H   H468      1.0  0.06831  0.41463  0.85174  1.0000
  H   H469      1.0  0.37455  0.08465  0.87473  1.0000
  H   H470      1.0  0.15387  0.21243  0.88833  1.0000
  H   H471      1.0  0.17002  0.25379  0.84127  1.0000
  C   C280      1.0  0.11304  0.39768  0.86894  1.0000
  H   H472      1.0  0.19423  0.31848  0.92220  1.0000
  H   H473      1.0  0.12413  0.42333  0.87405  1.0000
  H   H474      1.0  0.29068  0.07898  0.90282  1.0000
  C   C281      1.0  0.06930  0.40289  0.83339  1.0000
  H   H475      1.0  0.07911  0.34504  0.84729  1.0000
  C   C282      1.0  0.28974  0.32048  0.74767  1.0000
  C   C283      1.0  0.21133  0.23924  0.90752  1.0000
  H   H476      1.0  0.28379  0.07054  0.93568  1.0000
  C   C284      1.0  0.38863  0.42102  0.75176  1.0000
  H   H477      1.0  0.33753  0.09905  0.94842  1.0000
  H   H478      1.0  0.35253  0.11777  0.89194  1.0000
  C   C285      1.0  0.28977  0.06223  0.91728  1.0000
  C   C286      1.0  0.34460  0.09441  0.92899  1.0000
  H   H479      1.0  0.32168  0.06424  0.87797  1.0000
  C   C287      1.0  0.08719  0.34688  0.80716  1.0000
  H   H480      1.0  0.30054  0.01371  0.93108  1.0000
  H   H481      1.0  0.36824  0.09646  0.93170  1.0000
  C   C288      1.0  0.16111  0.40519  0.80733  1.0000
  H   H482      1.0  0.44768  0.22154  0.86334  1.0000
  N   N22       1.0  0.47529  0.27168  0.85832  1.0000
  H   H483      1.0  0.47285  0.28831  0.82111  1.0000
  H   H484      1.0  0.45458  0.24707  0.82278  1.0000
  H   H485      1.0  0.46073  0.37729  0.97057  1.0000
  C   C289      1.0  0.48086  0.40234  0.81583  1.0000
  H   H486      1.0  0.39541  0.39582  0.98662  1.0000
  C   C290      1.0  0.41934  0.39851  0.98275  1.0000
  H   H487      1.0  0.47310  0.21766  0.90266  1.0000
  H   H488      1.0  0.45403  0.24126  0.90821  1.0000
  H   H489      1.0  0.35984  0.44559  0.75041  1.0000
  H   H490      1.0  0.48630  0.43868  0.97723  1.0000
  Fe  Fe41      1.0  0.03112  0.58163  0.10184  1.0000
  S   S86       1.0  0.06500  0.60756  0.07081  1.0000
  C   C291      1.0  0.19398  0.87797  0.16047  1.0000
  Fe  Fe42      1.0  0.06328  0.54048  0.11193  1.0000
  S   S87       1.0  0.09966  0.56518  0.08180  1.0000
  H   H491      1.0  0.22187  0.49788  0.17994  1.0000
  Fe  Fe43      1.0  0.10164  0.61025  0.09818  1.0000
  S   S88       1.0  0.14746  0.65625  0.10358  1.0000
  Fe  Fe44      1.0  0.05899  0.55999  0.05780  1.0000
  S   S89       1.0  0.05492  0.54380  0.01590  1.0000
  S   S90       1.0  0.06793  0.58589  0.12998  1.0000
  S   S91       1.0  0.02244  0.53373  0.08713  1.0000
  H   H492      1.0  0.37160  0.87895  0.09210  1.0000
  H   H493      1.0  0.08052  0.70663  0.03515  1.0000
  C   C292      1.0  0.13058  0.51117  0.17723  1.0000
  S   S92       1.0  0.46292  0.94666  0.14654  1.0000
  H   H494      1.0  0.09821  0.52183  0.03942  1.0000
  Fe  Fe45      1.0  0.21851  0.81059  0.19785  1.0000
  H   H495      1.0  0.45542  0.97161  0.04438  1.0000
  S   S93       1.0  0.17237  0.77059  0.18196  1.0000
  Fe  Fe46      1.0  0.25761  0.88270  0.20614  1.0000
  S   S94       1.0  0.26744  0.93080  0.19306  1.0000
  Fe  Fe47      1.0  0.29031  0.84236  0.20601  1.0000
  S   S95       1.0  0.33361  0.83905  0.19039  1.0000
  S   S96       1.0  0.25970  0.84816  0.17711  1.0000
  H   H496      1.0  0.41889  0.97353  0.02264  1.0000
  Fe  Fe48      1.0  0.46004  0.50944  0.11881  1.0000
  S   S97       1.0  0.43026  0.52002  0.09249  1.0000
  H   H497      1.0  0.14812  0.83891  0.08862  1.0000
  H   H498      1.0  0.40783  0.81226  0.17669  1.0000
  H   H499      1.0  0.08734  0.74847  0.09536  1.0000
  C   C293      1.0  0.06961  0.79938  0.99926  1.0000
  H   H500      1.0  0.21051  0.89385  0.14604  1.0000
  H   H501      1.0  0.47076  0.87730  0.15223  1.0000
  C   C294      1.0  0.42579  0.91669  0.15695  1.0000
  C   C295      1.0  0.40802  0.92462  0.17456  1.0000
  C   C296      1.0  0.37900  0.90136  0.18403  1.0000
  C   C297      1.0  0.36765  0.86977  0.17631  1.0000
  C   C298      1.0  0.38508  0.86199  0.15822  1.0000
  C   C299      1.0  0.41371  0.88536  0.14829  1.0000
  H   H502      1.0  0.41693  0.94884  0.18115  1.0000
  H   H503      1.0  0.36581  0.90766  0.19787  1.0000
  H   H504      1.0  0.37635  0.83769  0.15190  1.0000
  H   H505      1.0  0.42649  0.87912  0.13405  1.0000
  C   C300      1.0  0.04111  0.81907  0.02705  1.0000
  C   C301      1.0  0.06492  0.84990  0.02265  1.0000
  H   H506      1.0  0.11026  0.67710  0.03092  1.0000
  C   C302      1.0  0.03889  0.72331  0.05098  1.0000
  S   S98       1.0  0.00900  0.81339  0.04762  1.0000
  C   C303      1.0  0.09338  0.83022  0.99475  1.0000
  C   C304      1.0  0.11915  0.79679  0.16053  1.0000
  C   C305      1.0  0.11044  0.51601  0.16082  1.0000
  H   H507      1.0  0.11395  0.53959  0.15787  1.0000
  H   H508      1.0  0.14951  0.53124  0.18678  1.0000
  H   H509      1.0  0.11183  0.83165  0.10290  1.0000
  C   C306      1.0  0.28687  0.96251  0.21522  1.0000
  H   H510      1.0  0.12707  0.78084  0.15102  1.0000
  C   C307      1.0  0.15435  0.68704  0.12649  1.0000
  C   C308      1.0  0.13047  0.68639  0.14250  1.0000
  C   C309      1.0  0.13648  0.71202  0.15947  1.0000
  C   C310      1.0  0.16662  0.73828  0.16114  1.0000
  C   C311      1.0  0.19063  0.73878  0.14537  1.0000
  C   C312      1.0  0.18442  0.71341  0.12804  1.0000
  H   H511      1.0  0.10735  0.66614  0.14177  1.0000
  H   H512      1.0  0.11771  0.71133  0.17156  1.0000
  H   H513      1.0  0.21390  0.75881  0.14632  1.0000
  H   H514      1.0  0.20309  0.71419  0.11577  1.0000
  H   H515      1.0  0.46146  0.82869  0.12177  1.0000
  H   H516      1.0  0.48493  0.91470  0.20979  1.0000
  H   H517      1.0  0.46365  0.56566  0.16428  1.0000
  C   C313      1.0  0.09068  0.85549  0.00640  1.0000
  H   H518      1.0  0.44489  0.80559  0.14847  1.0000
  H   H519      1.0  0.10190  0.79959  0.14860  1.0000
  H   H520      1.0  0.05878  0.74755  0.05089  1.0000
  H   H521      1.0  0.03694  0.71121  0.03220  1.0000
  H   H522      1.0  0.10883  0.87931  0.00333  1.0000
  H   H523      1.0  0.19307  0.52235  0.16403  1.0000
  H   H524      1.0  0.10501  0.75050  0.06494  1.0000
  C   C314      1.0  0.13463  0.83196  0.10675  1.0000
  H   H525      1.0  0.36861  0.93277  0.05406  1.0000
  H   H526      1.0  0.06356  0.86965  0.03195  1.0000
  C   C315      1.0  0.48705  0.58552  0.16513  1.0000
  N   N23       1.0  0.47419  0.85366  0.18542  1.0000
  H   H527      1.0  0.03198  0.68261  0.12266  1.0000
  C   C316      1.0  0.06717  0.68026  0.09642  1.0000
  H   H528      1.0  0.16903  0.87845  0.11859  1.0000
  C   C317      1.0  0.05699  0.68763  0.12275  1.0000
  H   H529      1.0  0.10630  0.78467  0.17793  1.0000
  H   H530      1.0  0.21770  0.83113  0.10685  1.0000
  H   H531      1.0  0.05915  0.66744  0.04599  1.0000
  H   H532      1.0  0.19216  0.53299  0.10619  1.0000
  C   C318      1.0  0.39239  0.95229  0.05891  1.0000
  H   H533      1.0  0.01238  0.86129  0.01207  1.0000
  H   H534      1.0  0.17224  0.88751  0.19476  1.0000
  H   H535      1.0  0.39474  0.82718  0.20308  1.0000
  C   C319      1.0  0.48165  0.49674  0.00710  1.0000
  H   H536      1.0  0.47369  0.61298  0.19122  1.0000
  H   H537      1.0  0.25702  0.54372  0.11911  1.0000
  C   C320      1.0  0.26480  0.53988  0.17163  1.0000
  S   S99       1.0  0.99532  0.59771  0.11380  1.0000
  H   H538      1.0  0.16892  0.80724  0.12821  1.0000
  H   H539      1.0  0.05850  0.67173  0.13687  1.0000
  S   S100      1.0  0.44656  0.49211  0.02288  1.0000
  C   C321      1.0  0.24094  0.51799  0.11683  1.0000
  H   H540      1.0  0.15983  0.82460  0.18391  1.0000
  C   C322      1.0  0.04095  0.70390  0.07299  1.0000
  C   C323      1.0  0.26169  0.50233  0.10983  1.0000
  N   N24       1.0  0.16892  0.84805  0.14799  1.0000
  C   C324      1.0  0.15202  0.85672  0.12832  1.0000
  C   C325      1.0  0.00778  0.90173  0.00130  1.0000
  C   C326      1.0  0.41421  0.82251  0.19616  1.0000
  H   H541      1.0  0.40979  0.89344  0.01061  1.0000
  H   H542      1.0  0.39387  0.92023  0.01232  1.0000
  H   H543      1.0  0.98983  0.50581  0.03300  1.0000
  H   H544      1.0  0.38156  0.97215  0.02619  1.0000
  H   H545      1.0  0.13512  0.84190  0.17812  1.0000
  H   H546      1.0  0.44939  0.86015  0.21810  1.0000
  H   H547      1.0  0.20887  0.87267  0.17341  1.0000
  H   H548      1.0  0.41467  0.80488  0.20897  1.0000
  N   N25       1.0  0.41428  0.93920  0.06570  1.0000
  C   C327      1.0  0.20534  0.52749  0.14524  1.0000
  H   H549      1.0  0.22365  0.55260  0.14671  1.0000
  C   C328      1.0  0.18543  0.83042  0.13672  1.0000
  C   C329      1.0  0.04348  0.79382  0.01504  1.0000
  H   H550      1.0  0.12902  0.80753  0.11072  1.0000
  C   C330      1.0  0.45086  0.82876  0.14077  1.0000
  H   H551      1.0  0.13054  0.71259  0.04940  1.0000
  H   H552      1.0  0.06319  0.48855  0.07279  1.0000
  H   H553      1.0  0.12592  0.74420  0.11673  1.0000
  C   C331      1.0  0.10971  0.68892  0.04936  1.0000
  H   H554      1.0  0.17290  0.54319  0.13127  1.0000
  C   C332      1.0  0.41246  0.91554  0.02018  1.0000
  H   H555      1.0  0.08234  0.49116  0.01580  1.0000
  N   N26       1.0  0.21997  0.50610  0.13995  1.0000
  C   C333      1.0  0.14661  0.82890  0.16866  1.0000
  H   H556      1.0  0.38401  0.89157  0.05146  1.0000
  H   H557      1.0  0.14795  0.76075  0.08889  1.0000
  H   H558      1.0  0.10467  0.48859  0.04225  1.0000
  H   H559      1.0  0.37143  0.90094  0.11999  1.0000
  H   H560      1.0  0.01691  0.72540  0.05322  1.0000
  C   C334      1.0  0.40847  0.91074  0.04909  1.0000
  H   H561      1.0  0.42892  0.83041  0.13777  1.0000
  H   H562      1.0  0.44067  0.87190  0.18895  1.0000
  S   S101      1.0  0.28981  0.87849  0.23419  1.0000
  H   H563      1.0  0.03490  0.71354  0.09058  1.0000
  C   C335      1.0  0.44858  0.96313  0.06391  1.0000
  H   H564      1.0  0.19734  0.82455  0.15201  1.0000
  H   H565      1.0  0.42427  0.90094  0.05485  1.0000
  H   H566      1.0  0.04212  0.49180  0.04709  1.0000
  H   H567      1.0  0.13455  0.86282  0.13773  1.0000
  C   C336      1.0  0.18224  0.89818  0.17619  1.0000
  H   H568      1.0  0.35590  0.90671  0.09133  1.0000
  C   C337      1.0  0.23820  0.50722  0.16337  1.0000
  C   C338      1.0  0.37474  0.90233  0.09898  1.0000
  H   H569      1.0  0.04881  0.65626  0.09044  1.0000
  S   S102      1.0  0.24897  0.80232  0.22529  1.0000
  H   H570      1.0  0.08840  0.67745  0.09946  1.0000
  C   C339      1.0  0.09718  0.73634  0.08245  1.0000
  H   H571      1.0  0.02536  0.76999  0.01809  1.0000
  H   H572      1.0  0.46375  0.95211  0.06817  1.0000
  C   C340      1.0  0.08554  0.49032  0.14862  1.0000
  C   C341      1.0  0.07884  0.69123  0.05101  1.0000
  H   H573      1.0  0.22676  0.51527  0.09956  1.0000
  H   H574      1.0  0.02141  0.67958  0.07024  1.0000
  C   C342      1.0  0.21069  0.84791  0.11637  1.0000
  C   C343      1.0  0.18143  0.52609  0.12529  1.0000
  H   H575      1.0  0.38896  0.96509  0.07579  1.0000
  H   H576      1.0  0.11197  0.67461  0.06442  1.0000
  N   N27       1.0  0.07191  0.70335  0.07595  1.0000
  H   H577      1.0  0.20210  0.85767  0.10146  1.0000
  H   H578      1.0  0.42518  0.92058  0.09893  1.0000
  C   C344      1.0  0.12701  0.73968  0.09597  1.0000
  H   H579      1.0  0.45991  0.55824  0.04696  1.0000
  H   H580      1.0  0.27698  0.51459  0.09344  1.0000
  H   H581      1.0  0.20264  0.92150  0.18079  1.0000
  C   C345      1.0  0.02194  0.51071  0.00230  1.0000
  H   H582      1.0  0.45493  0.80268  0.18750  1.0000
  H   H583      1.0  0.03369  0.91697  0.00020  1.0000
  H   H584      1.0  0.13215  0.71973  0.09300  1.0000
  H   H585      1.0  0.16499  0.90258  0.16569  1.0000
  C   C346      1.0  0.48415  0.57828  0.04736  1.0000
  S   S103      1.0  0.21302  0.84622  0.22393  1.0000
  C   C347      1.0  0.44534  0.85362  0.19741  1.0000
  H   H586      1.0  0.23235  0.86701  0.12518  1.0000
  H   H587      1.0  0.38250  0.96081  0.21999  1.0000
  H   H588      1.0  0.43608  0.93416  0.01486  1.0000
  H   H589      1.0  0.47785  0.82408  0.21386  1.0000
  C   C348      1.0  0.40279  0.97576  0.03688  1.0000
  C   C349      1.0  0.40814  0.92875  0.09297  1.0000
  C   C350      1.0  0.47637  0.82471  0.19275  1.0000
  H   H590      1.0  0.27777  0.50433  0.12543  1.0000
  C   C351      1.0  0.47470  0.85711  0.15694  1.0000
  H   H591      1.0  0.07221  0.71217  0.12953  1.0000
  H   H592      1.0  0.99656  0.59710  0.05815  1.0000
  H   H593      1.0  0.00050  0.90592  0.02061  1.0000
  S   S104      1.0  0.05887  0.49485  0.12827  1.0000
  H   H594      1.0  0.25549  0.55598  0.17851  1.0000
  C   C352      1.0  0.08707  0.49588  0.03649  1.0000
  H   H595      1.0  0.41194  0.94875  0.10628  1.0000
  H   H596      1.0  0.28241  0.55087  0.15631  1.0000
  C   C353      1.0  0.37577  0.96760  0.23867  1.0000
  H   H597      1.0  0.27755  0.53700  0.18792  1.0000
  C   C354      1.0  0.00058  0.86717  0.99668  1.0000
  H   H598      1.0  0.48317  0.59736  0.05917  1.0000
  C   C355      1.0  0.99270  0.49655  0.01462  1.0000
  H   H599      1.0  0.35269  0.96720  0.23543  1.0000
  H   H600      1.0  0.46213  0.98721  0.10155  1.0000
  H   H601      1.0  0.24936  0.49174  0.16092  1.0000
  H   H602      1.0  0.16029  0.50266  0.12401  1.0000
  H   H603      1.0  0.30167  0.48832  0.16161  1.0000
  S   S105      1.0  0.48646  0.90530  0.08871  1.0000
  H   H604      1.0  0.43362  0.98370  0.23461  1.0000
  C   C356      1.0  0.28640  0.95722  0.24127  1.0000
  H   H605      1.0  0.99456  0.57481  0.99299  1.0000
  S   S106      1.0  0.01309  0.61493  0.36267  1.0000
  Fe  Fe49      1.0  0.10091  0.81444  0.39606  1.0000
  S   S107      1.0  0.13187  0.80695  0.42316  1.0000
  S   S108      1.0  0.11246  0.82102  0.35339  1.0000
  Fe  Fe50      1.0  0.05376  0.80981  0.43968  1.0000
  S   S109      1.0  0.08333  0.80350  0.46931  1.0000
  H   H606      1.0  0.16981  0.75919  0.36178  1.0000
  Fe  Fe51      1.0  0.12528  0.84180  0.44941  1.0000
  H   H607      1.0  0.14182  0.75316  0.38657  1.0000
  Fe  Fe52      1.0  0.08679  0.76992  0.43984  1.0000
  S   S110      1.0  0.07623  0.72042  0.44979  1.0000
  S   S111      1.0  0.09549  0.85041  0.42151  1.0000
  S   S112      1.0  0.05588  0.77504  0.41103  1.0000
  H   H608      1.0  0.14841  0.92809  0.38241  1.0000
  C   C357      1.0  0.12542  0.69420  0.32572  1.0000
  S   S113      1.0  0.23509  0.83376  0.29350  1.0000
  C   C358      1.0  0.98888  0.68969  0.45410  1.0000
  H   H609      1.0  0.02037  0.61071  0.41733  1.0000
  C   C359      1.0  0.14751  0.82602  0.33745  1.0000
  C   C360      1.0  0.17147  0.82316  0.34993  1.0000
  C   C361      1.0  0.19837  0.82627  0.33632  1.0000
  C   C362      1.0  0.20162  0.83203  0.31003  1.0000
  C   C363      1.0  0.17777  0.83515  0.29763  1.0000
  C   C364      1.0  0.15094  0.83216  0.31126  1.0000
  H   H610      1.0  0.16909  0.81812  0.36999  1.0000
  H   H611      1.0  0.21656  0.82366  0.34612  1.0000
  H   H612      1.0  0.17982  0.83953  0.27745  1.0000
  H   H613      1.0  0.13257  0.83436  0.30136  1.0000
  C   C365      1.0  0.05789  0.69093  0.42580  1.0000
  C   C366      1.0  0.04477  0.65898  0.43174  1.0000
  C   C367      1.0  0.03015  0.63527  0.41271  1.0000
  C   C368      1.0  0.02907  0.64348  0.38758  1.0000
  C   C369      1.0  0.04184  0.67535  0.38179  1.0000
  C   C370      1.0  0.05615  0.69896  0.40080  1.0000
  S   S114      1.0  0.98936  0.52674  0.38567  1.0000
  H   H614      1.0  0.04076  0.68177  0.36245  1.0000
  H   H615      1.0  0.06642  0.72341  0.39598  1.0000
  H   H616      1.0  0.14560  0.72026  0.37390  1.0000
  H   H617      1.0  0.44849  0.49167  0.46364  1.0000
  H   H618      1.0  0.12331  0.88727  0.37574  1.0000
  H   H619      1.0  0.09203  0.70282  0.29070  1.0000
  H   H620      1.0  0.12494  0.68339  0.30654  1.0000
  H   H621      1.0  0.22612  0.87214  0.38251  1.0000
  C   C371      1.0  0.09946  0.66794  0.34139  1.0000
  C   C372      1.0  0.00956  0.50489  0.45487  1.0000
  H   H622      1.0  0.26076  0.95605  0.35428  1.0000
  H   H623      1.0  0.04598  0.65258  0.45106  1.0000
  H   H624      1.0  0.27419  0.93346  0.24806  1.0000
  C   C373      1.0  0.41348  0.98208  0.47935  1.0000
  H   H625      1.0  0.41592  0.48995  0.44688  1.0000
  N   N28       1.0  0.20490  0.91902  0.38449  1.0000
  H   H626      1.0  0.03536  0.56359  0.48176  1.0000
  C   C374      1.0  0.14786  0.90640  0.37391  1.0000
  C   C375      1.0  0.30092  0.98277  0.25874  1.0000
  H   H627      1.0  0.24862  0.92823  0.40279  1.0000
  H   H628      1.0  0.13639  0.73736  0.26980  1.0000
  C   C376      1.0  0.17019  0.89733  0.38797  1.0000
  H   H629      1.0  0.01211  0.51162  0.43520  1.0000
  C   C377      1.0  0.24926  0.93015  0.35127  1.0000
  H   H630      1.0  0.19739  0.98098  0.41346  1.0000
  H   H631      1.0  0.07582  0.65900  0.33276  1.0000
  C   C378      1.0  0.12003  0.73719  0.34939  1.0000
  C   C379      1.0  0.17703  0.91595  0.48371  1.0000
  H   H632      1.0  0.22585  0.94320  0.47316  1.0000
  S   S115      1.0  0.00757  0.81105  0.44906  1.0000
  H   H633      1.0  0.21584  0.91432  0.42337  1.0000
  H   H634      1.0  0.20398  0.88902  0.35219  1.0000
  C   C380      1.0  0.09309  0.71623  0.30870  1.0000
  H   H635      1.0  0.26181  0.92009  0.36209  1.0000
  N   N29       1.0  0.12250  0.72388  0.32351  1.0000
  C   C381      1.0  0.15141  0.74800  0.31025  1.0000
  H   H636      1.0  0.20299  0.92361  0.34370  1.0000
  C   C382      1.0  0.14601  0.74257  0.36870  1.0000
  H   H637      1.0  0.23439  0.87520  0.41583  1.0000
  C   C383      1.0  0.22304  0.91135  0.40361  1.0000
  H   H638      1.0  0.17767  0.76017  0.27472  1.0000
  H   H639      1.0  0.10437  0.64758  0.34176  1.0000
  H   H640      1.0  0.99889  0.70901  0.39652  1.0000
  C   C384      1.0  0.36972  0.94059  0.25661  1.0000
  H   H641      1.0  0.10733  0.76147  0.28964  1.0000
  H   H642      1.0  0.05479  0.50565  0.45624  1.0000
  C   C385      1.0  0.21254  0.95299  0.38874  1.0000
  H   H643      1.0  0.14861  0.69948  0.33397  1.0000
  H   H644      1.0  0.19461  0.85994  0.40587  1.0000
  H   H645      1.0  0.16341  0.89478  0.40844  1.0000
  H   H646      1.0  0.39692  0.96772  0.46394  1.0000
  H   H647      1.0  0.47614  0.93824  0.46736  1.0000
  H   H648      1.0  0.16412  0.87297  0.38128  1.0000
  C   C386      1.0  0.21910  0.87765  0.40145  1.0000
  C   C387      1.0  0.21373  0.91444  0.35749  1.0000
  H   H649      1.0  0.03693  0.60168  0.48573  1.0000
  H   H650      1.0  0.23824  0.96863  0.38648  1.0000
  C   C388      1.0  0.08826  0.74467  0.30192  1.0000
  H   H651      1.0  0.12040  0.76030  0.34772  1.0000
  H   H652      1.0  0.09705  0.72191  0.35840  1.0000
  Fe  Fe53      1.0  0.24511  0.83949  0.25050  1.0000
  H   H653      1.0  0.09874  0.67534  0.36151  1.0000
  S   S116      1.0  0.17157  0.88341  0.46330  1.0000
  H   H654      1.0  0.07173  0.70037  0.31960  1.0000
  H   H655      1.0  0.08578  0.75739  0.31913  1.0000
  H   H656      1.0  0.15295  0.90906  0.35323  1.0000
  H   H657      1.0  0.17322  0.75214  0.32033  1.0000
  H   H658      1.0  0.06601  0.73598  0.29101  1.0000
  H   H659      1.0  0.18350  0.94242  0.42439  1.0000
  H   H660      1.0  0.25224  0.92551  0.33075  1.0000
  H   H661      1.0  0.15166  0.77115  0.31077  1.0000
  H   H662      1.0  0.00026  0.67791  0.46433  1.0000
  C   C389      1.0  0.03377  0.50153  0.46688  1.0000
  H   H663      1.0  0.20195  0.96095  0.37380  1.0000
  H   H664      1.0  0.00022  0.56657  0.48648  1.0000
  H   H665      1.0  0.35454  0.94026  0.27293  1.0000
  C   C390      1.0  0.20697  0.94256  0.48506  1.0000
  C   C391      1.0  0.15597  0.74018  0.28221  1.0000
  C   C392      1.0  0.20398  0.96189  0.41530  1.0000
  H   H666      1.0  0.15951  0.71904  0.28030  1.0000
  H   H667      1.0  0.99346  0.75329  0.47583  1.0000
  H   H668      1.0  0.22426  0.97017  0.42855  1.0000
  H   H669      1.0  0.00811  0.71254  0.44788  1.0000
  H   H670      1.0  0.39178  0.94168  0.26365  1.0000
  H   H671      1.0  0.29994  0.97846  0.27889  1.0000
  H   H672      1.0  0.44908  0.98760  0.45215  1.0000
  H   H673      1.0  0.35682  0.91771  0.24604  1.0000
  H   H674      1.0  0.98769  0.73080  0.41812  1.0000
  H   H675      1.0  0.38568  0.48836  0.48513  1.0000
  Fe  Fe54      1.0  0.43307  0.92791  0.55915  1.0000
  H   H676      1.0  0.45342  0.62070  0.70602  1.0000
  S   S117      1.0  0.44939  0.93146  0.51754  1.0000
  Fe  Fe55      1.0  0.38515  0.88520  0.59946  1.0000
  S   S118      1.0  0.40751  0.92201  0.63051  1.0000
  S   S119      1.0  0.34397  0.83722  0.60866  1.0000
  Fe  Fe56      1.0  0.40829  0.95539  0.60115  1.0000
  Fe  Fe57      1.0  0.45395  0.92939  0.61399  1.0000
  C   C393      1.0  0.04131  0.61615  0.68663  1.0000
  S   S120      1.0  0.38388  0.91824  0.57077  1.0000
  S   S121      1.0  0.43179  0.89039  0.58454  1.0000
  H   H677      1.0  0.36777  0.86416  0.66183  1.0000
  S   S122      1.0  0.15782  0.78331  0.72843  1.0000
  Fe  Fe58      1.0  0.18856  0.77180  0.70135  1.0000
  H   H678      1.0  0.12446  0.60111  0.52680  1.0000
  S   S123      1.0  0.22748  0.81469  0.68168  1.0000
  Fe  Fe59      1.0  0.11745  0.73762  0.71450  1.0000
  S   S124      1.0  0.06785  0.72868  0.70518  1.0000
  Fe  Fe60      1.0  0.15526  0.70211  0.71481  1.0000
  S   S125      1.0  0.14788  0.65170  0.70932  1.0000
  C   C394      1.0  0.47996  0.87925  0.65596  1.0000
  S   S126      1.0  0.14683  0.72895  0.68441  1.0000
  C   C395      1.0  0.04315  0.60777  0.57503  1.0000
  Fe  Fe61      1.0  0.07235  0.51113  0.60255  1.0000
  S   S127      1.0  0.07534  0.55827  0.61591  1.0000
  S   S128      1.0  0.10782  0.51652  0.57209  1.0000
  C   C396      1.0  0.07335  0.56794  0.52425  1.0000
  C   C397      1.0  0.09592  0.58371  0.64202  1.0000
  C   C398      1.0  0.10220  0.57255  0.66428  1.0000
  C   C399      1.0  0.11770  0.59359  0.68486  1.0000
  C   C400      1.0  0.12729  0.62598  0.68335  1.0000
  C   C401      1.0  0.12074  0.63706  0.66117  1.0000
  C   C402      1.0  0.10493  0.61598  0.64073  1.0000
  H   H679      1.0  0.09472  0.54767  0.66577  1.0000
  H   H680      1.0  0.12246  0.58477  0.70202  1.0000
  H   H681      1.0  0.12799  0.66189  0.65970  1.0000
  H   H682      1.0  0.09990  0.62484  0.62372  1.0000
  C   C403      1.0  0.45858  0.60971  0.68873  1.0000
  C   C404      1.0  0.00491  0.69818  0.71763  1.0000
  H   H683      1.0  0.25504  0.89164  0.55191  1.0000
  H   H684      1.0  0.99154  0.75162  0.53606  1.0000
  C   C405      1.0  0.42856  0.51748  0.67448  1.0000
  H   H685      1.0  0.25643  0.57135  0.64541  1.0000
  H   H686      1.0  0.41108  0.52829  0.70971  1.0000
  H   H687      1.0  0.45230  0.53632  0.67704  1.0000
  C   C406      1.0  0.31526  0.81510  0.71312  1.0000
  C   C407      1.0  0.03578  0.70752  0.72584  1.0000
  C   C408      1.0  0.48518  0.85792  0.67038  1.0000
  C   C409      1.0  0.28879  0.96996  0.52380  1.0000
  H   H688      1.0  0.30857  0.97618  0.51010  1.0000
  C   C410      1.0  0.31110  0.83124  0.62825  1.0000
  C   C411      1.0  0.28874  0.80037  0.63427  1.0000
  C   C412      1.0  0.26308  0.79474  0.65065  1.0000
  C   C413      1.0  0.25922  0.81998  0.66091  1.0000
  C   C414      1.0  0.28139  0.85080  0.65460  1.0000
  C   C415      1.0  0.30725  0.85645  0.63852  1.0000
  H   H689      1.0  0.29141  0.78068  0.62636  1.0000
  H   H690      1.0  0.24617  0.77091  0.65518  1.0000
  H   H691      1.0  0.27863  0.87051  0.66237  1.0000
  H   H692      1.0  0.32421  0.88031  0.63411  1.0000
  N   N30       1.0  0.44616  0.61704  0.66504  1.0000
  H   H693      1.0  0.01869  0.60065  0.56920  1.0000
  C   C416      1.0  0.18884  0.96742  0.51795  1.0000
  H   H694      1.0  0.14635  0.51335  0.68788  1.0000
  C   C417      1.0  0.41217  0.60856  0.67029  1.0000
  H   H695      1.0  0.39825  0.84621  0.64269  1.0000
  C   C418      1.0  0.00030  0.55001  0.70535  1.0000
  H   H696      1.0  0.20526  0.92581  0.58311  1.0000
  C   C419      1.0  0.48302  0.96286  0.50371  1.0000
  C   C420      1.0  0.15026  0.53008  0.67250  1.0000
  C   C421      1.0  0.05393  0.65036  0.67810  1.0000
  H   H697      1.0  0.05833  0.63339  0.57303  1.0000
  H   H698      1.0  0.39190  0.55758  0.66020  1.0000
  H   H699      1.0  0.06166  0.65836  0.72694  1.0000
  C   C422      1.0  0.39003  0.57348  0.67517  1.0000
  C   C423      1.0  0.45022  0.59839  0.64286  1.0000
  H   H700      1.0  0.36600  0.80749  0.64884  1.0000
  H   H701      1.0  0.08201  0.66661  0.53616  1.0000
  H   H702      1.0  0.47016  0.69188  0.64004  1.0000
  C   C424      1.0  0.43181  0.59519  0.61810  1.0000
  H   H703      1.0  0.27109  0.98390  0.57790  1.0000
  C   C425      1.0  0.40520  0.51274  0.69305  1.0000
  H   H704      1.0  0.19103  0.60014  0.68813  1.0000
  H   H705      1.0  0.40798  0.87228  0.72310  1.0000
  N   N31       1.0  0.37292  0.84228  0.69552  1.0000
  C   C426      1.0  0.29363  0.95299  0.54634  1.0000
  S   S129      1.0  0.19904  0.74433  0.73014  1.0000
  H   H706      1.0  0.36262  0.90780  0.68129  1.0000
  C   C427      1.0  0.05738  0.58846  0.56142  1.0000
  H   H707      1.0  0.41557  0.60541  0.61892  1.0000
  S   S130      1.0  0.06287  0.49027  0.50700  1.0000
  H   H708      1.0  0.06031  0.60950  0.68287  1.0000
  C   C428      1.0  0.00160  0.61414  0.71955  1.0000
  C   C429      1.0  0.33984  0.81535  0.69347  1.0000
  H   H709      1.0  0.45695  0.87256  0.64826  1.0000
  N   N32       1.0  0.19321  0.56258  0.63915  1.0000
  H   H710      1.0  0.33019  0.81419  0.67417  1.0000
  H   H711      1.0  0.22736  0.89308  0.57314  1.0000
  C   C430      1.0  0.25279  0.96053  0.57058  1.0000
  H   H712      1.0  0.06892  0.65454  0.50426  1.0000
  C   C431      1.0  0.24323  0.90613  0.55719  1.0000
  H   H713      1.0  0.29227  0.80679  0.70336  1.0000
  H   H714      1.0  0.44258  0.52146  0.49401  1.0000
  H   H715      1.0  0.00602  0.76955  0.56650  1.0000
  H   H716      1.0  0.34011  0.79249  0.69535  1.0000
  H   H717      1.0  0.31089  0.79763  0.72797  1.0000
  H   H718      1.0  0.10858  0.57608  0.55413  1.0000
  N   N33       1.0  0.03069  0.61041  0.71403  1.0000
  H   H719      1.0  0.40573  0.81391  0.64726  1.0000
  H   H720      1.0  0.07827  0.66546  0.68516  1.0000
  C   C432      1.0  0.02547  0.57808  0.72077  1.0000
  H   H721      1.0  0.36391  0.89599  0.71273  1.0000
  C   C433      1.0  0.42149  0.49697  0.65320  1.0000
  C   C434      1.0  0.39064  0.82459  0.65376  1.0000
  H   H722      1.0  0.39342  0.81054  0.69123  1.0000
  H   H723      1.0  0.19906  0.54099  0.67291  1.0000
  H   H724      1.0  0.40109  0.88886  0.68091  1.0000
  C   C435      1.0  0.45449  0.66603  0.63982  1.0000
  C   C436      1.0  0.02695  0.57528  0.52147  1.0000
  C   C437      1.0  0.37588  0.87061  0.68188  1.0000
  H   H725      1.0  0.14013  0.94004  0.52866  1.0000
  H   H726      1.0  0.20084  0.53588  0.60805  1.0000
  C   C438      1.0  0.16628  0.56101  0.62381  1.0000
  H   H727      1.0  0.32302  0.93199  0.57702  1.0000
  C   C439      1.0  0.21247  0.59434  0.65215  1.0000
  H   H728      1.0  0.36523  0.56921  0.67528  1.0000
  C   C440      1.0  0.17529  0.58613  0.60344  1.0000
  H   H729      1.0  0.05814  0.54357  0.53080  1.0000
  C   C441      1.0  0.19472  0.60840  0.66828  1.0000
  H   H730      1.0  0.00103  0.70352  0.69860  1.0000
  S   S131      1.0  0.45081  0.49971  0.63070  1.0000
  H   H731      1.0  0.14814  0.56290  0.63596  1.0000
  C   C442      1.0  0.15887  0.94092  0.51642  1.0000
  H   H732      1.0  0.33153  0.87161  0.69121  1.0000
  C   C443      1.0  0.22491  0.94876  0.58944  1.0000
  H   H733      1.0  0.04286  0.63626  0.53026  1.0000
  H   H734      1.0  0.22752  0.61240  0.63831  1.0000
  H   H735      1.0  0.19995  0.88081  0.53534  1.0000
  H   H736      1.0  0.43026  0.66275  0.64245  1.0000
  H   H737      1.0  0.22990  0.59345  0.66527  1.0000
  H   H738      1.0  0.18870  0.58228  0.58751  1.0000
  H   H739      1.0  0.15336  0.58425  0.59514  1.0000
  H   H740      1.0  0.18858  0.61037  0.61163  1.0000
  H   H741      1.0  0.46594  0.83479  0.67385  1.0000
  H   H742      1.0  0.25556  0.54889  0.61733  1.0000
  H   H743      1.0  0.42050  0.51494  0.52268  1.0000
  C   C444      1.0  0.18095  0.53663  0.65822  1.0000
  H   H744      1.0  0.17216  0.60406  0.65989  1.0000
  H   H745      1.0  0.20877  0.63449  0.66902  1.0000
  C   C445      1.0  0.38388  0.85171  0.72268  1.0000
  H   H746      1.0  0.98806  0.73738  0.60438  1.0000
  H   H747      1.0  0.02225  0.60093  0.67323  1.0000
  H   H748      1.0  0.23078  0.52910  0.64335  1.0000
  H   H749      1.0  0.42019  0.85058  0.68556  1.0000
  H   H750      1.0  0.44864  0.60671  0.60231  1.0000
  C   C446      1.0  0.28125  0.93656  0.59045  1.0000
  H   H751      1.0  0.47381  0.85631  0.52842  1.0000
  C   C447      1.0  0.30172  0.91956  0.58902  1.0000
  H   H752      1.0  0.36920  0.86010  0.73357  1.0000
  H   H753      1.0  0.04214  0.60350  0.59579  1.0000
  H   H754      1.0  0.10278  0.63327  0.53570  1.0000
  H   H755      1.0  0.21504  0.92153  0.53386  1.0000
  H   H756      1.0  0.29953  0.93472  0.53813  1.0000
  H   H757      1.0  0.17597  0.51377  0.64858  1.0000
  C   C448      1.0  0.42770  0.50296  0.50746  1.0000
  H   H758      1.0  0.15350  0.53742  0.61409  1.0000
  H   H759      1.0  0.46544  0.66533  0.67916  1.0000
  H   H760      1.0  0.04796  0.57670  0.71881  1.0000
  C   C449      1.0  0.21283  0.96824  0.50194  1.0000
  H   H761      1.0  0.15085  0.55143  0.68151  1.0000
  H   H762      1.0  0.40558  0.82225  0.73300  1.0000
  H   H763      1.0  0.11444  0.56047  0.52458  1.0000
  H   H764      1.0  0.44658  0.58396  0.69191  1.0000
  C   C450      1.0  0.39528  0.83217  0.68266  1.0000
  C   C451      1.0  0.24070  0.55135  0.63281  1.0000
  C   C452      1.0  0.10714  0.57749  0.53322  1.0000
  N   N34       1.0  0.26720  0.93893  0.56560  1.0000
  H   H765      1.0  0.23418  0.90241  0.51589  1.0000
  H   H766      1.0  0.28822  0.89465  0.58237  1.0000
  H   H767      1.0  0.22679  0.57679  0.60774  1.0000
  H   H768      1.0  0.40141  0.61509  0.65476  1.0000
  H   H769      1.0  0.07418  0.56589  0.50315  1.0000
  C   C453      1.0  0.21465  0.55678  0.62074  1.0000
  H   H770      1.0  0.98983  0.77507  0.60751  1.0000
  C   C454      1.0  0.22245  0.90305  0.53416  1.0000
  H   H771      1.0  0.26254  0.92391  0.60477  1.0000
  H   H772      1.0  0.04346  0.56365  0.56758  1.0000
  C   C455      1.0  0.08106  0.62211  0.52385  1.0000
  H   H773      1.0  0.21548  0.96593  0.59031  1.0000
  H   H774      1.0  0.31560  0.97092  0.55574  1.0000
  H   H775      1.0  0.05513  0.65087  0.65697  1.0000
  H   H776      1.0  0.08951  0.62100  0.50409  1.0000
  H   H777      1.0  0.41780  0.56989  0.61241  1.0000
  C   C456      1.0  0.06750  0.64567  0.52377  1.0000
  S   S132      1.0  0.45725  0.96728  0.58791  1.0000
  H   H778      1.0  0.12979  0.89515  0.49858  1.0000
  H   H779      1.0  0.32063  0.83800  0.72237  1.0000
  C   C457      1.0  0.15291  0.91543  0.49932  1.0000
  C   C458      1.0  0.35725  0.88699  0.69290  1.0000
  S   S133      1.0  0.48151  0.56871  0.58338  1.0000
  H   H780      1.0  0.03879  0.66085  0.68472  1.0000
  N   N35       1.0  0.05961  0.58934  0.53272  1.0000
  C   C459      1.0  0.03116  0.49317  0.49256  1.0000
  H   H781      1.0  0.08105  0.59743  0.57007  1.0000
  H   H782      1.0  0.47546  0.60850  0.63743  1.0000
  H   H783      1.0  0.00118  0.52828  0.71065  1.0000
  H   H784      1.0  0.01287  0.58609  0.52972  1.0000
  H   H785      1.0  0.29628  0.96044  0.59906  1.0000
  C   C460      1.0  0.02534  0.57716  0.49226  1.0000
  H   H786      1.0  0.41046  0.62242  0.68717  1.0000
  H   H787      1.0  0.00805  0.63892  0.72517  1.0000
  H   H788      1.0  0.26672  0.95529  0.51333  1.0000
  H   H789      1.0  0.47016  0.88966  0.53984  1.0000
  H   H790      1.0  0.23217  0.94736  0.60906  1.0000
  H   H791      1.0  0.07984  0.63359  0.72553  1.0000
  H   H792      1.0  0.98862  0.60028  0.73634  1.0000
  C   C461      1.0  0.05735  0.63400  0.73046  1.0000
  H   H793      1.0  0.24405  0.96578  0.55293  1.0000
  H   H794      1.0  0.44394  0.57405  0.64850  1.0000
  H   H795      1.0  0.00430  0.55201  0.68451  1.0000
  C   C462      1.0  0.46502  0.65200  0.66122  1.0000
  H   H796      1.0  0.44200  0.49367  0.51677  1.0000
  H   H797      1.0  0.39422  0.56681  0.69416  1.0000
  C   C463      1.0  0.48665  0.88240  0.53049  1.0000
  H   H798      1.0  0.31036  0.91935  0.60846  1.0000
  H   H799      1.0  0.12960  0.51846  0.65964  1.0000
  H   H800      1.0  0.45753  0.65728  0.62073  1.0000
  H   H801      1.0  0.01320  0.55000  0.52636  1.0000
  H   H802      1.0  0.98930  0.75590  0.64895  1.0000
  C   C464      1.0  0.38501  0.82580  0.73846  1.0000
  H   H803      1.0  0.36313  0.80309  0.73668  1.0000
  H   H804      1.0  0.01807  0.57314  0.74101  1.0000
  H   H805      1.0  0.41403  0.96604  0.49384  1.0000
  H   H806      1.0  0.46655  0.50366  0.97056  1.0000
  C   C465      1.0  0.36668  0.98409  0.89480  1.0000
  S   S134      1.0  0.17555  0.76652  0.79891  1.0000
  H   H807      1.0  0.29845  0.88828  0.81068  1.0000
  Fe  Fe62      1.0  0.16408  0.87923  0.95553  1.0000
  S   S135      1.0  0.15061  0.90411  0.92653  1.0000
  H   H808      1.0  0.01356  0.86681  0.97912  1.0000
  Fe  Fe63      1.0  0.23504  0.91951  0.94284  1.0000
  S   S136      1.0  0.22518  0.94608  0.91336  1.0000
  S   S137      1.0  0.28598  0.93243  0.95166  1.0000
  Fe  Fe64      1.0  0.19147  0.94867  0.94236  1.0000
  H   H809      1.0  0.35443  0.92783  0.84556  1.0000
  Fe  Fe65      1.0  0.18601  0.89882  0.90067  1.0000
  S   S138      1.0  0.17968  0.88698  0.85781  1.0000
  S   S139      1.0  0.20296  0.92408  0.97279  1.0000
  S   S140      1.0  0.19783  0.87191  0.92867  1.0000
  H   H810      1.0  0.31960  0.87712  0.83102  1.0000
  H   H811      1.0  0.05462  0.80018  0.84008  1.0000
  H   H812      1.0  0.99962  0.56029  0.95045  1.0000
  H   H813      1.0  0.07060  0.72787  0.80145  1.0000
  C   C466      1.0  0.34796  0.96092  0.93615  1.0000
  C   C467      1.0  0.31687  0.95336  0.92988  1.0000
  C   C468      1.0  0.31100  0.96209  0.90628  1.0000
  S   S141      1.0  0.12427  0.70918  0.74406  1.0000
  C   C469      1.0  0.08901  0.79144  0.75694  1.0000
  C   C470      1.0  0.01805  0.74503  0.81593  1.0000
  H   H814      1.0  0.28732  0.95668  0.90127  1.0000
  C   C471      1.0  0.17630  0.80002  0.81493  1.0000
  C   C472      1.0  0.17839  0.82564  0.80170  1.0000
  C   C473      1.0  0.17920  0.85193  0.81515  1.0000
  C   C474      1.0  0.17818  0.85307  0.84194  1.0000
  C   C475      1.0  0.17571  0.82729  0.85517  1.0000
  C   C476      1.0  0.17496  0.80101  0.84172  1.0000
  H   H815      1.0  0.17957  0.82530  0.78110  1.0000
  H   H816      1.0  0.18095  0.87168  0.80471  1.0000
  H   H817      1.0  0.17457  0.82767  0.87578  1.0000
  H   H818      1.0  0.17325  0.78127  0.85216  1.0000
  H   H819      1.0  0.01863  0.68042  0.78621  1.0000
  C   C477      1.0  0.01470  0.68511  0.76698  1.0000
  H   H820      1.0  0.11072  0.83217  0.84801  1.0000
  H   H821      1.0  0.24515  0.92472  0.82683  1.0000
  H   H822      1.0  0.32839  0.94398  0.83947  1.0000
  H   H823      1.0  0.07738  0.76589  0.83832  1.0000
  C   C478      1.0  0.09422  0.80839  0.78335  1.0000
  C   C479      1.0  0.08987  0.77509  0.82002  1.0000
  C   C480      1.0  0.09908  0.84021  0.83417  1.0000
  H   H824      1.0  0.26194  0.88992  0.90099  1.0000
  C   C481      1.0  0.05254  0.63019  0.75954  1.0000
  C   C482      1.0  0.99253  0.52580  0.90869  1.0000
  H   H825      1.0  0.11961  0.81810  0.78797  1.0000
  C   C483      1.0  0.33572  0.97713  0.88878  1.0000
  H   H826      1.0  0.09276  0.85679  0.84489  1.0000
  H   H827      1.0  0.35280  0.95441  0.95441  1.0000
  H   H828      1.0  0.24536  0.89061  0.81253  1.0000
  C   C484      1.0  0.02504  0.49864  0.97822  1.0000
  H   H829      1.0  0.04386  0.74890  0.78170  1.0000
  H   H830      1.0  0.09094  0.82940  0.77990  1.0000
  H   H831      1.0  0.23738  0.84443  0.85789  1.0000
  H   H832      1.0  0.11401  0.79306  0.82559  1.0000
  N   N36       1.0  0.07374  0.78977  0.80530  1.0000
  C   C485      1.0  0.09357  0.74825  0.80633  1.0000
  H   H833      1.0  0.25769  0.85046  0.89750  1.0000
  C   C486      1.0  0.37282  0.97643  0.91877  1.0000
  H   H834      1.0  0.10875  0.75644  0.78925  1.0000
  C   C487      1.0  0.26726  0.82440  0.84605  1.0000
  H   H835      1.0  0.03045  0.77726  0.78513  1.0000
  H   H836      1.0  0.02723  0.73204  0.82714  1.0000
  H   H837      1.0  0.33084  0.98334  0.87042  1.0000
  H   H838      1.0  0.10563  0.73962  0.81933  1.0000
  H   H839      1.0  0.24611  0.80139  0.84211  1.0000
  H   H840      1.0  0.31138  0.87314  0.87602  1.0000
  C   C488      1.0  0.04047  0.70032  0.75042  1.0000
  C   C489      1.0  0.25954  0.91228  0.82410  1.0000
  C   C490      1.0  0.04181  0.76559  0.79569  1.0000
  H   H841      1.0  0.24581  0.89519  0.86184  1.0000
  H   H842      1.0  0.28311  0.92821  0.86017  1.0000
  H   H843      1.0  0.28495  0.82662  0.83133  1.0000
  H   H844      1.0  0.06615  0.78680  0.74856  1.0000
  H   H845      1.0  0.28839  0.87987  0.91658  1.0000
  C   C491      1.0  0.06883  0.81238  0.82318  1.0000
  H   H846      1.0  0.34626  0.93444  0.81346  1.0000
  N   N37       1.0  0.28300  0.88381  0.85035  1.0000
  H   H847      1.0  0.28090  0.92800  0.81326  1.0000
  H   H848      1.0  0.99658  0.72697  0.80604  1.0000
  H   H849      1.0  0.01323  0.53223  0.92111  1.0000
  C   C492      1.0  0.33583  0.92653  0.83258  1.0000
  H   H850      1.0  0.01021  0.75880  0.82877  1.0000
  H   H851      1.0  0.11624  0.85390  0.81927  1.0000
  C   C493      1.0  0.26800  0.90524  0.85045  1.0000
  H   H852      1.0  0.05529  0.82249  0.81354  1.0000
  H   H853      1.0  0.31548  0.91126  0.88041  1.0000
  C   C494      1.0  0.30832  0.89264  0.83031  1.0000
  C   C495      1.0  0.27473  0.87589  0.89877  1.0000
  C   C496      1.0  0.25760  0.85068  0.84469  1.0000
  H   H854      1.0  0.06403  0.70720  0.75692  1.0000
  Fe  Fe66      1.0  0.16665  0.75418  0.75630  1.0000
  H   H855      1.0  0.24768  0.84855  0.82533  1.0000
  H   H856      1.0  0.27577  0.82312  0.86521  1.0000
  C   C497      1.0  0.29773  0.88647  0.87599  1.0000
  H   H857      1.0  0.07141  0.77964  0.99040  1.0000
  H   H858      1.0  0.09020  0.76908  0.75722  1.0000
  C   C498      1.0  0.48511  0.50219  0.98079  1.0000
  H   H859      1.0  0.02940  0.62781  0.76587  1.0000
  H   H860      1.0  0.39658  0.98161  0.92363  1.0000
  H   H861      1.0  0.04754  0.50942  0.96850  1.0000
  H   H862      1.0  0.99371  0.54727  0.90063  1.0000
  S   S142      1.0  0.12650  0.83561  0.97556  1.0000
  H   H863      1.0  0.38801  0.83329  0.75892  1.0000
  H   H864      1.0  0.07096  0.65151  0.76946  1.0000
  H   H865      1.0  0.99440  0.51123  0.89251  1.0000
  H   H866      1.0  0.99708  0.90967  0.98659  1.0000
  H   H867      1.0  0.05542  0.60998  0.76597  1.0000
  H   H868      1.0  0.48153  0.95341  0.97385  1.0000
  H   H869      1.0  0.01012  0.81775  0.97971  1.0000
  H   H870      1.0  0.10767  0.80693  0.74363  1.0000
  C   C499      1.0  0.92903  0.23808  0.15033  1.0000
  Fe  Fe67      1.0  0.85163  0.11502  0.03599  1.0000
  S   S143      1.0  0.86199  0.08732  0.06437  1.0000
  C   C500      1.0  0.78414  0.15208  0.23052  1.0000
  Fe  Fe68      1.0  0.77999  0.07528  0.04548  1.0000
  S   S144      1.0  0.78649  0.04590  0.07461  1.0000
  S   S145      1.0  0.73031  0.06304  0.03355  1.0000
  Fe  Fe69      1.0  0.82577  0.09196  0.08944  1.0000
  S   S146      1.0  0.83581  0.10416  0.13186  1.0000
  Fe  Fe70      1.0  0.82161  0.04421  0.04663  1.0000
  C   C501      1.0  0.89371  0.02027  0.99625  1.0000
  S   S147      1.0  0.81693  0.12158  0.06206  1.0000
  S   S148      1.0  0.81353  0.07155  0.01645  1.0000
  H   H871      1.0  0.96518  0.24851  0.10567  1.0000
  H   H872      1.0  0.88229  0.15819  0.10614  1.0000
  S   S149      1.0  0.84329  0.22665  0.18930  1.0000
  H   H873      1.0  0.96214  0.24159  0.06171  1.0000
  H   H874      1.0  0.90850  0.21574  0.05724  1.0000
  H   H875      1.0  0.96361  0.41909  0.24116  1.0000
  H   H876      1.0  0.95283  0.25669  0.14525  1.0000
  C   C502      1.0  0.83734  0.13807  0.14762  1.0000
  C   C503      1.0  0.84831  0.14540  0.17287  1.0000
  C   C504      1.0  0.85083  0.17271  0.18578  1.0000
  C   C505      1.0  0.84188  0.19272  0.17366  1.0000
  C   C506      1.0  0.83089  0.18535  0.14844  1.0000
  C   C507      1.0  0.82866  0.15822  0.13545  1.0000
  H   H877      1.0  0.85523  0.13005  0.18242  1.0000
  H   H878      1.0  0.85955  0.17818  0.20512  1.0000
  H   H879      1.0  0.82382  0.20061  0.13893  1.0000
  H   H880      1.0  0.82008  0.15284  0.11607  1.0000
  H   H881      1.0  0.77055  0.17837  0.19152  1.0000
  H   H882      1.0  0.97135  0.21628  0.11102  1.0000
  H   H883      1.0  0.92870  0.23568  0.17134  1.0000
  H   H884      1.0  0.87838  0.22556  0.06678  1.0000
  H   H885      1.0  0.59428  0.00572  0.00062  1.0000
  C   C508      1.0  0.69953  0.04763  0.05630  1.0000
  C   C509      1.0  0.70584  0.04924  0.08237  1.0000
  C   C510      1.0  0.68091  0.03774  0.10011  1.0000
  H   H886      1.0  0.66301  0.03251  0.02801  1.0000
  H   H887      1.0  0.72996  0.05999  0.08890  1.0000
  H   H888      1.0  0.68603  0.03958  0.12025  1.0000
  H   H889      1.0  0.55216  0.43030  0.23954  1.0000
  C   C511      1.0  0.95146  0.19467  0.99894  1.0000
  H   H890      1.0  0.89738  0.18898  0.14432  1.0000
  C   C512      1.0  0.74946  0.16163  0.20240  1.0000
  C   C513      1.0  0.92353  0.16577  0.99859  1.0000
  C   C514      1.0  0.88991  0.21111  0.07160  1.0000
  H   H891      1.0  0.94889  0.16297  0.10419  1.0000
  C   C515      1.0  0.72676  0.11250  0.22722  1.0000
  H   H892      1.0  0.86698  0.05979  0.99333  1.0000
  H   H893      1.0  0.94843  0.19962  0.06165  1.0000
  H   H894      1.0  0.97378  0.37517  0.22575  1.0000
  H   H895      1.0  0.91112  0.24573  0.14629  1.0000
  Fe  Fe71      1.0  0.85335  0.23963  0.23166  1.0000
  H   H896      1.0  0.49965  0.39814  0.03284  1.0000
  C   C516      1.0  0.76349  0.12013  0.19172  1.0000
  H   H897      1.0  0.80910  0.12377  0.22623  1.0000
  S   S150      1.0  0.82636  0.99983  0.03821  1.0000
  H   H898      1.0  0.72732  0.08960  0.22731  1.0000
  C   C517      1.0  0.73851  0.10474  0.17054  1.0000
  N   N38       1.0  0.75552  0.13651  0.21357  1.0000
  H   H899      1.0  0.92074  0.14883  0.13043  1.0000
  C   C518      1.0  0.96686  0.47075  0.00290  1.0000
  H   H900      1.0  0.78563  0.13683  0.18225  1.0000
  H   H901      1.0  0.76793  0.10098  0.19865  1.0000
  C   C519      1.0  0.90251  0.21962  0.09909  1.0000
  C   C520      1.0  0.51452  0.01000  0.02044  1.0000
  H   H902      1.0  0.52348  0.05817  0.01736  1.0000
  C   C521      1.0  0.90778  0.04302  0.01946  1.0000
  H   H903      1.0  0.52388  0.01353  0.03953  1.0000
  C   C522      1.0  0.92365  0.15204  0.10956  1.0000
  H   H904      1.0  0.74522  0.08981  0.15787  1.0000
  H   H905      1.0  0.71471  0.08931  0.17817  1.0000
  H   H906      1.0  0.73781  0.12264  0.15818  1.0000
  C   C523      1.0  0.74042  0.18131  0.22125  1.0000
  H   H907      1.0  0.97235  0.43279  0.04671  1.0000
  H   H908      1.0  0.91595  0.24577  0.10078  1.0000
  H   H909      1.0  0.89332  0.05453  0.02537  1.0000
  H   H910      1.0  0.90823  0.02937  0.03593  1.0000
  C   C524      1.0  0.51423  0.03528  0.00781  1.0000
  C   C525      1.0  0.64309  0.02179  0.06584  1.0000
  S   S151      1.0  0.89341  0.16002  0.02130  1.0000
  H   H911      1.0  0.93239  0.06113  0.01591  1.0000
  H   H912      1.0  0.94428  0.46021  0.01250  1.0000
  H   H913      1.0  0.71668  0.16692  0.22947  1.0000
  C   C526      1.0  0.64946  0.02401  0.09195  1.0000
  H   H914      1.0  0.93763  0.19840  0.14541  1.0000
  C   C527      1.0  0.92107  0.20590  0.13730  1.0000
  H   H915      1.0  0.72975  0.15123  0.18854  1.0000
  H   H916      1.0  0.77215  0.98981  0.00747  1.0000
  H   H917      1.0  0.70497  0.10780  0.21677  1.0000
  C   C528      1.0  0.90734  0.17064  0.09994  1.0000
  H   H918      1.0  0.90601  0.16742  0.07893  1.0000
  H   H919      1.0  0.87152  0.18618  0.06970  1.0000
  H   H920      1.0  0.96784  0.43475  0.08040  1.0000
  H   H921      1.0  0.88113  0.21274  0.11123  1.0000
  C   C529      1.0  0.95586  0.22315  0.10031  1.0000
  S   S152      1.0  0.61891  0.01004  0.11493  1.0000
  C   C530      1.0  0.66806  0.03383  0.04813  1.0000
  N   N39       1.0  0.92191  0.20485  0.10849  1.0000
  H   H922      1.0  0.80417  0.17086  0.22020  1.0000
  H   H923      1.0  0.95452  0.21248  0.01335  1.0000
  H   H924      1.0  0.95336  0.25294  0.23388  1.0000
  H   H925      1.0  0.49594  0.43233  0.02681  1.0000
  H   H926      1.0  0.91221  0.12801  0.10067  1.0000
  H   H927      1.0  0.61897  0.01131  0.05935  1.0000
  H   H928      1.0  0.90909  0.00921  0.99193  1.0000
  H   H929      1.0  0.73932  0.20041  0.21075  1.0000
  H   H930      1.0  0.57707  0.41117  0.23739  1.0000
  C   C531      1.0  0.96339  0.22225  0.07168  1.0000
  C   C532      1.0  0.97540  0.27389  0.23778  1.0000
  H   H931      1.0  0.87137  0.00040  0.00287  1.0000
  H   H932      1.0  0.97106  0.40597  0.19822  1.0000
  H   H933      1.0  0.48800  0.42383  0.07104  1.0000
  H   H934      1.0  0.60334  0.04595  0.00370  1.0000
  H   H935      1.0  0.75797  0.19298  0.23654  1.0000
  H   H936      1.0  0.98199  0.39172  0.03064  1.0000
  H   H937      1.0  0.98685  0.33827  0.20345  1.0000
  C   C533      1.0  0.98532  0.44348  0.06465  1.0000
  H   H938      1.0  0.98573  0.44765  0.20506  1.0000
  C   C534      1.0  0.79596  0.12996  0.24102  1.0000
  Fe  Fe72      1.0  0.59995  0.02272  0.37628  1.0000
  S   S153      1.0  0.62865  0.05588  0.40789  1.0000
  Fe  Fe73      1.0  0.55926  0.05602  0.36995  1.0000
  S   S154      1.0  0.58645  0.09115  0.40105  1.0000
  C   C535      1.0  0.49637  0.03668  0.42711  1.0000
  Fe  Fe74      1.0  0.63006  0.09323  0.38250  1.0000
  S   S155      1.0  0.67245  0.14107  0.37505  1.0000
  Fe  Fe75      1.0  0.58174  0.04967  0.42286  1.0000
  S   S156      1.0  0.56707  0.04519  0.46501  1.0000
  S   S157      1.0  0.60317  0.06046  0.35008  1.0000
  S   S158      1.0  0.55298  0.01426  0.39261  1.0000
  Fe  Fe76      1.0  0.82916  0.21626  0.28524  1.0000
  S   S159      1.0  0.91227  0.48126  0.38577  1.0000
  S   S160      1.0  0.79043  0.17021  0.30146  1.0000
  Fe  Fe77      1.0  0.90039  0.25840  0.27495  1.0000
  S   S161      1.0  0.95140  0.27510  0.28566  1.0000
  Fe  Fe78      1.0  0.85645  0.28682  0.27469  1.0000
  S   S162      1.0  0.85122  0.33048  0.28538  1.0000
  S   S163      1.0  0.86661  0.26048  0.30447  1.0000
  S   S164      1.0  0.86453  0.21135  0.25874  1.0000
  Fe  Fe79      1.0  0.51550  0.43876  0.35899  1.0000
  S   S165      1.0  0.53120  0.41434  0.38657  1.0000
  C   C536      1.0  0.54355  0.39085  0.31349  1.0000
  H   H939      1.0  0.88198  0.04414  0.46649  1.0000
  C   C537      1.0  0.50825  0.07815  0.33152  1.0000
  H   H940      1.0  0.63581  0.14517  0.29744  1.0000
  S   S166      1.0  0.95995  0.45581  0.33701  1.0000
  H   H941      1.0  0.53078  0.10130  0.27057  1.0000
  C   C538      1.0  0.60330  0.47475  0.32876  1.0000
  H   H942      1.0  0.71810  0.99928  0.43337  1.0000
  H   H943      1.0  0.72521  0.08416  0.38489  1.0000
  C   C539      1.0  0.88160  0.36488  0.30016  1.0000
  C   C540      1.0  0.91146  0.36780  0.30471  1.0000
  C   C541      1.0  0.93513  0.39574  0.31606  1.0000
  C   C542      1.0  0.92921  0.42096  0.32313  1.0000
  C   C543      1.0  0.89923  0.41786  0.31898  1.0000
  C   C544      1.0  0.87564  0.39003  0.30743  1.0000
  H   H944      1.0  0.91633  0.34859  0.29932  1.0000
  H   H945      1.0  0.95818  0.39783  0.31933  1.0000
  H   H946      1.0  0.89431  0.43705  0.32434  1.0000
  H   H947      1.0  0.85263  0.38800  0.30403  1.0000
  H   H948      1.0  0.88467  0.37219  0.35911  1.0000
  H   H949      1.0  0.67135  0.22598  0.36705  1.0000
  H   H950      1.0  0.79283  0.07233  0.44793  1.0000
  N   N40       1.0  0.73835  0.04614  0.41845  1.0000
  C   C545      1.0  0.75723  0.08046  0.42638  1.0000
  H   H951      1.0  0.78224  0.00875  0.47500  1.0000
  C   C546      1.0  0.90597  0.34883  0.43050  1.0000
  C   C547      1.0  0.52496  0.08340  0.30855  1.0000
  H   H952      1.0  0.51614  0.32988  0.29991  1.0000
  H   H953      1.0  0.54308  0.07621  0.30633  1.0000
  C   C548      1.0  0.70449  0.14865  0.35381  1.0000
  C   C549      1.0  0.70875  0.12437  0.34201  1.0000
  C   C550      1.0  0.73509  0.13147  0.32606  1.0000
  C   C551      1.0  0.75726  0.16286  0.32130  1.0000
  C   C552      1.0  0.75262  0.18713  0.33267  1.0000
  C   C553      1.0  0.72654  0.18004  0.34895  1.0000
  H   H954      1.0  0.69203  0.10013  0.34548  1.0000
  H   H955      1.0  0.73846  0.11247  0.31751  1.0000
  H   H956      1.0  0.76946  0.21139  0.32932  1.0000
  H   H957      1.0  0.72365  0.19906  0.35804  1.0000
  H   H958      1.0  0.57347  0.37231  0.27214  1.0000
  H   H959      1.0  0.59127  0.42702  0.28385  1.0000
  H   H960      1.0  0.86758  0.37005  0.38952  1.0000
  H   H961      1.0  0.73960  0.01239  0.39071  1.0000
  C   C554      1.0  0.83136  0.02325  0.46859  1.0000
  H   H962      1.0  0.56339  0.16831  0.37383  1.0000
  H   H963      1.0  0.55948  0.16228  0.30115  1.0000
  C   C555      1.0  0.70930  0.05848  0.38286  1.0000
  C   C556      1.0  0.88885  0.37165  0.37976  1.0000
  H   H964      1.0  0.57781  0.15636  0.39996  1.0000
  N   N41       1.0  0.54226  0.39091  0.28481  1.0000
  C   C557      1.0  0.56788  0.42274  0.27694  1.0000
  H   H965      1.0  0.81272  0.14233  0.25685  1.0000
  H   H966      1.0  0.54702  0.32319  0.28709  1.0000
  H   H967      1.0  0.51379  0.31512  0.26789  1.0000
  C   C558      1.0  0.93481  0.38056  0.42398  1.0000
  H   H968      1.0  0.77435  0.09191  0.46596  1.0000
  H   H969      1.0  0.92899  0.43620  0.46542  1.0000
  Fe  Fe80      1.0  0.49055  0.36930  0.37120  1.0000
  H   H970      1.0  0.98349  0.19920  0.47277  1.0000
  S   S167      1.0  0.81667  0.24278  0.25721  1.0000
  C   C559      1.0  0.90853  0.41358  0.45974  1.0000
  C   C560      1.0  0.63323  0.48338  0.31793  1.0000
  S   S168      1.0  0.50325  0.42935  0.45651  1.0000
  H   H971      1.0  0.50491  0.04979  0.46669  1.0000
  H   H972      1.0  0.50759  0.40759  0.28714  1.0000
  H   H973      1.0  0.96609  0.44230  0.43799  1.0000
  C   C561      1.0  0.86221  0.04662  0.47423  1.0000
  H   H974      1.0  0.73247  0.14540  0.26086  1.0000
  H   H975      1.0  0.59475  0.40830  0.31980  1.0000
  C   C562      1.0  0.80607  0.02678  0.47880  1.0000
  H   H976      1.0  0.79500  0.02868  0.38905  1.0000
  C   C563      1.0  0.50581  0.46358  0.47258  1.0000
  H   H977      1.0  0.76073  0.05225  0.38131  1.0000
  H   H978      1.0  0.68546  0.05539  0.37852  1.0000
  C   C564      1.0  0.97624  0.41738  0.25786  1.0000
  C   C565      1.0  0.73066  0.02427  0.44040  1.0000
  C   C566      1.0  0.54788  0.36550  0.27182  1.0000
  C   C567      1.0  0.86781  0.07344  0.48957  1.0000
  S   S169      1.0  0.54742  0.47881  0.33309  1.0000
  C   C568      1.0  0.91929  0.40158  0.38729  1.0000
  C   C569      1.0  0.57226  0.42874  0.24808  1.0000
  H   H979      1.0  0.78511  0.02424  0.42185  1.0000
  S   S170      1.0  0.82560  0.99027  0.44863  1.0000
  H   H980      1.0  0.54362  0.41243  0.32205  1.0000
  H   H981      1.0  0.59263  0.45502  0.34122  1.0000
  C   C570      1.0  0.75518  0.03689  0.39798  1.0000
  H   H982      1.0  0.95000  0.38869  0.44129  1.0000
  H   H983      1.0  0.71623  0.04839  0.36611  1.0000
  H   H984      1.0  0.91690  0.42204  0.38054  1.0000
  H   H985      1.0  0.57156  0.36591  0.31941  1.0000
  C   C571      1.0  0.78682  0.03852  0.40525  1.0000
  H   H986      1.0  0.52184  0.05063  0.42279  1.0000
  H   H987      1.0  0.90678  0.32938  0.41898  1.0000
  H   H988      1.0  0.56980  0.38897  0.34595  1.0000
  C   C572      1.0  0.71031  0.02829  0.46181  1.0000
  H   H989      1.0  0.91114  0.39391  0.46764  1.0000
  H   H990      1.0  0.75201  0.02636  0.44965  1.0000
  H   H991      1.0  0.69678  0.10953  0.25981  1.0000
  H   H992      1.0  0.90687  0.34350  0.45079  1.0000
  N   N42       1.0  0.61574  0.17362  0.34028  1.0000
  C   C573      1.0  0.65063  0.19216  0.33477  1.0000
  C   C574      1.0  0.60546  0.14024  0.33080  1.0000
  C   C575      1.0  0.61127  0.17381  0.36880  1.0000
  C   C576      1.0  0.59906  0.18911  0.32728  1.0000
  C   C577      1.0  0.66770  0.22601  0.34623  1.0000
  C   C578      1.0  0.61048  0.13614  0.30209  1.0000
  C   C579      1.0  0.57721  0.15621  0.37881  1.0000
  C   C580      1.0  0.56346  0.16865  0.32179  1.0000
  H   H993      1.0  0.66343  0.17967  0.34150  1.0000
  H   H994      1.0  0.65515  0.19440  0.31390  1.0000
  H   H995      1.0  0.58042  0.12437  0.33493  1.0000
  H   H996      1.0  0.61827  0.12994  0.34123  1.0000
  H   H997      1.0  0.62516  0.16390  0.37817  1.0000
  H   H998      1.0  0.62029  0.19823  0.37669  1.0000
  H   H999      1.0  0.60190  0.21033  0.33856  1.0000
  H   H1000     1.0  0.61024  0.19796  0.30846  1.0000
  H   H1001     1.0  0.69158  0.23843  0.33761  1.0000
  H   H1002     1.0  0.65529  0.23982  0.34227  1.0000
  H   H1003     1.0  0.76868  0.09490  0.40946  1.0000
  H   H1004     1.0  0.59878  0.11063  0.29682  1.0000
  H   H1005     1.0  0.60016  0.14745  0.29013  1.0000
  H   H1006     1.0  0.56480  0.13115  0.37244  1.0000
  H   H1007     1.0  0.55101  0.18275  0.32612  1.0000
  H   H1008     1.0  0.55131  0.14710  0.33283  1.0000
  H   H1009     1.0  0.95423  0.45740  0.41235  1.0000
  N   N43       1.0  0.92840  0.40646  0.41506  1.0000
  H   H1010     1.0  0.78049  0.16484  0.24708  1.0000
  C   C581      1.0  0.90349  0.41011  0.43061  1.0000
  H   H1011     1.0  0.71936  0.05318  0.46830  1.0000
  H   H1012     1.0  0.73170  0.10872  0.26839  1.0000
  C   C582      1.0  0.97975  0.29019  0.26118  1.0000
  C   C583      1.0  0.53508  0.01268  0.47952  1.0000
  H   H1013     1.0  0.71027  0.01460  0.47842  1.0000
  H   H1014     1.0  0.69193  0.01547  0.40321  1.0000
  H   H1015     1.0  0.97345  0.43220  0.27341  1.0000
  H   H1016     1.0  0.87966  0.39036  0.42736  1.0000
  H   H1017     1.0  0.90153  0.43111  0.42455  1.0000
  H   H1018     1.0  0.93795  0.40032  0.37527  1.0000
  C   C584      1.0  0.95829  0.43740  0.41781  1.0000
  H   H1019     1.0  0.80535  0.06321  0.40828  1.0000
  H   H1020     1.0  0.69413  0.04821  0.42137  1.0000
  H   H1021     1.0  0.96449  0.39281  0.26454  1.0000
  H   H1022     1.0  0.56382  0.44195  0.28581  1.0000
  H   H1023     1.0  0.74120  0.08945  0.43436  1.0000
  H   H1024     1.0  0.97016  0.26477  0.45466  1.0000
  C   C585      1.0  0.57172  0.38843  0.32483  1.0000
  S   S171      1.0  0.89164  0.28655  0.24607  1.0000
  H   H1025     1.0  0.88275  0.34740  0.42713  1.0000
  H   H1026     1.0  0.49759  0.07600  0.44887  1.0000
  C   C586      1.0  0.72236  0.12014  0.25548  1.0000
  H   H1027     1.0  0.89112  0.35004  0.38217  1.0000
  H   H1028     1.0  0.52218  0.37161  0.32155  1.0000
  H   H1029     1.0  0.68540  0.01852  0.45580  1.0000
  H   H1030     1.0  0.80317  0.11216  0.44268  1.0000
  C   C587      1.0  0.70740  0.04094  0.40742  1.0000
  H   H1031     1.0  0.88766  0.41372  0.46907  1.0000
  C   C588      1.0  0.51774  0.09738  0.28825  1.0000
  Fe  Fe81      1.0  0.49571  0.41784  0.41368  1.0000
  S   S172      1.0  0.51587  0.06025  0.35772  1.0000
  H   H1032     1.0  0.64521  0.46978  0.32185  1.0000
  C   C589      1.0  0.78299  0.08885  0.44683  1.0000
  H   H1033     1.0  0.98426  0.44089  0.38176  1.0000
  H   H1034     1.0  0.94886  0.37517  0.40938  1.0000
  H   H1035     1.0  0.59319  0.45204  0.24534  1.0000
  C   C590      1.0  0.51117  0.38866  0.27708  1.0000
  H   H1036     1.0  0.51089  0.39264  0.25644  1.0000
  H   H1037     1.0  0.77664  0.10823  0.24873  1.0000
  H   H1038     1.0  0.54174  0.36335  0.25126  1.0000
  C   C591      1.0  0.53005  0.33188  0.28247  1.0000
  S   S173      1.0  0.49796  0.32726  0.35868  1.0000
  H   H1039     1.0  0.50187  0.27402  0.33584  1.0000
  C   C592      1.0  0.49360  0.10610  0.29056  1.0000
  H   H1040     1.0  0.49186  0.01208  0.42910  1.0000
  C   C593      1.0  0.98726  0.44027  0.40255  1.0000
  C   C594      1.0  0.48912  0.05048  0.45181  1.0000
  H   H1041     1.0  0.98662  0.22608  0.44901  1.0000
  H   H1042     1.0  0.64638  0.07844  0.70229  1.0000
  H   H1043     1.0  0.82033  0.04901  0.55925  1.0000
  S   S174      1.0  0.78376  0.15693  0.68815  1.0000
  Fe  Fe82      1.0  0.93924  0.22090  0.54537  1.0000
  S   S175      1.0  0.96748  0.21134  0.57405  1.0000
  S   S176      1.0  0.95779  0.27075  0.53147  1.0000
  Fe  Fe83      1.0  0.89429  0.14971  0.53504  1.0000
  S   S177      1.0  0.92072  0.13658  0.56278  1.0000
  S   S178      1.0  0.84816  0.11157  0.51749  1.0000
  Fe  Fe84      1.0  0.91992  0.17485  0.58854  1.0000
  S   S179      1.0  0.90588  0.16455  0.63062  1.0000
  Fe  Fe85      1.0  0.96509  0.17448  0.54521  1.0000
  S   S180      1.0  0.89194  0.18685  0.56144  1.0000
  S   S181      1.0  0.93837  0.18520  0.51597  1.0000
  H   H1044     1.0  0.83120  0.23905  0.69668  1.0000
  H   H1045     1.0  0.80378  0.13616  0.59237  1.0000
  H   H1046     1.0  0.96954  0.32379  0.61576  1.0000
  H   H1047     1.0  0.86880  0.08139  0.58406  1.0000
  C   C595      1.0  0.78054  0.06469  0.64700  1.0000
  C   C596      1.0  0.97084  0.30360  0.55302  1.0000
  C   C597      1.0  0.96486  0.30002  0.57919  1.0000
  H   H1048     1.0  0.81979  0.13642  0.56134  1.0000
  H   H1049     1.0  0.71251  0.99847  0.69188  1.0000
  H   H1050     1.0  0.78588  0.02947  0.60058  1.0000
  C   C598      1.0  0.50193  0.99089  0.51730  1.0000
  C   C599      1.0  0.79663  0.04687  0.56245  1.0000
  H   H1051     1.0  0.76563  0.04979  0.59074  1.0000
  N   N44       1.0  0.87592  0.23867  0.73242  1.0000
  H   H1052     1.0  0.79843  0.06547  0.66047  1.0000
  C   C600      1.0  0.81865  0.16010  0.67312  1.0000
  C   C601      1.0  0.82744  0.17411  0.64920  1.0000
  C   C602      1.0  0.85424  0.17610  0.63611  1.0000
  C   C603      1.0  0.87271  0.16411  0.64681  1.0000
  C   C604      1.0  0.86424  0.15062  0.67095  1.0000
  C   C605      1.0  0.83733  0.14846  0.68397  1.0000
  H   H1053     1.0  0.81322  0.18321  0.64058  1.0000
  H   H1054     1.0  0.86045  0.18672  0.61766  1.0000
  H   H1055     1.0  0.87829  0.14123  0.67944  1.0000
  H   H1056     1.0  0.83077  0.13733  0.70220  1.0000
  H   H1057     1.0  0.88211  0.28578  0.72695  1.0000
  H   H1058     1.0  0.77935  0.02304  0.55528  1.0000
  H   H1059     1.0  0.61788  0.02048  0.70311  1.0000
  H   H1060     1.0  0.61016  0.06367  0.71926  1.0000
  H   H1061     1.0  0.76623  0.04037  0.63926  1.0000
  H   H1062     1.0  0.54211  0.03722  0.51591  1.0000
  H   H1063     1.0  0.79189  0.05658  0.50117  1.0000
  H   H1064     1.0  0.95190  0.27667  0.58668  1.0000
  C   C606      1.0  0.84253  0.07740  0.49923  1.0000
  C   C607      1.0  0.50388  0.46426  0.49936  1.0000
  H   H1065     1.0  0.77666  0.09248  0.61785  1.0000
  H   H1066     1.0  0.84410  0.04062  0.59234  1.0000
  Fe  Fe86      1.0  0.76599  0.14246  0.72887  1.0000
  C   C608      1.0  0.82405  0.23622  0.71698  1.0000
  C   C609      1.0  0.63326  0.03363  0.71951  1.0000
  H   H1067     1.0  0.60526  0.42605  0.73671  1.0000
  H   H1068     1.0  0.78485  0.10222  0.57090  1.0000
  H   H1069     1.0  0.85409  0.09596  0.62893  1.0000
  H   H1070     1.0  0.54775  0.99198  0.55627  1.0000
  H   H1071     1.0  0.92916  0.24851  0.68246  1.0000
  H   H1072     1.0  0.84092  0.10331  0.57170  1.0000
  C   C610      1.0  0.71951  0.01848  0.73018  1.0000
  H   H1073     1.0  0.87760  0.06579  0.61107  1.0000
  H   H1074     1.0  0.79408  0.06395  0.55035  1.0000
  C   C611      1.0  0.85792  0.06514  0.59986  1.0000
  C   C612      1.0  0.97488  0.32677  0.59563  1.0000
  C   C613      1.0  0.80782  0.12121  0.57770  1.0000
  H   H1075     1.0  0.56553  0.47383  0.49572  1.0000
  H   H1076     1.0  0.87646  0.21368  0.69727  1.0000
  H   H1077     1.0  0.82698  0.05529  0.63133  1.0000
  C   C614      1.0  0.70741  0.99358  0.71186  1.0000
  H   H1078     1.0  0.84865  0.12822  0.59868  1.0000
  H   H1079     1.0  0.50050  0.44383  0.50968  1.0000
  H   H1080     1.0  0.81220  0.11151  0.63539  1.0000
  H   H1081     1.0  0.95860  0.48718  0.50468  1.0000
  C   C615      1.0  0.88780  0.23802  0.70572  1.0000
  H   H1082     1.0  0.56285  0.46370  0.52902  1.0000
  C   C616      1.0  0.79592  0.08880  0.62584  1.0000
  C   C617      1.0  0.83771  0.07459  0.61758  1.0000
  H   H1083     1.0  0.93331  0.23887  0.71408  1.0000
  C   C618      1.0  0.78936  0.05101  0.59073  1.0000
  C   C619      1.0  0.82913  0.10831  0.58822  1.0000
  H   H1084     1.0  0.88116  0.25179  0.69285  1.0000
  N   N45       1.0  0.81293  0.08026  0.60501  1.0000
  H   H1085     1.0  0.76460  0.07110  0.65848  1.0000
  H   H1086     1.0  0.73400  0.04240  0.72430  1.0000
  C   C620      1.0  0.92378  0.25146  0.70276  1.0000
  H   H1087     1.0  0.93648  0.27702  0.70759  1.0000
  C   C621      1.0  0.57804  0.47035  0.51180  1.0000
  H   H1088     1.0  0.85632  0.17291  0.74117  1.0000
  C   C622      1.0  0.52781  0.01556  0.50527  1.0000
  C   C623      1.0  0.63424  0.06609  0.71983  1.0000
  H   H1089     1.0  0.82792  0.25911  0.72562  1.0000
  C   C624      1.0  0.81165  0.05383  0.49382  1.0000
  H   H1090     1.0  0.49640  0.99375  0.53697  1.0000
  H   H1091     1.0  0.79825  0.22045  0.71712  1.0000
  H   H1092     1.0  0.65732  0.03722  0.71431  1.0000
  H   H1093     1.0  0.89368  0.18874  0.72466  1.0000
  H   H1094     1.0  0.58183  0.44988  0.50623  1.0000
  H   H1095     1.0  0.57485  0.00448  0.73227  1.0000
  C   C625      1.0  0.84044  0.22110  0.73213  1.0000
  H   H1096     1.0  0.83205  0.19698  0.72378  1.0000
  H   H1097     1.0  0.49155  0.05773  0.50631  1.0000
  H   H1098     1.0  0.58485  0.44918  0.73461  1.0000
  H   H1099     1.0  0.64760  0.08161  0.73607  1.0000
  S   S182      1.0  0.71874  0.10170  0.73849  1.0000
  H   H1100     1.0  0.58411  0.98884  0.53379  1.0000
  H   H1101     1.0  0.64786  0.98912  0.73559  1.0000
  C   C626      1.0  0.88761  0.27249  0.74121  1.0000
  H   H1102     1.0  0.89168  0.09134  0.49351  1.0000
  C   C627      1.0  0.98742  0.33409  0.54355  1.0000
  Fe  Fe87      1.0  0.88968  0.36594  0.87923  1.0000
  S   S183      1.0  0.92543  0.39158  0.84899  1.0000
  S   S184      1.0  0.84230  0.32454  0.86753  1.0000
  Fe  Fe88      1.0  0.93216  0.41211  0.92202  1.0000
  H   H1103     1.0  0.61581  0.11541  0.93923  1.0000
  S   S185      1.0  0.93606  0.42755  0.96413  1.0000
  Fe  Fe89      1.0  0.93131  0.43628  0.86902  1.0000
  H   H1104     1.0  0.89810  0.12130  0.97861  1.0000
  C   C628      1.0  0.91976  0.14323  0.97951  1.0000
  S   S186      1.0  0.89335  0.41078  0.89770  1.0000
  S   S187      1.0  0.92413  0.36436  0.90687  1.0000
  C   C629      1.0  0.84809  0.05095  0.95554  1.0000
  Fe  Fe90      1.0  0.51876  0.06091  0.87189  1.0000
  S   S188      1.0  0.56120  0.05500  0.85745  1.0000
  S   S189      1.0  0.52943  0.10141  0.89929  1.0000
  S   S190      1.0  0.97039  0.43937  0.89421  1.0000
  H   H1105     1.0  0.60042  0.47146  0.82244  1.0000
  S   S191      1.0  0.51644  0.45634  0.84439  1.0000
  H   H1106     1.0  0.91332  0.23766  0.75430  1.0000
  Fe  Fe91      1.0  0.74478  0.09242  0.76918  1.0000
  S   S192      1.0  0.73027  0.04227  0.77981  1.0000
  Fe  Fe92      1.0  0.78257  0.16282  0.78464  1.0000
  S   S193      1.0  0.75778  0.17597  0.75541  1.0000
  S   S194      1.0  0.82473  0.19935  0.80741  1.0000
  Fe  Fe93      1.0  0.71339  0.13370  0.76824  1.0000
  S   S195      1.0  0.66651  0.13410  0.77523  1.0000
  S   S196      1.0  0.73775  0.12298  0.79936  1.0000
  S   S197      1.0  0.79237  0.13073  0.75767  1.0000
  C   C630      1.0  0.71374  0.01216  0.75608  1.0000
  H   H1107     1.0  0.89662  0.24030  0.93560  1.0000
  S   S198      1.0  0.49625  0.15222  0.86613  1.0000
  H   H1108     1.0  0.83870  0.03246  0.94022  1.0000
  C   C631      1.0  0.59069  0.07822  0.83514  1.0000
  C   C632      1.0  0.61797  0.07448  0.83249  1.0000
  C   C633      1.0  0.64151  0.09162  0.81450  1.0000
  C   C634      1.0  0.63782  0.11237  0.79858  1.0000
  C   C635      1.0  0.61074  0.11636  0.80140  1.0000
  C   C636      1.0  0.58740  0.09956  0.81966  1.0000
  H   H1109     1.0  0.62078  0.05804  0.84432  1.0000
  H   H1110     1.0  0.66234  0.08851  0.81277  1.0000
  H   H1111     1.0  0.60763  0.13241  0.78929  1.0000
  H   H1112     1.0  0.56655  0.10268  0.82141  1.0000
  H   H1113     1.0  0.94936  0.05795  0.94071  1.0000
  H   H1114     1.0  0.55319  0.31617  0.85660  1.0000
  C   C637      1.0  0.94367  0.14956  0.96112  1.0000
  C   C638      1.0  0.52514  0.38038  0.81623  1.0000
  C   C639      1.0  0.53063  0.40798  0.83038  1.0000
  C   C640      1.0  0.50894  0.41966  0.82961  1.0000
  H   H1115     1.0  0.54257  0.37216  0.81620  1.0000
  H   H1116     1.0  0.55193  0.42066  0.84142  1.0000
  H   H1117     1.0  0.54511  0.30402  0.88874  1.0000
  H   H1118     1.0  0.57666  0.99988  0.95765  1.0000
  C   C641      1.0  0.93211  0.28753  0.89701  1.0000
  C   C642      1.0  0.83843  0.29074  0.84972  1.0000
  C   C643      1.0  0.80969  0.27088  0.83751  1.0000
  C   C644      1.0  0.80533  0.24319  0.82406  1.0000
  C   C645      1.0  0.82941  0.23464  0.82318  1.0000
  C   C646      1.0  0.85819  0.25457  0.83524  1.0000
  C   C647      1.0  0.86281  0.28260  0.84823  1.0000
  H   H1119     1.0  0.79085  0.27717  0.83836  1.0000
  H   H1120     1.0  0.78344  0.22843  0.81439  1.0000
  H   H1121     1.0  0.87704  0.24828  0.83459  1.0000
  H   H1122     1.0  0.88503  0.29765  0.85748  1.0000
  H   H1123     1.0  0.79436  0.47965  0.87030  1.0000
  H   H1124     1.0  0.88227  0.44063  0.82368  1.0000
  C   C648      1.0  0.58863  0.00806  0.75001  1.0000
  H   H1125     1.0  0.93381  0.27241  0.88139  1.0000
  H   H1126     1.0  0.87579  0.46417  0.95477  1.0000
  H   H1127     1.0  0.93354  0.26797  0.96922  1.0000
  H   H1128     1.0  0.51086  0.25199  0.82379  1.0000
  H   H1129     1.0  0.95026  0.24194  0.96858  1.0000
  C   C649      1.0  0.64009  0.01514  0.78957  1.0000
  H   H1130     1.0  0.87629  0.22089  0.76967  1.0000
  H   H1131     1.0  0.84923  0.26705  0.76817  1.0000
  C   C650      1.0  0.96772  0.24054  0.89182  1.0000
  H   H1132     1.0  0.90690  0.27919  0.90186  1.0000
  C   C651      1.0  0.87524  0.27760  0.76741  1.0000
  C   C652      1.0  0.88120  0.01141  0.95070  1.0000
  H   H1133     1.0  0.57326  0.09849  0.93768  1.0000
  H   H1134     1.0  0.61512  0.01043  0.93196  1.0000
  H   H1135     1.0  0.59421  0.12306  0.96406  1.0000
  H   H1136     1.0  0.84514  0.47836  0.87422  1.0000
  H   H1137     1.0  0.88464  0.30327  0.77138  1.0000
  H   H1138     1.0  0.52522  0.29374  0.81826  1.0000
  H   H1139     1.0  0.66959  0.04010  0.75830  1.0000
  N   N46       1.0  0.61953  0.48350  0.78439  1.0000
  C   C653      1.0  0.95214  0.26345  0.95991  1.0000
  H   H1140     1.0  0.86593  0.07349  0.94769  1.0000
  H   H1141     1.0  0.65346  0.03211  0.80521  1.0000
  H   H1142     1.0  0.60984  0.08555  0.97925  1.0000
  C   C654      1.0  0.95124  0.28942  0.92094  1.0000
  C   C655      1.0  0.56426  0.48023  0.77846  1.0000
  H   H1143     1.0  0.65225  0.04080  0.92390  1.0000
  C   C656      1.0  0.62559  0.46893  0.76043  1.0000
  H   H1144     1.0  0.85005  0.45160  0.79303  1.0000
  H   H1145     1.0  0.88352  0.26850  0.78307  1.0000
  N   N47       1.0  0.88803  0.03433  0.97294  1.0000
  H   H1146     1.0  0.84039  0.02003  0.98639  1.0000
  H   H1147     1.0  0.90111  0.00595  0.94754  1.0000
  N   N48       1.0  0.69590  0.19183  0.84524  1.0000
  C   C657      1.0  0.71197  0.17214  0.83816  1.0000
  C   C658      1.0  0.68782  0.20211  0.82087  1.0000
  C   C659      1.0  0.66575  0.17074  0.85895  1.0000
  C   C660      1.0  0.71771  0.21922  0.86226  1.0000
  C   C661      1.0  0.71893  0.15619  0.86039  1.0000
  C   C662      1.0  0.71534  0.21836  0.80198  1.0000
  C   C663      1.0  0.64380  0.18488  0.86641  1.0000
  C   C664      1.0  0.71460  0.24973  0.86173  1.0000
  H   H1148     1.0  0.69778  0.15326  0.82394  1.0000
  H   H1149     1.0  0.73507  0.18655  0.82880  1.0000
  H   H1150     1.0  0.67769  0.21835  0.82461  1.0000
  H   H1151     1.0  0.66890  0.18158  0.81045  1.0000
  H   H1152     1.0  0.65156  0.14898  0.84715  1.0000
  H   H1153     1.0  0.67069  0.16261  0.87705  1.0000
  H   H1154     1.0  0.71500  0.21215  0.88249  1.0000
  H   H1155     1.0  0.74288  0.22653  0.85757  1.0000
  H   H1156     1.0  0.73030  0.17274  0.87672  1.0000
  H   H1157     1.0  0.69722  0.13541  0.86677  1.0000
  H   H1158     1.0  0.73546  0.14730  0.85371  1.0000
  H   H1159     1.0  0.72064  0.20081  0.79170  1.0000
  H   H1160     1.0  0.70847  0.23003  0.78729  1.0000
  H   H1161     1.0  0.73696  0.23646  0.81148  1.0000
  H   H1162     1.0  0.62140  0.16579  0.87384  1.0000
  H   H1163     1.0  0.63721  0.19448  0.85008  1.0000
  H   H1164     1.0  0.65389  0.20270  0.88215  1.0000
  H   H1165     1.0  0.72330  0.26194  0.84351  1.0000
  H   H1166     1.0  0.72967  0.26633  0.87696  1.0000
  H   H1167     1.0  0.69033  0.24585  0.86518  1.0000
  C   C665      1.0  0.64501  0.03306  0.76470  1.0000
  H   H1168     1.0  0.64421  0.46177  0.76333  1.0000
  C   C666      1.0  0.56411  0.03979  0.92944  1.0000
  H   H1169     1.0  0.55577  0.45870  0.76620  1.0000
  H   H1170     1.0  0.97232  0.26075  0.87987  1.0000
  N   N49       1.0  0.62207  0.01519  0.74356  1.0000
  H   H1171     1.0  0.83071  0.21752  0.75185  1.0000
  H   H1172     1.0  0.91204  0.07456  0.94910  1.0000
  H   H1173     1.0  0.87950  0.02194  0.93265  1.0000
  H   H1174     1.0  0.50867  0.32109  0.85677  1.0000
  H   H1175     1.0  0.62608  0.07766  0.92412  1.0000
  Fe  Fe94      1.0  0.96013  0.39188  0.87745  1.0000
  H   H1176     1.0  0.98572  0.23302  0.88654  1.0000
  S   S199      1.0  0.58494  0.47621  0.89501  1.0000
  C   C667      1.0  0.60358  0.45971  0.80476  1.0000
  H   H1177     1.0  0.79127  0.47416  0.82613  1.0000
  C   C668      1.0  0.86068  0.04087  0.97836  1.0000
  C   C669      1.0  0.50264  0.03138  0.98279  1.0000
  C   C670      1.0  0.97107  0.24999  0.92032  1.0000
  C   C671      1.0  0.91370  0.23296  0.92714  1.0000
  H   H1178     1.0  0.50072  0.19037  0.82356  1.0000
  H   H1179     1.0  0.94036  0.13228  0.94615  1.0000
  C   C672      1.0  0.59002  0.07616  0.96543  1.0000
  C   C673      1.0  0.89347  0.48095  0.94148  1.0000
  C   C674      1.0  0.62100  0.05902  0.93809  1.0000
  H   H1180     1.0  0.50567  0.42219  0.95728  1.0000
  H   H1181     1.0  0.80186  0.00573  0.81676  1.0000
  H   H1182     1.0  0.88154  0.18316  0.93148  1.0000
  S   S200      1.0  0.50478  0.06457  0.96711  1.0000
  H   H1183     1.0  0.60536  0.42303  0.82644  1.0000
  C   C675      1.0  0.60275  0.02773  0.98985  1.0000
  H   H1184     1.0  0.57944  0.44217  0.79920  1.0000
  H   H1185     1.0  0.50003  0.26467  0.79601  1.0000
  C   C676      1.0  0.57984  0.02181  0.96769  1.0000
  H   H1186     1.0  0.94459  0.22021  0.88717  1.0000
  C   C677      1.0  0.58413  0.03256  0.76709  1.0000
  N   N50       1.0  0.58891  0.04863  0.94983  1.0000
  C   C678      1.0  0.96983  0.45895  0.97865  1.0000
  C   C679      1.0  0.86957  0.47098  0.80269  1.0000
  H   H1187     1.0  0.97116  0.23036  0.93084  1.0000
  H   H1188     1.0  0.94471  0.30294  0.93539  1.0000
  C   C680      1.0  0.50481  0.26986  0.81674  1.0000
  C   C681      1.0  0.88776  0.46468  0.82011  1.0000
  C   C682      1.0  0.62672  0.03384  0.92340  1.0000
  H   H1189     1.0  0.57347  0.05596  0.91319  1.0000
  C   C683      1.0  0.50408  0.30031  0.86829  1.0000
  C   C684      1.0  0.59699  0.44089  0.74780  1.0000
  H   H1190     1.0  0.53346  0.27522  0.86340  1.0000
  C   C685      1.0  0.49817  0.42377  0.97719  1.0000
  H   H1191     1.0  0.92175  0.19144  0.93084  1.0000
  H   H1192     1.0  0.94115  0.31152  0.88943  1.0000
  C   C686      1.0  0.91640  0.06485  0.96657  1.0000
  H   H1193     1.0  0.97643  0.30513  0.91657  1.0000
  C   C687      1.0  0.97179  0.17827  0.96170  1.0000
  N   N51       1.0  0.94696  0.25872  0.93147  1.0000
  H   H1194     1.0  0.57975  0.42463  0.76144  1.0000
  H   H1195     1.0  0.90488  0.20082  0.95901  1.0000
  C   C688      1.0  0.97554  0.20082  0.98077  1.0000
  H   H1196     1.0  0.90786  0.22867  0.90656  1.0000
  C   C689      1.0  0.62029  0.44062  0.81235  1.0000
  H   H1197     1.0  0.64011  0.07092  0.95243  1.0000
  H   H1198     1.0  0.59115  0.03256  0.78706  1.0000
  H   H1199     1.0  0.62351  0.42733  0.79589  1.0000
  C   C690      1.0  0.90556  0.20051  0.93787  1.0000
  H   H1200     1.0  0.56829  0.06862  0.97717  1.0000
  C   C691      1.0  0.88766  0.22303  0.75066  1.0000
  H   H1201     1.0  0.64959  0.99814  0.78767  1.0000
  C   C692      1.0  0.53532  0.29832  0.86913  1.0000
  H   H1202     1.0  0.55501  0.47376  0.79808  1.0000
  Fe  Fe95      1.0  0.48914  0.10502  0.88088  1.0000
  H   H1203     1.0  0.63582  0.48674  0.74541  1.0000
  H   H1204     1.0  0.64312  0.45556  0.82190  1.0000
  H   H1205     1.0  0.94991  0.04571  0.97262  1.0000
  H   H1206     1.0  0.55873  0.02617  0.76766  1.0000
  C   C693      1.0  0.94734  0.06324  0.96123  1.0000
  H   H1207     1.0  0.54375  0.04268  0.93693  1.0000
  H   H1208     1.0  0.82806  0.05482  0.96219  1.0000
  C   C694      1.0  0.49079  0.00163  0.97071  1.0000
  H   H1209     1.0  0.92095  0.08358  0.98143  1.0000
  H   H1210     1.0  0.53484  0.00414  0.90141  1.0000
  C   C695      1.0  0.59363  0.10466  0.95035  1.0000
  H   H1211     1.0  0.64490  0.05556  0.76984  1.0000
  H   H1212     1.0  0.96766  0.08631  0.96660  1.0000
  Fe  Fe96      1.0  0.49341  0.06541  0.92503  1.0000
  C   C696      1.0  0.49736  0.36349  0.80197  1.0000
  H   H1213     1.0  0.62687  0.03394  0.98304  1.0000
  S   S201      1.0  0.93746  0.48314  0.85431  1.0000
  H   H1214     1.0  0.89120  0.18058  0.75775  1.0000
  H   H1215     1.0  0.55639  0.01549  0.97625  1.0000
  H   H1216     1.0  0.49963  0.30668  0.88801  1.0000
  H   H1217     1.0  0.59688  0.05684  0.76023  1.0000
  H   H1218     1.0  0.89757  0.46638  0.92664  1.0000
  S   S202      1.0  0.49265  0.33047  0.78266  1.0000
  H   H1219     1.0  0.61942  0.03175  0.90317  1.0000
  H   H1220     1.0  0.52002  0.43562  0.98869  1.0000
  H   H1221     1.0  0.49651  0.25932  0.90547  1.0000
  C   C697      1.0  0.88174  0.18950  0.74273  1.0000
  C   C698      1.0  0.54943  0.00586  0.91814  1.0000
  C   C699      1.0  0.98438  0.29028  0.96864  1.0000
  H   H1222     1.0  0.98440  0.29288  0.98973  1.0000
  H   H1223     1.0  0.61501  0.00243  0.79535  1.0000
  H   H1224     1.0  0.48799  0.23378  0.86018  1.0000
  H   H1225     1.0  0.96411  0.48790  0.93336  1.0000
  H   H1226     1.0  0.92954  0.48709  0.96796  1.0000
  H   H1227     1.0  0.49132  0.37873  0.98924  1.0000
  H   H1228     1.0  0.91372  0.28480  0.74277  1.0000
  H   H1229     1.0  0.53338  0.98874  0.93206  1.0000
  H   H1230     1.0  0.56703  0.99873  0.91128  1.0000
  H   H1231     1.0  0.67004  0.97845  0.06972  1.0000
  S   S203      1.0  0.78369  0.60682  0.18955  1.0000
  H   H1232     1.0  0.67571  0.91314  0.05322  1.0000
  Fe  Fe97      1.0  0.61281  0.78683  0.19937  1.0000
  C   C700      1.0  0.55484  0.54996  0.07959  1.0000
  S   S204      1.0  0.61513  0.83277  0.18592  1.0000
  Fe  Fe98      1.0  0.64585  0.74596  0.20671  1.0000
  S   S205      1.0  0.68172  0.72993  0.19443  1.0000
  Fe  Fe99      1.0  0.57517  0.71617  0.21033  1.0000
  H   H1233     1.0  0.64157  0.93302  0.13923  1.0000
  S   S206      1.0  0.60888  0.74275  0.17917  1.0000
  C   C701      1.0  0.51172  0.58398  0.15173  1.0000
  Fe  Fe100     1.0  0.91427  0.72456  0.09384  1.0000
  S   S207      1.0  0.88506  0.68969  0.06341  1.0000
  S   S208      1.0  0.89965  0.72093  0.13596  1.0000
  Fe  Fe101     1.0  0.96420  0.76684  0.05409  1.0000
  S   S209      1.0  0.93704  0.73451  0.02144  1.0000
  Fe  Fe102     1.0  0.89346  0.73195  0.04052  1.0000
  S   S210      1.0  0.85039  0.73535  0.02592  1.0000
  Fe  Fe103     1.0  0.93162  0.69609  0.04772  1.0000
  S   S211      1.0  0.94383  0.65814  0.03327  1.0000
  S   S212      1.0  0.92090  0.76666  0.07186  1.0000
  S   S213      1.0  0.96062  0.72862  0.07951  1.0000
  Fe  Fe104     1.0  0.53056  0.90323  0.10015  1.0000
  S   S214      1.0  0.54106  0.93782  0.13280  1.0000
  S   S215      1.0  0.53193  0.85693  0.10472  1.0000
  Fe  Fe105     1.0  0.51811  0.94536  0.06364  1.0000
  H   H1234     1.0  0.51745  0.55502  0.21983  1.0000
  H   H1235     1.0  0.90109  0.82279  0.01310  1.0000
  S   S216      1.0  0.56077  0.93914  0.07179  1.0000
  C   C702      1.0  0.80173  0.96915  0.01661  1.0000
  C   C703      1.0  0.63710  0.94174  0.04459  1.0000
  H   H1236     1.0  0.59873  0.65794  0.21036  1.0000
  C   C704      1.0  0.82173  0.55821  0.20850  1.0000
  H   H1237     1.0  0.64887  0.93040  0.03338  1.0000
  H   H1238     1.0  0.91377  0.79434  0.02177  1.0000
  H   H1239     1.0  0.58393  0.60036  0.07811  1.0000
  C   C705      1.0  0.77702  0.97022  0.00385  1.0000
  H   H1240     1.0  0.50273  0.81919  0.15994  1.0000
  C   C706      1.0  0.67851  0.95256  0.10956  1.0000
  C   C707      1.0  0.97311  0.62379  0.04728  1.0000
  H   H1241     1.0  0.51676  0.56772  0.00423  1.0000
  C   C708      1.0  0.95454  0.64530  0.08195  1.0000
  C   C709      1.0  0.95793  0.64129  0.05575  1.0000
  H   H1242     1.0  0.85120  0.74442  0.11080  1.0000
  H   H1243     1.0  0.96283  0.63453  0.11971  1.0000
  H   H1244     1.0  0.94270  0.65852  0.08870  1.0000
  C   C710      1.0  0.59139  0.83864  0.16336  1.0000
  C   C711      1.0  0.59387  0.86886  0.16159  1.0000
  C   C712      1.0  0.57579  0.87482  0.14385  1.0000
  C   C713      1.0  0.55536  0.85069  0.12732  1.0000
  C   C714      1.0  0.55301  0.82053  0.12896  1.0000
  C   C715      1.0  0.57071  0.81444  0.14700  1.0000
  H   H1245     1.0  0.60984  0.88775  0.17412  1.0000
  H   H1246     1.0  0.57784  0.89812  0.14286  1.0000
  H   H1247     1.0  0.53724  0.80166  0.11630  1.0000
  H   H1248     1.0  0.56863  0.79112  0.14805  1.0000
  H   H1249     1.0  0.82577  0.72943  0.19784  1.0000
  H   H1250     1.0  0.69443  0.91445  0.08196  1.0000
  C   C716      1.0  0.54201  0.61006  0.15323  1.0000
  C   C717      1.0  0.54764  0.63728  0.16804  1.0000
  H   H1251     1.0  0.81850  0.74668  0.09600  1.0000
  H   H1252     1.0  0.56130  0.60914  0.14301  1.0000
  H   H1253     1.0  0.57104  0.65711  0.16903  1.0000
  C   C718      1.0  0.81671  0.63832  0.17520  1.0000
  C   C719      1.0  0.82375  0.63531  0.14944  1.0000
  C   C720      1.0  0.84938  0.66004  0.13723  1.0000
  C   C721      1.0  0.86833  0.68815  0.15069  1.0000
  C   C722      1.0  0.86158  0.69093  0.17658  1.0000
  C   C723      1.0  0.83586  0.66629  0.18872  1.0000
  H   H1254     1.0  0.80915  0.61377  0.13876  1.0000
  H   H1255     1.0  0.85427  0.65746  0.11733  1.0000
  H   H1256     1.0  0.87603  0.71256  0.18719  1.0000
  H   H1257     1.0  0.83043  0.66922  0.20837  1.0000
  C   C724      1.0  0.69478  0.71414  0.21851  1.0000
  C   C725      1.0  0.70807  0.69438  0.21181  1.0000
  C   C726      1.0  0.65698  0.95583  0.13039  1.0000
  H   H1258     1.0  0.70989  0.68876  0.19195  1.0000
  H   H1259     1.0  0.73030  0.97233  0.07762  1.0000
  H   H1260     1.0  0.70931  0.97242  0.04928  1.0000
  C   C727      1.0  0.81855  0.76199  0.00204  1.0000
  N   N52       1.0  0.79741  0.72044  0.14623  1.0000
  C   C728      1.0  0.80411  0.70673  0.12194  1.0000
  C   C729      1.0  0.77943  0.69346  0.16374  1.0000
  C   C730      1.0  0.82865  0.74344  0.15798  1.0000
  C   C731      1.0  0.77868  0.73692  0.13934  1.0000
  C   C732      1.0  0.82712  0.73060  0.10288  1.0000
  C   C733      1.0  0.74729  0.66776  0.15392  1.0000
  C   C734      1.0  0.62359  0.63595  0.19118  1.0000
  C   C735      1.0  0.76645  0.75026  0.16147  1.0000
  H   H1261     1.0  0.81408  0.69071  0.12637  1.0000
  H   H1262     1.0  0.78207  0.69198  0.11112  1.0000
  H   H1263     1.0  0.77491  0.70145  0.18269  1.0000
  H   H1264     1.0  0.79380  0.68162  0.16787  1.0000
  H   H1265     1.0  0.84639  0.73492  0.15480  1.0000
  H   H1266     1.0  0.83861  0.76652  0.14852  1.0000
  H   H1267     1.0  0.79305  0.75736  0.12728  1.0000
  H   H1268     1.0  0.75836  0.72174  0.12683  1.0000
  H   H1269     1.0  0.82946  0.71745  0.08582  1.0000
  C   C736      1.0  0.95208  0.84361  0.02132  1.0000
  C   C737      1.0  0.54126  0.58664  0.00717  1.0000
  H   H1270     1.0  0.74983  0.65448  0.13712  1.0000
  H   H1271     1.0  0.73593  0.65036  0.16909  1.0000
  H   H1272     1.0  0.73112  0.67746  0.14960  1.0000
  C   C738      1.0  0.78921  0.91916  0.99402  1.0000
  H   H1273     1.0  0.60026  0.85635  0.08100  1.0000
  H   H1274     1.0  0.55087  0.55793  0.03117  1.0000
  H   H1275     1.0  0.96532  0.80052  0.00832  1.0000
  H   H1276     1.0  0.75961  0.73600  0.17866  1.0000
  H   H1277     1.0  0.74442  0.75034  0.15550  1.0000
  N   N53       1.0  0.66228  0.93417  0.08557  1.0000
  H   H1278     1.0  0.52464  0.88548  0.18589  1.0000
  C   C739      1.0  0.68609  0.92817  0.07051  1.0000
  C   C740      1.0  0.63480  0.90342  0.09336  1.0000
  C   C741      1.0  0.71861  0.68155  0.23073  1.0000
  C   C742      1.0  0.50223  0.91377  0.19594  1.0000
  H   H1279     1.0  0.91397  0.59845  0.22836  1.0000
  H   H1280     1.0  0.72873  0.66627  0.22544  1.0000
  H   H1281     1.0  0.63608  0.62212  0.19466  1.0000
  H   H1282     1.0  0.54275  0.61019  0.00570  1.0000
  C   C743      1.0  0.50278  0.98030  0.00828  1.0000
  H   H1283     1.0  0.56936  0.54569  0.06485  1.0000
  H   H1284     1.0  0.78403  0.77478  0.16675  1.0000
  H   H1285     1.0  0.54943  0.58776  0.09704  1.0000
  C   C744      1.0  0.91742  0.81868  0.02514  1.0000
  H   H1286     1.0  0.64236  0.96598  0.12319  1.0000
  H   H1287     1.0  0.96604  0.84037  0.03660  1.0000
  C   C745      1.0  0.84476  0.75633  0.00095  1.0000
  C   C746      1.0  0.54216  0.63512  0.08399  1.0000
  H   H1288     1.0  0.90799  0.66766  0.20450  1.0000
  H   H1289     1.0  0.50670  0.87830  0.21651  1.0000
  C   C747      1.0  0.85582  0.62113  0.23910  1.0000
  Fe  Fe106     1.0  0.56922  0.97410  0.10390  1.0000
  H   H1290     1.0  0.54122  0.65748  0.08142  1.0000
  C   C748      1.0  0.96590  0.63163  0.09949  1.0000
  S   S217      1.0  0.65383  0.79282  0.22364  1.0000
  N   N54       1.0  0.54155  0.58912  0.05668  1.0000
  C   C749      1.0  0.98118  0.61426  0.09106  1.0000
  C   C750      1.0  0.85185  0.57050  0.22477  1.0000
  C   C751      1.0  0.50660  0.56734  0.05889  1.0000
  C   C752      1.0  0.62237  0.87585  0.07356  1.0000
  H   H1291     1.0  0.63926  0.86631  0.07067  1.0000
  H   H1292     1.0  0.51936  0.61794  0.09226  1.0000
  H   H1293     1.0  0.63247  0.95639  0.08239  1.0000
  C   C753      1.0  0.53676  0.56954  0.23338  1.0000
  H   H1294     1.0  0.73045  0.95033  0.04971  1.0000
  C   C754      1.0  0.71549  0.95778  0.06147  1.0000
  H   H1295     1.0  0.56107  0.64025  0.09804  1.0000
  H   H1296     1.0  0.52998  0.53149  0.07806  1.0000
  H   H1297     1.0  0.54615  0.55411  0.24032  1.0000
  H   H1298     1.0  0.64104  0.89413  0.11029  1.0000
  Fe  Fe107     1.0  0.76821  0.60571  0.23114  1.0000
  S   S218      1.0  0.57643  0.75995  0.22889  1.0000
  H   H1299     1.0  0.85290  0.76948  0.19229  1.0000
  H   H1300     1.0  0.60415  0.62295  0.17749  1.0000
  H   H1301     1.0  0.92131  0.63665  0.23759  1.0000
  C   C755      1.0  0.50590  0.49483  0.01997  1.0000
  H   H1302     1.0  0.49854  0.86390  0.14887  1.0000
  C   C756      1.0  0.53313  0.49832  0.00666  1.0000
  S   S219      1.0  0.50640  0.54944  0.13423  1.0000
  C   C757      1.0  0.55479  0.58257  0.03224  1.0000
  H   H1303     1.0  0.50335  0.79907  0.18756  1.0000
  H   H1304     1.0  0.64058  0.65776  0.18166  1.0000
  H   H1305     1.0  0.56641  0.58840  0.20109  1.0000
  H   H1306     1.0  0.80757  0.53240  0.21073  1.0000
  C   C758      1.0  0.61199  0.64535  0.21600  1.0000
  H   H1307     1.0  0.63311  0.66384  0.22563  1.0000
  H   H1308     1.0  0.52738  0.84062  0.18698  1.0000
  C   C759      1.0  0.87982  0.61594  0.19794  1.0000
  H   H1309     1.0  0.88403  0.59857  0.18606  1.0000
  H   H1310     1.0  0.58083  0.59767  0.03153  1.0000
  H   H1311     1.0  0.55160  0.49657  0.01681  1.0000
  H   H1312     1.0  0.80298  0.75449  0.01837  1.0000
  C   C760      1.0  0.54949  0.62342  0.05816  1.0000
  H   H1313     1.0  0.61436  0.90708  0.09939  1.0000
  C   C761      1.0  0.55826  0.58346  0.07840  1.0000
  S   S220      1.0  0.52949  0.67041  0.20351  1.0000
  C   C762      1.0  0.60742  0.59894  0.24011  1.0000
  H   H1314     1.0  0.57503  0.63860  0.05424  1.0000
  C   C763      1.0  0.80773  0.94352  0.01160  1.0000
  H   H1315     1.0  0.69164  0.94168  0.11872  1.0000
  H   H1316     1.0  0.53717  0.62916  0.04322  1.0000
  H   H1317     1.0  0.95277  0.86669  0.02569  1.0000
  H   H1318     1.0  0.61661  0.88202  0.05506  1.0000
  C   C764      1.0  0.52314  0.63837  0.18216  1.0000
  C   C765      1.0  0.90834  0.64822  0.19296  1.0000
  C   C766      1.0  0.90303  0.61172  0.23844  1.0000
  S   S221      1.0  0.52856  0.98278  0.09416  1.0000
  H   H1319     1.0  0.81185  0.75796  0.19323  1.0000
  C   C767      1.0  0.50422  0.82118  0.18102  1.0000
  H   H1320     1.0  0.56350  0.54736  0.09837  1.0000
  H   H1321     1.0  0.64060  0.96220  0.03325  1.0000
  S   S222      1.0  0.50212  0.94742  0.02331  1.0000
  H   H1322     1.0  0.69643  0.97703  0.10514  1.0000
  C   C768      1.0  0.82925  0.75022  0.18697  1.0000
  H   H1323     1.0  0.91050  0.82024  0.04523  1.0000
  H   H1324     1.0  0.50057  0.54385  0.05009  1.0000
  C   C769      1.0  0.50285  0.88193  0.19629  1.0000
  H   H1325     1.0  0.82675  0.94243  0.02141  1.0000
  H   H1326     1.0  0.83588  0.61911  0.22741  1.0000
  Fe  Fe108     1.0  0.49903  0.94241  0.11974  1.0000
  H   H1327     1.0  0.90792  0.65392  0.17267  1.0000
  H   H1328     1.0  0.85903  0.61635  0.18935  1.0000
  H   H1329     1.0  0.87333  0.67150  0.23214  1.0000
  C   C770      1.0  0.65110  0.95374  0.07136  1.0000
  H   H1330     1.0  0.93090  0.64769  0.19577  1.0000
  N   N55       1.0  0.59207  0.61879  0.23333  1.0000
  H   H1331     1.0  0.82704  0.56203  0.18788  1.0000
  H   H1332     1.0  0.55005  0.61231  0.21379  1.0000
  H   H1333     1.0  0.80664  0.56883  0.21472  1.0000
  H   H1334     1.0  0.52573  0.93302  0.20160  1.0000
  N   N56       1.0  0.87305  0.60573  0.22524  1.0000
  H   H1335     1.0  0.86487  0.55776  0.21758  1.0000
  H   H1336     1.0  0.61144  0.92545  0.04573  1.0000
  H   H1337     1.0  0.49712  0.91919  0.17684  1.0000
  S   S223      1.0  0.61188  0.71783  0.23702  1.0000
  H   H1338     1.0  0.97582  0.62060  0.02706  1.0000
  C   C771      1.0  0.56177  0.59820  0.21922  1.0000
  H   H1339     1.0  0.95613  0.54315  0.99720  1.0000
  H   H1340     1.0  0.49933  0.56253  0.07921  1.0000
  H   H1341     1.0  0.50364  0.49050  0.04014  1.0000
  H   H1342     1.0  0.65689  0.61110  0.23203  1.0000
  N   N57       1.0  0.96619  0.84320  0.99541  1.0000
  C   C772      1.0  0.98498  0.61058  0.06486  1.0000
  C   C773      1.0  0.49282  0.61242  0.18042  1.0000
  H   H1343     1.0  0.67188  0.97207  0.14584  1.0000
  H   H1344     1.0  0.60473  0.58202  0.22409  1.0000
  H   H1345     1.0  0.48991  0.58594  0.02754  1.0000
  Fe  Fe109     1.0  0.70720  0.92145  0.43791  1.0000
  S   S224      1.0  0.74386  0.95089  0.40965  1.0000
  S   S225      1.0  0.66958  0.93548  0.44864  1.0000
  Fe  Fe110     1.0  0.73744  0.87845  0.44619  1.0000
  S   S226      1.0  0.77590  0.90570  0.41833  1.0000
  C   C774      1.0  0.67511  0.77527  0.38616  1.0000
  Fe  Fe111     1.0  0.77787  0.94926  0.43764  1.0000
  S   S227      1.0  0.61470  0.98620  0.36289  1.0000
  Fe  Fe112     1.0  0.73760  0.90423  0.39348  1.0000
  S   S228      1.0  0.73624  0.89203  0.35093  1.0000
  S   S229      1.0  0.74158  0.92207  0.46703  1.0000
  S   S230      1.0  0.69886  0.87491  0.42019  1.0000
  C   C775      1.0  0.72154  0.76489  0.38707  1.0000
  H   H1346     1.0  0.73277  0.82120  0.40420  1.0000
  Fe  Fe113     1.0  0.72180  0.56604  0.27348  1.0000
  S   S231      1.0  0.74492  0.60572  0.30231  1.0000
  S   S232      1.0  0.68474  0.51821  0.28782  1.0000
  Fe  Fe114     1.0  0.74481  0.63651  0.27112  1.0000
  S   S233      1.0  0.72833  0.67259  0.28093  1.0000
  Fe  Fe115     1.0  0.79093  0.61191  0.28586  1.0000
  S   S234      1.0  0.83389  0.62193  0.30989  1.0000
  H   H1347     1.0  0.81446  0.92615  0.47958  1.0000
  H   H1348     1.0  0.88122  0.97353  0.46610  1.0000
  Fe  Fe116     1.0  0.61724  0.76440  0.25223  1.0000
  S   S235      1.0  0.62039  0.77753  0.29473  1.0000
  Fe  Fe117     1.0  0.90830  0.52274  0.37084  1.0000
  S   S236      1.0  0.94595  0.53325  0.34130  1.0000
  S   S237      1.0  0.86097  0.51758  0.35801  1.0000
  Fe  Fe118     1.0  0.94925  0.51584  0.41275  1.0000
  H   H1349     1.0  0.58172  0.84929  0.29794  1.0000
  C   C776      1.0  0.60158  0.51744  0.30727  1.0000
  S   S238      1.0  0.94072  0.55600  0.40100  1.0000
  H   H1350     1.0  0.61165  0.54164  0.48545  1.0000
  C   C777      1.0  0.77527  0.59734  0.36980  1.0000
  H   H1351     1.0  0.57111  0.64564  0.25146  1.0000
  C   C778      1.0  0.74881  0.53855  0.33442  1.0000
  C   C779      1.0  0.90770  0.66276  0.44774  1.0000
  C   C780      1.0  0.97576  0.78584  0.46890  1.0000
  H   H1352     1.0  0.88977  0.92265  0.43446  1.0000
  H   H1353     1.0  0.74491  0.77117  0.37833  1.0000
  H   H1354     1.0  0.77472  0.61978  0.37450  1.0000
  C   C781      1.0  0.84364  0.59308  0.32074  1.0000
  C   C782      1.0  0.82757  0.56163  0.31222  1.0000
  C   C783      1.0  0.83382  0.53882  0.32317  1.0000
  C   C784      1.0  0.85714  0.54742  0.34195  1.0000
  C   C785      1.0  0.87453  0.57919  0.34935  1.0000
  C   C786      1.0  0.86766  0.60187  0.33890  1.0000
  H   H1355     1.0  0.80971  0.55474  0.29772  1.0000
  C   C787      1.0  0.51228  0.51689  0.47303  1.0000
  H   H1356     1.0  0.89231  0.58600  0.36393  1.0000
  H   H1357     1.0  0.88048  0.62621  0.34538  1.0000
  C   C788      1.0  0.71597  0.68853  0.25650  1.0000
  C   C789      1.0  0.70254  0.70815  0.26316  1.0000
  H   H1358     1.0  0.98582  0.74674  0.37582  1.0000
  H   H1359     1.0  0.70035  0.71356  0.28303  1.0000
  H   H1360     1.0  0.70898  0.71793  0.39970  1.0000
  S   S239      1.0  0.95094  0.50349  0.45416  1.0000
  H   H1361     1.0  0.64879  0.91099  0.33708  1.0000
  H   H1362     1.0  0.69037  0.52344  0.34494  1.0000
  H   H1363     1.0  0.60387  0.88739  0.36330  1.0000
  H   H1364     1.0  0.58935  0.89601  0.33522  1.0000
  C   C790      1.0  0.87491  0.65638  0.24685  1.0000
  H   H1365     1.0  0.58201  0.85616  0.34094  1.0000
  H   H1366     1.0  0.60119  0.66322  0.29025  1.0000
  C   C791      1.0  0.65412  0.94892  0.42447  1.0000
  C   C792      1.0  0.75597  0.82627  0.48411  1.0000
  H   H1367     1.0  0.68200  0.75229  0.31376  1.0000
  H   H1368     1.0  0.60328  0.86228  0.25174  1.0000
  C   C793      1.0  0.64871  0.95797  0.37998  1.0000
  C   C794      1.0  0.66108  0.94665  0.39871  1.0000
  H   H1369     1.0  0.65780  0.75074  0.38091  1.0000
  H   H1370     1.0  0.64182  0.96074  0.28740  1.0000
  H   H1371     1.0  0.67586  0.93605  0.39323  1.0000
  C   C795      1.0  0.70410  0.85977  0.33562  1.0000
  C   C796      1.0  0.70757  0.85085  0.31043  1.0000
  C   C797      1.0  0.68237  0.82544  0.29766  1.0000
  C   C798      1.0  0.65335  0.80885  0.30998  1.0000
  C   C799      1.0  0.65008  0.81753  0.33526  1.0000
  C   C800      1.0  0.67523  0.84285  0.34800  1.0000
  H   H1372     1.0  0.72985  0.86370  0.30068  1.0000
  H   H1373     1.0  0.68531  0.81892  0.27825  1.0000
  H   H1374     1.0  0.62776  0.80480  0.34497  1.0000
  H   H1375     1.0  0.67213  0.84947  0.36732  1.0000
  H   H1376     1.0  0.51556  0.53727  0.46268  1.0000
  N   N58       1.0  0.70757  0.78396  0.37584  1.0000
  H   H1377     1.0  0.96037  0.70765  0.36433  1.0000
  C   C801      1.0  0.95071  0.79274  0.47380  1.0000
  H   H1378     1.0  0.95631  0.62634  0.38374  1.0000
  C   C802      1.0  0.96646  0.72356  0.38145  1.0000
  H   H1379     1.0  0.60809  0.98499  0.41810  1.0000
  H   H1380     1.0  0.65631  0.75534  0.33714  1.0000
  H   H1381     1.0  0.77396  0.55550  0.33273  1.0000
  C   C803      1.0  0.62140  0.90967  0.28943  1.0000
  H   H1382     1.0  0.65321  0.64223  0.24894  1.0000
  H   H1383     1.0  0.59027  0.57851  0.48947  1.0000
  H   H1384     1.0  0.62512  0.84105  0.25811  1.0000
  H   H1385     1.0  0.72816  0.77993  0.33955  1.0000
  H   H1386     1.0  0.68423  0.80403  0.42164  1.0000
  H   H1387     1.0  0.63800  0.87087  0.33669  1.0000
  H   H1388     1.0  0.80265  0.88214  0.45680  1.0000
  C   C804      1.0  0.97801  0.71128  0.40346  1.0000
  C   C805      1.0  0.59951  0.88146  0.34260  1.0000
  N   N59       1.0  0.73650  0.53803  0.36111  1.0000
  H   H1389     1.0  0.94618  0.72739  0.38717  1.0000
  H   H1390     1.0  0.71958  0.49035  0.31873  1.0000
  C   C806      1.0  0.74118  0.57045  0.36887  1.0000
  H   H1391     1.0  0.62103  0.64040  0.28432  1.0000
  H   H1392     1.0  0.71223  0.91972  0.29125  1.0000
  H   H1393     1.0  0.80027  0.55766  0.36582  1.0000
  H   H1394     1.0  0.69442  0.92353  0.31999  1.0000
  S   S240      1.0  0.73469  0.83237  0.45947  1.0000
  H   H1395     1.0  0.60948  0.83552  0.30295  1.0000
  C   C807      1.0  0.97429  0.75877  0.47923  1.0000
  H   H1396     1.0  0.73719  0.54726  0.32111  1.0000
  H   H1397     1.0  0.72781  0.57769  0.35586  1.0000
  H   H1398     1.0  0.73168  0.57054  0.38832  1.0000
  H   H1399     1.0  0.69291  0.50894  0.40161  1.0000
  C   C808      1.0  0.89724  0.94652  0.44290  1.0000
  H   H1400     1.0  0.79123  0.51742  0.37031  1.0000
  H   H1401     1.0  0.73941  0.49974  0.37901  1.0000
  C   C809      1.0  0.63492  0.96276  0.43130  1.0000
  C   C810      1.0  0.70140  0.51635  0.36016  1.0000
  C   C811      1.0  0.51636  0.98452  0.46604  1.0000
  H   H1402     1.0  0.88946  0.61618  0.27831  1.0000
  H   H1403     1.0  0.78762  0.60079  0.35128  1.0000
  H   H1404     1.0  0.78901  0.59422  0.38511  1.0000
  C   C812      1.0  0.62961  0.97191  0.38683  1.0000
  H   H1405     1.0  0.52169  0.98182  0.44628  1.0000
  H   H1406     1.0  0.89989  0.66429  0.25118  1.0000
  C   C813      1.0  0.87134  0.94849  0.45950  1.0000
  C   C814      1.0  0.93497  0.65666  0.39506  1.0000
  C   C815      1.0  0.70272  0.72877  0.38395  1.0000
  H   H1407     1.0  0.64713  0.60797  0.26491  1.0000
  H   H1408     1.0  0.62943  0.67437  0.26537  1.0000
  H   H1409     1.0  0.84395  0.60828  0.25658  1.0000
  H   H1410     1.0  0.68177  0.73610  0.24961  1.0000
  H   H1411     1.0  0.66208  0.89094  0.26928  1.0000
  C   C816      1.0  0.63540  0.94293  0.30232  1.0000
  H   H1412     1.0  0.64745  0.76920  0.42073  1.0000
  H   H1413     1.0  0.66535  0.87092  0.29580  1.0000
  N   N60       1.0  0.85978  0.92684  0.48173  1.0000
  H   H1414     1.0  0.82029  0.51430  0.31730  1.0000
  C   C817      1.0  0.75818  0.79813  0.48385  1.0000
  C   C818      1.0  0.70675  0.78082  0.34705  1.0000
  C   C819      1.0  0.84861  0.89303  0.47312  1.0000
  H   H1415     1.0  0.74668  0.53218  0.39994  1.0000
  H   H1416     1.0  0.72729  0.77103  0.40765  1.0000
  H   H1417     1.0  0.91724  0.69574  0.41830  1.0000
  H   H1418     1.0  0.62939  0.96457  0.45116  1.0000
  H   H1419     1.0  0.91769  0.63456  0.40407  1.0000
  C   C820      1.0  0.61077  0.65369  0.27483  1.0000
  H   H1420     1.0  0.88519  0.57758  0.26956  1.0000
  H   H1421     1.0  0.76016  0.83503  0.34967  1.0000
  H   H1422     1.0  0.52565  0.57665  0.24924  1.0000
  H   H1423     1.0  0.66576  0.78991  0.37735  1.0000
  H   H1424     1.0  0.67698  0.71940  0.38562  1.0000
  H   H1425     1.0  0.95348  0.64488  0.43854  1.0000
  H   H1426     1.0  0.69192  0.94240  0.29104  1.0000
  H   H1427     1.0  0.94232  0.63979  0.35758  1.0000
  H   H1428     1.0  0.70849  0.72047  0.36555  1.0000
  C   C821      1.0  0.58691  0.49123  0.32292  1.0000
  H   H1429     1.0  0.71703  0.83273  0.37891  1.0000
  H   H1430     1.0  0.85150  0.94454  0.44673  1.0000
  C   C822      1.0  0.63199  0.52677  0.29717  1.0000
  H   H1431     1.0  0.68065  0.53610  0.38871  1.0000
  H   H1432     1.0  0.91985  0.66357  0.38388  1.0000
  H   H1433     1.0  0.64280  0.54681  0.28498  1.0000
  H   H1434     1.0  0.75418  0.49527  0.33579  1.0000
  H   H1435     1.0  0.70723  0.80195  0.33867  1.0000
  N   N61       1.0  0.63023  0.88643  0.30064  1.0000
  C   C823      1.0  0.82425  0.88062  0.45141  1.0000
  H   H1436     1.0  0.65442  0.95654  0.36018  1.0000
  C   C824      1.0  0.76150  0.83387  0.37064  1.0000
  C   C825      1.0  0.63084  0.88798  0.32939  1.0000
  H   H1437     1.0  0.77444  0.85864  0.37789  1.0000
  C   C826      1.0  0.93142  0.68906  0.43080  1.0000
  C   C827      1.0  0.49055  0.95980  0.47808  1.0000
  C   C828      1.0  0.89951  0.60323  0.26683  1.0000
  H   H1438     1.0  0.58917  0.53044  0.30271  1.0000
  H   H1439     1.0  0.77587  0.82232  0.37542  1.0000
  C   C829      1.0  0.67795  0.75269  0.33466  1.0000
  C   C830      1.0  0.72859  0.81813  0.38327  1.0000
  N   N62       1.0  0.95366  0.68130  0.41513  1.0000
  H   H1440     1.0  0.74685  0.78061  0.46879  1.0000
  H   H1441     1.0  0.65830  0.49495  0.38247  1.0000
  H   H1442     1.0  0.65675  0.94999  0.31380  1.0000
  C   C831      1.0  0.58359  0.63215  0.25688  1.0000
  C   C832      1.0  0.67266  0.77891  0.41528  1.0000
  H   H1443     1.0  0.94460  0.71016  0.44342  1.0000
  C   C833      1.0  0.97024  0.66840  0.43128  1.0000
  C   C834      1.0  0.60586  0.85346  0.29266  1.0000
  C   C835      1.0  0.64777  0.50943  0.30207  1.0000
  S   S241      1.0  0.79344  0.64737  0.25770  1.0000
  H   H1444     1.0  0.95156  0.81362  0.46595  1.0000
  H   H1445     1.0  0.68240  0.76593  0.42587  1.0000
  H   H1446     1.0  0.92317  0.61007  0.27480  1.0000
  C   C836      1.0  0.95418  0.64666  0.37641  1.0000
  H   H1447     1.0  0.67376  0.72970  0.34169  1.0000
  Fe  Fe119     1.0  0.97873  0.56463  0.37216  1.0000
  C   C837      1.0  0.68276  0.51433  0.38489  1.0000
  H   H1448     1.0  0.56696  0.61303  0.26915  1.0000
  H   H1449     1.0  0.89317  0.67179  0.45831  1.0000
  S   S242      1.0  0.76824  0.57061  0.25862  1.0000
  H   H1450     1.0  0.81696  0.85526  0.44759  1.0000
  C   C838      1.0  0.78691  0.53702  0.37767  1.0000
  H   H1451     1.0  0.83384  0.89287  0.43336  1.0000
  H   H1452     1.0  0.75743  0.51071  0.30480  1.0000
  H   H1453     1.0  0.59535  0.90025  0.29013  1.0000
  H   H1454     1.0  0.79786  0.54338  0.39686  1.0000
  C   C839      1.0  0.75107  0.52597  0.38017  1.0000
  H   H1455     1.0  0.89125  0.64174  0.43640  1.0000
  C   C840      1.0  0.98228  0.49976  0.46839  1.0000
  C   C841      1.0  0.62292  0.97444  0.41259  1.0000
  H   H1456     1.0  0.61739  0.94545  0.31436  1.0000
  C   C842      1.0  0.69123  0.92111  0.29904  1.0000
  H   H1457     1.0  0.91945  0.65587  0.46234  1.0000
  C   C843      1.0  0.66162  0.89100  0.29049  1.0000
  Fe  Fe120     1.0  0.95200  0.49396  0.35793  1.0000
  H   H1458     1.0  0.97353  0.69388  0.46799  1.0000
  C   C844      1.0  0.60469  0.84468  0.26396  1.0000
  H   H1459     1.0  0.86501  0.66101  0.26483  1.0000
  H   H1460     1.0  0.58339  0.82180  0.26013  1.0000
  H   H1461     1.0  0.59506  0.58410  0.25661  1.0000
  H   H1462     1.0  0.86874  0.88888  0.46717  1.0000
  H   H1463     1.0  0.62776  0.91265  0.26884  1.0000
  C   C845      1.0  0.69187  0.72081  0.24426  1.0000
  H   H1464     1.0  0.97813  0.66569  0.37261  1.0000
  H   H1465     1.0  0.51187  0.49003  0.43891  1.0000
  C   C846      1.0  0.74459  0.50669  0.32322  1.0000
  C   C847      1.0  0.51010  0.49010  0.45948  1.0000
  S   S243      1.0  0.71916  0.59655  0.24296  1.0000
  H   H1466     1.0  0.69626  0.49176  0.35512  1.0000
  C   C848      1.0  0.92444  0.77281  0.48858  1.0000
  C   C849      1.0  0.64299  0.61648  0.24667  1.0000
  H   H1467     1.0  0.91948  0.95452  0.45360  1.0000
  H   H1468     1.0  0.83734  0.87693  0.48912  1.0000
  H   H1469     1.0  0.90265  0.96261  0.42676  1.0000
  H   H1470     1.0  0.84373  0.56196  0.24433  1.0000
  H   H1471     1.0  0.98739  0.66401  0.41957  1.0000
  H   H1472     1.0  0.57910  0.96006  0.71622  1.0000
  Fe  Fe121     1.0  0.56351  0.57996  0.60206  1.0000
  S   S244      1.0  0.55674  0.60834  0.57235  1.0000
  S   S245      1.0  0.61301  0.58894  0.61144  1.0000
  Fe  Fe122     1.0  0.52266  0.61200  0.60024  1.0000
  S   S246      1.0  0.52045  0.65788  0.60749  1.0000
  Fe  Fe123     1.0  0.51692  0.56216  0.55861  1.0000
  H   H1473     1.0  0.95147  0.75372  0.64600  1.0000
  S   S247      1.0  0.53135  0.58598  0.63117  1.0000
  S   S248      1.0  0.52558  0.53340  0.58692  1.0000
  Fe  Fe124     1.0  0.81585  0.76375  0.55065  1.0000
  S   S249      1.0  0.80787  0.72896  0.51837  1.0000
  S   S250      1.0  0.81309  0.80958  0.54601  1.0000
  Fe  Fe125     1.0  0.82525  0.72135  0.58958  1.0000
  S   S251      1.0  0.81616  0.68377  0.55954  1.0000
  S   S252      1.0  0.83994  0.71938  0.63057  1.0000
  Fe  Fe126     1.0  0.84842  0.72383  0.53455  1.0000
  S   S253      1.0  0.88913  0.71811  0.51566  1.0000
  Fe  Fe127     1.0  0.77696  0.69319  0.54681  1.0000
  S   S254      1.0  0.72690  0.65895  0.53492  1.0000
  S   S255      1.0  0.85856  0.76115  0.56515  1.0000
  S   S256      1.0  0.78375  0.72819  0.57853  1.0000
  H   H1474     1.0  0.71442  0.71208  0.56584  1.0000
  H   H1475     1.0  0.66794  0.77326  0.64268  1.0000
  S   S257      1.0  0.83848  0.60295  0.68692  1.0000
  Fe  Fe128     1.0  0.63846  0.88287  0.70764  1.0000
  S   S258      1.0  0.67501  0.93155  0.69599  1.0000
  Fe  Fe129     1.0  0.60916  0.81095  0.69847  1.0000
  S   S259      1.0  0.57164  0.80244  0.72789  1.0000
  S   S260      1.0  0.61517  0.76984  0.68082  1.0000
  Fe  Fe130     1.0  0.56779  0.84270  0.71000  1.0000
  S   S261      1.0  0.52013  0.83911  0.69951  1.0000
  S   S262      1.0  0.60318  0.84895  0.67924  1.0000
  S   S263      1.0  0.64869  0.84590  0.72363  1.0000
  H   H1476     1.0  0.60124  0.71560  0.58074  1.0000
  C   C850      1.0  0.68901  0.96236  0.71930  1.0000
  H   H1477     1.0  0.70192  0.77896  0.62475  1.0000
  C   C851      1.0  0.76904  0.67557  0.68823  1.0000
  C   C852      1.0  0.88643  0.93613  0.50030  1.0000
  C   C853      1.0  0.54697  0.94029  0.52336  1.0000
  S   S264      1.0  0.49860  0.93775  0.63504  1.0000
  C   C854      1.0  0.77219  0.64725  0.69786  1.0000
  H   H1478     1.0  0.90628  0.78158  0.60795  1.0000
  C   C855      1.0  0.69689  0.74542  0.57878  1.0000
  C   C856      1.0  0.84091  0.68701  0.64516  1.0000
  C   C857      1.0  0.82629  0.65658  0.63424  1.0000
  C   C858      1.0  0.82649  0.63133  0.64699  1.0000
  C   C859      1.0  0.84116  0.63609  0.67085  1.0000
  C   C860      1.0  0.85632  0.66664  0.68157  1.0000
  C   C861      1.0  0.85603  0.69188  0.66885  1.0000
  H   H1479     1.0  0.81443  0.65237  0.61611  1.0000
  H   H1480     1.0  0.81472  0.60783  0.63848  1.0000
  H   H1481     1.0  0.86798  0.67076  0.69977  1.0000
  H   H1482     1.0  0.86747  0.71533  0.67746  1.0000
  C   C862      1.0  0.64502  0.61158  0.59114  1.0000
  C   C863      1.0  0.64040  0.62172  0.56769  1.0000
  C   C864      1.0  0.66597  0.63737  0.55104  1.0000
  C   C865      1.0  0.69646  0.64359  0.55785  1.0000
  C   C866      1.0  0.70141  0.63497  0.58183  1.0000
  C   C867      1.0  0.67572  0.61880  0.59831  1.0000
  H   H1483     1.0  0.61704  0.61629  0.56179  1.0000
  H   H1484     1.0  0.66201  0.64403  0.53253  1.0000
  H   H1485     1.0  0.72484  0.63958  0.58723  1.0000
  H   H1486     1.0  0.67959  0.61125  0.61647  1.0000
  C   C868      1.0  0.54634  0.68840  0.62857  1.0000
  C   C869      1.0  0.54377  0.71628  0.63142  1.0000
  C   C870      1.0  0.56394  0.74105  0.64798  1.0000
  C   C871      1.0  0.58721  0.73833  0.66161  1.0000
  C   C872      1.0  0.58954  0.71029  0.65893  1.0000
  C   C873      1.0  0.56907  0.68534  0.64267  1.0000
  H   H1487     1.0  0.52632  0.71893  0.62056  1.0000
  H   H1488     1.0  0.56201  0.76257  0.64973  1.0000
  H   H1489     1.0  0.60737  0.70793  0.66951  1.0000
  H   H1490     1.0  0.57107  0.66388  0.64090  1.0000
  H   H1491     1.0  0.96092  0.71193  0.56601  1.0000
  C   C874      1.0  0.84079  0.96150  0.50792  1.0000
  H   H1492     1.0  0.81857  0.96141  0.51427  1.0000
  C   C875      1.0  0.51517  0.86621  0.68028  1.0000
  C   C876      1.0  0.53998  0.89608  0.67539  1.0000
  C   C877      1.0  0.53458  0.91763  0.66143  1.0000
  H   H1493     1.0  0.56319  0.90270  0.68272  1.0000
  H   H1494     1.0  0.55381  0.94084  0.65819  1.0000
  C   C878      1.0  0.50588  0.49099  0.51290  1.0000
  C   C879      1.0  0.78745  0.84286  0.52288  1.0000
  C   C880      1.0  0.79022  0.81498  0.52231  1.0000
  H   H1495     1.0  0.69291  0.72004  0.54168  1.0000
  H   H1496     1.0  0.82035  0.91102  0.50804  1.0000
  C   C881      1.0  0.61022  0.49945  0.51663  1.0000
  C   C882      1.0  0.96674  0.74400  0.63828  1.0000
  H   H1497     1.0  0.64623  0.72444  0.55425  1.0000
  C   C883      1.0  0.92256  0.77246  0.61359  1.0000
  C   C884      1.0  0.88894  0.69416  0.58432  1.0000
  H   H1498     1.0  0.50376  0.49095  0.53345  1.0000
  H   H1499     1.0  0.94174  0.79092  0.62532  1.0000
  H   H1500     1.0  0.92706  0.68946  0.60106  1.0000
  C   C885      1.0  0.66733  0.56492  0.51267  1.0000
  C   C886      1.0  0.60674  0.69582  0.57707  1.0000
  H   H1501     1.0  0.80778  0.62591  0.72313  1.0000
  H   H1502     1.0  0.98663  0.62274  0.68246  1.0000
  H   H1503     1.0  0.93678  0.72568  0.55158  1.0000
  H   H1504     1.0  0.64134  0.57401  0.54267  1.0000
  H   H1505     1.0  0.91146  0.70963  0.62024  1.0000
  C   C887      1.0  0.49426  0.62008  0.68915  1.0000
  H   H1506     1.0  0.87087  0.67240  0.59316  1.0000
  H   H1507     1.0  0.89929  0.92686  0.53739  1.0000
  H   H1508     1.0  0.89251  0.68720  0.56468  1.0000
  H   H1509     1.0  0.57909  0.92011  0.55291  1.0000
  H   H1510     1.0  0.97982  0.77926  0.54873  1.0000
  H   H1511     1.0  0.59869  0.96282  0.52101  1.0000
  C   C888      1.0  0.77035  0.84845  0.50394  1.0000
  H   H1512     1.0  0.79853  0.86017  0.53812  1.0000
  C   C889      1.0  0.67838  0.76079  0.63091  1.0000
  H   H1513     1.0  0.90534  0.77843  0.49197  1.0000
  H   H1514     1.0  0.79208  0.64663  0.68722  1.0000
  H   H1515     1.0  0.68070  0.74403  0.64355  1.0000
  C   C890      1.0  0.52038  0.94160  0.56426  1.0000
  C   C891      1.0  0.64179  0.70792  0.57002  1.0000
  H   H1516     1.0  0.72566  0.62867  0.72759  1.0000
  C   C892      1.0  0.92257  0.74530  0.49830  1.0000
  C   C893      1.0  0.59801  0.54060  0.50309  1.0000
  C   C894      1.0  0.64278  0.67724  0.62213  1.0000
  C   C895      1.0  0.56105  0.91821  0.59113  1.0000
  C   C896      1.0  0.98503  0.76006  0.55403  1.0000
  H   H1517     1.0  0.52900  0.94625  0.51588  1.0000
  C   C897      1.0  0.70920  0.73023  0.55806  1.0000
  H   H1518     1.0  0.69554  0.76545  0.56985  1.0000
  H   H1519     1.0  0.54769  0.89214  0.59097  1.0000
  H   H1520     1.0  0.96969  0.58155  0.68949  1.0000
  H   H1521     1.0  0.76074  0.67059  0.66815  1.0000
  H   H1522     1.0  0.65454  0.76210  0.59690  1.0000
  C   C898      1.0  0.56683  0.93136  0.56402  1.0000
  H   H1523     1.0  0.76546  0.58650  0.69855  1.0000
  H   H1524     1.0  0.63106  0.68896  0.63281  1.0000
  H   H1525     1.0  0.59922  0.68044  0.59363  1.0000
  H   H1526     1.0  0.75078  0.62586  0.69109  1.0000
  H   H1527     1.0  0.64396  0.68759  0.56124  1.0000
  H   H1528     1.0  0.50860  0.64608  0.69080  1.0000
  H   H1529     1.0  0.65045  0.54365  0.54881  1.0000
  H   H1530     1.0  0.54907  0.92835  0.60365  1.0000
  H   H1531     1.0  0.95615  0.60624  0.70557  1.0000
  H   H1532     1.0  0.58776  0.54651  0.55385  1.0000
  H   H1533     1.0  0.82563  0.68097  0.72296  1.0000
  Fe  Fe131     1.0  0.85260  0.60089  0.72794  1.0000
  H   H1534     1.0  0.65194  0.66787  0.63703  1.0000
  C   C899      1.0  0.59876  0.57288  0.50711  1.0000
  N   N63       1.0  0.53804  0.92711  0.54980  1.0000
  H   H1535     1.0  0.52930  0.87994  0.53832  1.0000
  C   C900      1.0  0.93587  0.76373  0.58945  1.0000
  H   H1536     1.0  0.59189  0.68174  0.56071  1.0000
  C   C901      1.0  0.50451  0.90941  0.65175  1.0000
  H   H1537     1.0  0.61120  0.52998  0.58374  1.0000
  H   H1538     1.0  0.89723  0.96175  0.50533  1.0000
  H   H1539     1.0  0.79225  0.69711  0.68789  1.0000
  H   H1540     1.0  0.94649  0.71721  0.50087  1.0000
  H   H1541     1.0  0.85519  0.96537  0.52519  1.0000
  C   C902      1.0  0.97902  0.68240  0.73404  1.0000
  C   C903      1.0  0.78408  0.62022  0.73094  1.0000
  H   H1542     1.0  0.95541  0.67585  0.72768  1.0000
  H   H1543     1.0  0.62281  0.59219  0.51077  1.0000
  C   C904      1.0  0.58700  0.52392  0.54724  1.0000
  C   C905      1.0  0.95591  0.73231  0.56572  1.0000
  C   C906      1.0  0.67042  0.69970  0.60552  1.0000
  C   C907      1.0  0.65641  0.74384  0.60816  1.0000
  H   H1544     1.0  0.76786  0.86965  0.50481  1.0000
  H   H1545     1.0  0.67128  0.54564  0.50420  1.0000
  H   H1546     1.0  0.71597  0.75624  0.59322  1.0000
  H   H1547     1.0  0.54727  0.92229  0.50952  1.0000
  H   H1548     1.0  0.95619  0.78617  0.58364  1.0000
  H   H1549     1.0  0.62520  0.65705  0.61061  1.0000
  H   H1550     1.0  0.68996  0.58251  0.52142  1.0000
  H   H1551     1.0  0.91890  0.75819  0.57354  1.0000
  H   H1552     1.0  0.50749  0.88144  0.56567  1.0000
  N   N64       1.0  0.60924  0.52926  0.52514  1.0000
  H   H1553     1.0  0.87891  0.71067  0.58386  1.0000
  C   C908      1.0  0.97745  0.60544  0.69782  1.0000
  C   C909      1.0  0.76077  0.58780  0.71926  1.0000
  C   C910      1.0  0.91913  0.70780  0.60049  1.0000
  S   S265      1.0  0.51193  0.55143  0.51573  1.0000
  H   H1554     1.0  0.63263  0.73013  0.61649  1.0000
  C   C911      1.0  0.64176  0.55315  0.53359  1.0000
  H   H1555     1.0  0.69198  0.71086  0.61755  1.0000
  H   H1556     1.0  0.67536  0.68413  0.59216  1.0000
  H   H1557     1.0  0.58264  0.57272  0.52256  1.0000
  H   H1558     1.0  0.55956  0.98063  0.58526  1.0000
  C   C912      1.0  0.97370  0.74945  0.60953  1.0000
  C   C913      1.0  0.97962  0.49130  0.49404  1.0000
  H   H1559     1.0  0.75186  0.68016  0.69956  1.0000
  C   C914      1.0  0.87788  0.91794  0.52536  1.0000
  N   N65       1.0  0.66578  0.72371  0.59103  1.0000
  N   N66       1.0  0.94580  0.73851  0.59183  1.0000
  C   C915      1.0  0.60363  0.96366  0.71608  1.0000
  H   H1560     1.0  0.52420  0.98344  0.58425  1.0000
  H   H1561     1.0  0.50202  0.61092  0.67235  1.0000
  H   H1562     1.0  0.90802  0.75221  0.62548  1.0000
  S   S266      1.0  0.60281  0.87847  0.73746  1.0000
  H   H1563     1.0  0.60240  0.94007  0.71715  1.0000
  H   H1564     1.0  0.58411  0.92471  0.60012  1.0000
  C   C916      1.0  0.51636  0.89214  0.54684  1.0000
  H   H1565     1.0  0.77695  0.77087  0.50213  1.0000
  H   H1566     1.0  0.50925  0.92813  0.58163  1.0000
  C   C917      1.0  0.77522  0.79251  0.50278  1.0000
  H   H1567     1.0  0.85994  0.92127  0.53668  1.0000
  H   H1568     1.0  0.86950  0.89235  0.52200  1.0000
  H   H1569     1.0  0.61512  0.97315  0.69758  1.0000
  C   C918      1.0  0.83260  0.92974  0.49402  1.0000
  H   H1570     1.0  0.49962  0.61050  0.70624  1.0000
  H   H1571     1.0  0.56197  0.50916  0.54163  1.0000
  C   C919      1.0  0.59368  0.51066  0.57139  1.0000
  H   H1572     1.0  0.57323  0.52356  0.49826  1.0000
  H   H1573     1.0  0.50049  0.94003  0.55278  1.0000
  H   H1574     1.0  0.95614  0.71858  0.64249  1.0000
  C   C920      1.0  0.53959  0.97640  0.57274  1.0000
  H   H1575     1.0  0.66205  0.57718  0.49751  1.0000
  H   H1576     1.0  0.58441  0.95657  0.56617  1.0000
  C   C921      1.0  0.57946  0.96937  0.51993  1.0000
  C   C922      1.0  0.51008  0.51747  0.49976  1.0000
  H   H1577     1.0  0.73181  0.74872  0.55035  1.0000
  N   N67       1.0  0.77649  0.64668  0.72626  1.0000
  H   H1578     1.0  0.62364  0.50301  0.49848  1.0000
  H   H1579     1.0  0.80034  0.69779  0.73000  1.0000
  H   H1580     1.0  0.62338  0.49294  0.53036  1.0000
  H   H1581     1.0  0.60204  0.49314  0.56729  1.0000
  C   C923      1.0  0.94767  0.73844  0.49351  1.0000
  Fe  Fe132     1.0  0.49216  0.54229  0.61289  1.0000
  H   H1582     1.0  0.73589  0.58246  0.72213  1.0000
  H   H1583     1.0  0.58068  0.97867  0.50063  1.0000
  H   H1584     1.0  0.97629  0.54619  0.71038  1.0000
  H   H1585     1.0  0.57142  0.49797  0.58230  1.0000
  C   C924      1.0  0.80438  0.67748  0.73417  1.0000
  H   H1586     1.0  0.76424  0.56911  0.72823  1.0000
  H   H1587     1.0  0.85290  0.98182  0.49542  1.0000
  C   C925      1.0  0.74679  0.64265  0.73971  1.0000
  H   H1588     1.0  0.48998  0.65853  0.65682  1.0000
  S   S267      1.0  0.89209  0.59060  0.73865  1.0000
  H   H1589     1.0  0.49204  0.89169  0.51100  1.0000
  C   C926      1.0  0.62316  0.98455  0.73879  1.0000
  H   H1590     1.0  0.90572  0.93243  0.49150  1.0000
  Fe  Fe133     1.0  0.83167  0.60194  0.78325  1.0000
  H   H1591     1.0  0.79833  0.71707  0.96127  1.0000
  S   S268      1.0  0.79484  0.60908  0.80704  1.0000
  Fe  Fe134     1.0  0.90231  0.62780  0.76932  1.0000
  S   S269      1.0  0.95277  0.66043  0.78135  1.0000
  Fe  Fe135     1.0  0.85866  0.55755  0.76740  1.0000
  S   S270      1.0  0.85224  0.50883  0.77621  1.0000
  S   S271      1.0  0.86476  0.64008  0.75715  1.0000
  S   S272      1.0  0.87076  0.59415  0.79870  1.0000
  Fe  Fe136     1.0  0.60330  0.56139  0.87986  1.0000
  S   S273      1.0  0.63102  0.55077  0.90823  1.0000
  S   S274      1.0  0.62125  0.61127  0.86674  1.0000
  Fe  Fe137     1.0  0.58320  0.51353  0.92165  1.0000
  Fe  Fe138     1.0  0.62969  0.51517  0.87856  1.0000
  S   S275      1.0  0.67053  0.50764  0.86254  1.0000
  S   S276      1.0  0.55575  0.52653  0.89471  1.0000
  S   S277      1.0  0.60383  0.52734  0.84972  1.0000
  Fe  Fe139     1.0  0.74349  0.84735  0.94256  1.0000
  S   S278      1.0  0.77937  0.85331  0.91210  1.0000
  S   S279      1.0  0.73950  0.88978  0.95962  1.0000
  Fe  Fe140     1.0  0.70927  0.77541  0.93338  1.0000
  S   S280      1.0  0.74273  0.77750  0.90249  1.0000
  S   S281      1.0  0.67043  0.72790  0.94500  1.0000
  Fe  Fe141     1.0  0.78023  0.81114  0.92937  1.0000
  S   S282      1.0  0.82405  0.80453  0.93453  1.0000
  Fe  Fe142     1.0  0.73775  0.81877  0.88871  1.0000
  S   S283      1.0  0.73019  0.82245  0.84623  1.0000
  S   S284      1.0  0.74679  0.80734  0.96117  1.0000
  S   S285      1.0  0.70189  0.81448  0.91817  1.0000
  C   C927      1.0  0.96268  0.81056  0.99035  1.0000
  H   H1592     1.0  0.55514  0.58384  0.99103  1.0000
  S   S286      1.0  0.61756  0.83578  0.79485  1.0000
  H   H1593     1.0  0.74474  0.88627  0.80217  1.0000
  H   H1594     1.0  0.72600  0.94744  0.77436  1.0000
  C   C928      1.0  0.69820  0.82546  0.83248  1.0000
  C   C929      1.0  0.69400  0.82162  0.80590  1.0000
  C   C930      1.0  0.66917  0.82414  0.79412  1.0000
  C   C931      1.0  0.64826  0.83074  0.80880  1.0000
  C   C932      1.0  0.65246  0.83461  0.83541  1.0000
  C   C933      1.0  0.67732  0.83210  0.84719  1.0000
  H   H1595     1.0  0.71004  0.81659  0.79430  1.0000
  H   H1596     1.0  0.66633  0.82115  0.77364  1.0000
  H   H1597     1.0  0.63679  0.84026  0.84692  1.0000
  H   H1598     1.0  0.68055  0.83569  0.86760  1.0000
  C   C934      1.0  0.63642  0.64289  0.88922  1.0000
  C   C935      1.0  0.65713  0.67313  0.88094  1.0000
  C   C936      1.0  0.66802  0.69930  0.89795  1.0000
  C   C937      1.0  0.65821  0.69540  0.92340  1.0000
  C   C938      1.0  0.63797  0.66504  0.93182  1.0000
  C   C939      1.0  0.62726  0.63880  0.91482  1.0000
  H   H1599     1.0  0.66441  0.67640  0.86117  1.0000
  H   H1600     1.0  0.68356  0.72248  0.89121  1.0000
  H   H1601     1.0  0.63030  0.66184  0.95149  1.0000
  H   H1602     1.0  0.61126  0.61554  0.92136  1.0000
  H   H1603     1.0  0.71457  0.50117  0.82818  1.0000
  H   H1604     1.0  0.78023  0.92086  0.79649  1.0000
  C   C940      1.0  0.75920  0.58028  0.82084  1.0000
  C   C941      1.0  0.74894  0.54793  0.81749  1.0000
  C   C942      1.0  0.72180  0.52607  0.83037  1.0000
  C   C943      1.0  0.70388  0.53613  0.84597  1.0000
  C   C944      1.0  0.71327  0.56838  0.84829  1.0000
  C   C945      1.0  0.74091  0.59029  0.83600  1.0000
  H   H1605     1.0  0.76212  0.53978  0.80525  1.0000
  S   S287      1.0  0.81765  0.56342  0.75342  1.0000
  H   H1606     1.0  0.69964  0.57651  0.86006  1.0000
  H   H1607     1.0  0.74834  0.61520  0.83851  1.0000
  H   H1608     1.0  0.97869  0.78174  0.96816  1.0000
  H   H1609     1.0  0.71846  0.62756  0.77430  1.0000
  H   H1610     1.0  0.93984  0.54003  0.83694  1.0000
  C   C946      1.0  0.67007  0.53666  0.77845  1.0000
  H   H1611     1.0  0.75834  0.94076  0.76725  1.0000
  C   C947      1.0  0.97835  0.54228  0.96020  1.0000
  H   H1612     1.0  0.76428  0.65128  0.93517  1.0000
  N   N68       1.0  0.74046  0.92914  0.80574  1.0000
  H   H1613     1.0  0.98662  0.86649  0.94683  1.0000
  C   C948      1.0  0.83177  0.78657  0.96068  1.0000
  C   C949      1.0  0.85807  0.78104  0.95963  1.0000
  C   C950      1.0  0.53652  0.50356  0.98029  1.0000
  H   H1614     1.0  0.82196  0.59267  0.87698  1.0000
  H   H1615     1.0  0.87325  0.78799  0.94305  1.0000
  H   H1616     1.0  0.74832  0.70561  0.98100  1.0000
  H   H1617     1.0  0.93861  0.79412  0.98338  1.0000
  C   C951      1.0  0.87643  0.50210  0.79769  1.0000
  C   C952      1.0  0.90170  0.52693  0.81037  1.0000
  H   H1618     1.0  0.70809  0.69025  0.96961  1.0000
  S   S288      1.0  0.57064  0.50592  0.96427  1.0000
  H   H1619     1.0  0.90733  0.55098  0.80668  1.0000
  N   N69       1.0  0.60859  0.73300  0.86062  1.0000
  C   C953      1.0  0.62558  0.74337  0.83544  1.0000
  C   C954      1.0  0.57885  0.73609  0.85917  1.0000
  C   C955      1.0  0.59979  0.69872  0.86310  1.0000
  C   C956      1.0  0.63035  0.75300  0.88183  1.0000
  C   C957      1.0  0.65632  0.74082  0.83206  1.0000
  C   C958      1.0  0.58358  0.76959  0.85486  1.0000
  C   C959      1.0  0.61503  0.75575  0.90737  1.0000
  H   H1620     1.0  0.60981  0.72994  0.81922  1.0000
  H   H1621     1.0  0.63241  0.76846  0.83234  1.0000
  H   H1622     1.0  0.56407  0.72756  0.87642  1.0000
  H   H1623     1.0  0.56358  0.72066  0.84339  1.0000
  H   H1624     1.0  0.58468  0.68443  0.84683  1.0000
  H   H1625     1.0  0.62094  0.69527  0.86212  1.0000
  H   H1626     1.0  0.64757  0.74450  0.88619  1.0000
  H   H1627     1.0  0.64483  0.77757  0.87551  1.0000
  H   H1628     1.0  0.65173  0.71606  0.82945  1.0000
  H   H1629     1.0  0.66839  0.75290  0.81441  1.0000
  H   H1630     1.0  0.67313  0.75261  0.84791  1.0000
  H   H1631     1.0  0.58996  0.77634  0.83474  1.0000
  H   H1632     1.0  0.56106  0.77021  0.85860  1.0000
  H   H1633     1.0  0.60156  0.78751  0.86768  1.0000
  H   H1634     1.0  0.62963  0.75523  0.92334  1.0000
  H   H1635     1.0  0.61547  0.77901  0.90940  1.0000
  H   H1636     1.0  0.78928  0.49545  0.79986  1.0000
  H   H1637     1.0  0.65733  0.55035  0.77517  1.0000
  C   C960      1.0  0.65093  0.50777  0.79495  1.0000
  H   H1638     1.0  0.81234  0.70380  0.93367  1.0000
  H   H1639     1.0  0.74895  0.89844  0.84930  1.0000
  H   H1640     1.0  0.79625  0.68603  0.77434  1.0000
  H   H1641     1.0  0.75849  0.63716  0.77950  1.0000
  C   C961      1.0  0.73552  0.93086  0.77769  1.0000
  H   H1642     1.0  0.78175  0.89556  0.83590  1.0000
  Fe  Fe143     1.0  0.61091  0.83918  0.75208  1.0000
  H   H1643     1.0  0.60745  0.51177  0.75996  1.0000
  H   H1644     1.0  0.75031  0.66287  0.96272  1.0000
  C   C962      1.0  0.73905  0.62622  0.76560  1.0000
  H   H1645     1.0  0.78582  0.93364  0.84406  1.0000
  H   H1646     1.0  0.57723  0.65774  0.88653  1.0000
  H   H1647     1.0  0.76242  0.50532  0.86522  1.0000
  C   C963      1.0  0.92005  0.52063  0.82759  1.0000
  H   H1648     1.0  0.72367  0.88254  0.76391  1.0000
  C   C964      1.0  0.60045  0.50015  0.77867  1.0000
  H   H1649     1.0  0.80876  0.54453  0.82416  1.0000
  H   H1650     1.0  0.69808  0.88687  0.81409  1.0000
  C   C965      1.0  0.71397  0.89936  0.76372  1.0000
  H   H1651     1.0  0.74493  0.97566  0.81298  1.0000
  H   H1652     1.0  0.98686  0.81729  0.95283  1.0000
  C   C966      1.0  0.73272  0.70903  0.96761  1.0000
  C   C967      1.0  0.79726  0.69623  0.95092  1.0000
  H   H1653     1.0  0.74728  0.66590  0.74292  1.0000
  H   H1654     1.0  0.71324  0.91307  0.84052  1.0000
  C   C968      1.0  0.70957  0.91215  0.81960  1.0000
  H   H1655     1.0  0.66810  0.93228  0.75100  1.0000
  C   C969      1.0  0.75782  0.96215  0.81689  1.0000
  C   C970      1.0  0.58301  0.68300  0.88784  1.0000
  H   H1656     1.0  0.83214  0.59071  0.84405  1.0000
  C   C971      1.0  0.92885  0.53895  0.90216  1.0000
  H   H1657     1.0  0.86222  0.61073  0.86723  1.0000
  H   H1658     1.0  0.56050  0.68367  0.89096  1.0000
  H   H1659     1.0  0.71209  0.90405  0.74341  1.0000
  N   N70       1.0  0.74559  0.68334  0.92795  1.0000
  C   C972      1.0  0.74454  0.71189  0.93983  1.0000
  C   C973      1.0  0.76228  0.69256  0.90259  1.0000
  H   H1660     1.0  0.69008  0.97621  0.78343  1.0000
  C   C974      1.0  0.71235  0.65725  0.92488  1.0000
  H   H1661     1.0  0.95054  0.83180  0.93775  1.0000
  C   C975      1.0  0.74320  0.69643  0.88098  1.0000
  H   H1662     1.0  0.61458  0.96943  0.75570  1.0000
  C   C976      1.0  0.70847  0.62651  0.91139  1.0000
  H   H1663     1.0  0.55367  0.49456  0.77124  1.0000
  H   H1664     1.0  0.72890  0.71807  0.92869  1.0000
  H   H1665     1.0  0.77050  0.67555  0.89559  1.0000
  H   H1666     1.0  0.78430  0.71540  0.90455  1.0000
  H   H1667     1.0  0.92351  0.83177  0.97474  1.0000
  C   C977      1.0  0.78749  0.49426  0.82097  1.0000
  H   H1668     1.0  0.70061  0.65026  0.94374  1.0000
  H   H1669     1.0  0.69751  0.66538  0.91492  1.0000
  H   H1670     1.0  0.88266  0.49449  0.93324  1.0000
  H   H1671     1.0  0.64773  0.51703  0.81393  1.0000
  H   H1672     1.0  0.73279  0.73145  0.97366  1.0000
  H   H1673     1.0  0.75873  0.70598  0.86413  1.0000
  H   H1674     1.0  0.72325  0.67356  0.87482  1.0000
  H   H1675     1.0  0.73426  0.71322  0.88646  1.0000
  H   H1676     1.0  0.68963  0.88800  0.77139  1.0000
  C   C978      1.0  0.81348  0.68201  0.76253  1.0000
  C   C979      1.0  0.96068  0.85484  0.94833  1.0000
  H   H1677     1.0  0.70522  0.60866  0.92561  1.0000
  H   H1678     1.0  0.72840  0.62965  0.89886  1.0000
  H   H1679     1.0  0.68735  0.61679  0.89892  1.0000
  H   H1680     1.0  0.59870  0.69319  0.90460  1.0000
  H   H1681     1.0  0.76807  0.73314  0.93923  1.0000
  H   H1682     1.0  0.66367  0.90920  0.82663  1.0000
  C   C980      1.0  0.94831  0.85079  0.97595  1.0000
  C   C981      1.0  0.81266  0.52584  0.83263  1.0000
  H   H1683     1.0  0.91374  0.55044  0.89984  1.0000
  H   H1684     1.0  0.79185  0.78117  0.98329  1.0000
  C   C982      1.0  0.68540  0.92422  0.81580  1.0000
  C   C983      1.0  0.49079  0.97628  0.98342  1.0000
  C   C984      1.0  0.75884  0.91124  0.80878  1.0000
  H   H1685     1.0  0.57602  0.98536  0.76000  1.0000
  H   H1686     1.0  0.69203  0.55276  0.78883  1.0000
  C   C985      1.0  0.84145  0.55967  0.86900  1.0000
  H   H1687     1.0  0.69404  0.94871  0.82324  1.0000
  H   H1688     1.0  0.77905  0.54630  0.86119  1.0000
  H   H1689     1.0  0.80762  0.68560  0.96368  1.0000
  C   C986      1.0  0.98391  0.67639  0.75899  1.0000
  H   H1690     1.0  0.59094  0.73686  0.91083  1.0000
  H   H1691     1.0  0.67815  0.92229  0.79567  1.0000
  H   H1692     1.0  0.93053  0.55615  0.94114  1.0000
  H   H1693     1.0  0.88406  0.76083  0.97806  1.0000
  H   H1694     1.0  0.91362  0.51345  0.89880  1.0000
  C   C987      1.0  0.94502  0.54881  0.92859  1.0000
  H   H1695     1.0  0.86300  0.56223  0.85875  1.0000
  C   C988      1.0  0.81212  0.77707  0.98211  1.0000
  H   H1696     1.0  0.80029  0.55380  0.90770  1.0000
  C   C989      1.0  0.51232  0.50561  0.96746  1.0000
  C   C990      1.0  0.76310  0.67186  0.94449  1.0000
  C   C991      1.0  0.96149  0.50643  0.92322  1.0000
  H   H1697     1.0  0.95358  0.87062  0.93854  1.0000
  H   H1698     1.0  0.75892  0.96200  0.83805  1.0000
  C   C992      1.0  0.76427  0.92006  0.98145  1.0000
  H   H1699     1.0  0.84693  0.56035  0.88958  1.0000
  H   H1700     1.0  0.66667  0.49717  0.79819  1.0000
  H   H1701     1.0  0.60528  0.51953  0.79302  1.0000
  C   C993      1.0  0.76925  0.91001  0.83617  1.0000
  C   C994      1.0  0.92337  0.50258  0.95666  1.0000
  C   C995      1.0  0.81636  0.50232  0.87300  1.0000
  H   H1702     1.0  0.78589  0.61705  0.75154  1.0000
  N   N71       1.0  0.81332  0.52894  0.86133  1.0000
  H   H1703     1.0  0.80729  0.97187  0.81080  1.0000
  H   H1704     1.0  0.73243  0.60088  0.76331  1.0000
  H   H1705     1.0  0.94664  0.54802  0.88664  1.0000
  H   H1706     1.0  0.51437  0.50948  0.94719  1.0000
  C   C996      1.0  0.98605  0.80718  0.97154  1.0000
  C   C997      1.0  0.83890  0.58985  0.86391  1.0000
  H   H1707     1.0  0.94334  0.49301  0.90873  1.0000
  C   C998      1.0  0.86447  0.76592  0.97956  1.0000
  H   H1708     1.0  0.96241  0.57545  0.97688  1.0000
  H   H1709     1.0  0.91583  0.51555  0.97073  1.0000
  H   H1710     1.0  0.83647  0.70358  0.76496  1.0000
  C   C999      1.0  0.97199  0.55980  0.98293  1.0000
  H   H1711     1.0  0.94567  0.87189  0.98191  1.0000
  Fe  Fe144     1.0  0.55943  0.49080  0.86752  1.0000
  H   H1712     1.0  0.96754  0.57064  0.92537  1.0000
  C   C1000     1.0  0.69494  0.98105  0.76346  1.0000
  H   H1713     1.0  0.79187  0.98645  0.78622  1.0000
  C   C1001     1.0  0.68241  0.95623  0.74514  1.0000
  H   H1714     1.0  0.81661  0.66245  0.76997  1.0000
  H   H1715     1.0  0.86716  0.51854  0.86561  1.0000
  C   C1002     1.0  0.78031  0.53227  0.89962  1.0000
  N   N72       1.0  0.95159  0.52501  0.94160  1.0000
  C   C1003     1.0  0.84412  0.49717  0.86323  1.0000
  H   H1716     1.0  0.85335  0.96582  0.96908  1.0000
  H   H1717     1.0  0.83590  0.52958  0.82504  1.0000
  H   H1718     1.0  0.67739  0.53008  0.76004  1.0000
  C   C1004     1.0  0.78307  0.52813  0.87055  1.0000
  C   C1005     1.0  0.79160  0.98224  0.80687  1.0000
  H   H1719     1.0  0.82958  0.98183  0.95590  1.0000
  H   H1720     1.0  0.84101  0.48900  0.84303  1.0000
  H   H1721     1.0  0.81948  0.50615  0.89400  1.0000
  H   H1722     1.0  0.84809  0.96495  0.93552  1.0000
  C   C1006     1.0  0.85129  0.97941  0.95327  1.0000
  H   H1723     1.0  0.75854  0.53431  0.90367  1.0000
  H   H1724     1.0  0.73906  0.94664  0.97691  1.0000
  H   H1725     1.0  0.77787  0.51142  0.90978  1.0000
  C   C1007     1.0  0.75832  0.94573  0.98650  1.0000
  H   H1726     1.0  0.76320  0.48932  0.82605  1.0000
  H   H1727     1.0  0.98571  0.52576  0.96833  1.0000
  H   H1728     1.0  0.79395  0.89949  0.99045  1.0000
  C   C1008     1.0  0.91327  0.48951  0.83254  1.0000
